MODEL 1
REMARK VINA RESULT: -9.953034297      0.000      0.000
REMARK  8 active torsions:
REMARK  status: ('A' for Active; 'I' for Inactive)
REMARK    1  A    between atoms: C2_2  and  C4_4 
REMARK    2  A    between atoms: C5_5  and  N1_6 
REMARK       I    between atoms: N1_6  and  C6_8 
REMARK       I    between atoms: C6_8  and  N2_10 
REMARK    3  A    between atoms: N2_10  and  C7_12 
REMARK    4  A    between atoms: C7_12  and  C8_13 
REMARK    5  A    between atoms: C7_12  and  C13_19 
REMARK    6  A    between atoms: C8_13  and  N3_14 
REMARK    7  A    between atoms: N3_14  and  C10_16 
REMARK    8  A    between atoms: C13_19  and  N4_21 
ROOT
HETATM    1  N4  UNL     1     -11.170  14.912  31.094  1.00  0.00    -0.373 N 
HETATM    2  C14 UNL     1     -10.590  16.187  30.874  1.00  0.00     0.124 C 
HETATM    3  C15 UNL     1     -10.340  16.513  29.395  1.00  0.00     0.030 C 
HETATM    4  C16 UNL     1     -11.297  15.857  28.496  1.00  0.00    -0.029 C 
HETATM    5  C17 UNL     1     -12.655  16.567  28.707  1.00  0.00     0.016 C 
HETATM    6  C18 UNL     1     -11.078  15.514  27.107  1.00  0.00     0.004 C 
HETATM    7  C19 UNL     1     -10.150  16.116  26.179  1.00  0.00    -0.004 C 
HETATM    8  C20 UNL     1      -9.153  17.116  26.628  1.00  0.00     0.006 C 
HETATM    9  C21 UNL     1      -8.601  17.795  25.355  1.00  0.00     0.006 C 
HETATM   10  C22 UNL     1      -7.855  16.732  24.601  1.00  0.00     0.002 C 
HETATM   11  C23 UNL     1      -7.060  17.265  23.451  1.00  0.00    -0.043 C 
HETATM   12  C24 UNL     1      -5.555  17.298  23.753  1.00  0.00     0.015 C 
HETATM   13  C25 UNL     1      -7.430  18.730  23.171  1.00  0.00     0.015 C 
HETATM   14  C26 UNL     1      -7.227  16.532  22.162  1.00  0.00     0.009 C 
HETATM   15  C27 UNL     1      -7.287  15.050  22.290  1.00  0.00     0.002 C 
HETATM   16  C28 UNL     1      -7.818  14.539  23.585  1.00  0.00     0.010 C 
HETATM   17  C29 UNL     1      -8.726  15.551  24.249  1.00  0.00    -0.036 C 
HETATM   18  C30 UNL     1      -9.809  15.895  23.256  1.00  0.00     0.016 C 
HETATM   19  C31 UNL     1      -9.374  14.999  25.467  1.00  0.00    -0.002 C 
HETATM   20  C32 UNL     1      -8.499  14.235  26.388  1.00  0.00     0.006 C 
HETATM   21  C33 UNL     1      -9.273  13.831  27.618  1.00  0.00     0.006 C 
HETATM   22  C34 UNL     1     -10.723  14.083  27.547  1.00  0.00     0.001 C 
HETATM   23  C35 UNL     1     -11.500  14.380  28.790  1.00  0.00    -0.016 C 
HETATM   24  C36 UNL     1     -12.955  13.911  28.619  1.00  0.00     0.018 C 
HETATM   25  C37 UNL     1     -10.973  13.903  30.074  1.00  0.00     0.133 C 
ENDROOT
BRANCH   1  26
HETATM   26  C13 UNL     1     -11.886  14.606  32.246  1.00  0.00     0.100 C 
HETATM   27  S1  UNL     1     -13.550  14.636  32.143  1.00  0.00    -0.063 SA
BRANCH  26  28
HETATM   28  C7  UNL     1     -11.273  14.252  33.580  1.00  0.00     0.176 C 
BRANCH  28  29
HETATM   29  N2  UNL     1     -12.419  13.702  34.337  1.00  0.00    -0.330 N 
HETATM   30  C6  UNL     1     -12.264  12.581  35.218  1.00  0.00     0.320 C 
HETATM   31  N1  UNL     1     -13.341  12.054  35.945  1.00  0.00    -0.319 N 
HETATM   32  O1  UNL     1     -11.117  12.092  35.314  1.00  0.00    -0.247 OA
ATOM     33  H1  UNL     1     -14.231  12.505  35.733  1.00  0.00     0.169 HD
ATOM     34  H2  UNL     1     -13.340  14.128  34.229  1.00  0.00     0.165 HD
BRANCH  31  35
HETATM   35  C5  UNL     1     -13.451  11.040  36.899  1.00  0.00     0.089 C 
HETATM   36  C4  UNL     1     -13.024   9.667  36.770  1.00  0.00    -0.006 C 
BRANCH  36  37
HETATM   37  C2  UNL     1     -13.367   8.680  35.766  1.00  0.00     0.001 C 
HETATM   38  C1  UNL     1     -13.352   7.244  36.188  1.00  0.00     0.013 C 
HETATM   39  C3  UNL     1     -12.614   8.861  34.445  1.00  0.00     0.013 C 
ENDBRANCH  36  37
ENDBRANCH  31  35
ENDBRANCH  28  29
BRANCH  28  40
HETATM   40  C8  UNL     1     -10.919  15.509  34.353  1.00  0.00     0.304 C 
BRANCH  40  41
HETATM   41  N3  UNL     1      -9.571  15.570  34.830  1.00  0.00     0.090 N 
HETATM   42  C9  UNL     1      -8.912  16.629  34.021  1.00  0.00     0.310 C 
BRANCH  41  43
HETATM   43  C10 UNL     1      -9.657  16.113  36.215  1.00  0.00     0.214 C 
HETATM   44  C11 UNL     1      -8.297  16.572  36.695  1.00  0.00     0.042 C 
HETATM   45  C12 UNL     1     -10.219  15.089  37.158  1.00  0.00     0.042 C 
ENDBRANCH  41  43
ENDBRANCH  40  41
ENDBRANCH  28  40
ENDBRANCH  26  28
ENDBRANCH   1  26
TORSDOF 8
ENDMDL
MODEL 2
REMARK VINA RESULT: -9.924998750      1.215      1.931
REMARK  8 active torsions:
REMARK  status: ('A' for Active; 'I' for Inactive)
REMARK    1  A    between atoms: C2_2  and  C4_4 
REMARK    2  A    between atoms: C5_5  and  N1_6 
REMARK       I    between atoms: N1_6  and  C6_8 
REMARK       I    between atoms: C6_8  and  N2_10 
REMARK    3  A    between atoms: N2_10  and  C7_12 
REMARK    4  A    between atoms: C7_12  and  C8_13 
REMARK    5  A    between atoms: C7_12  and  C13_19 
REMARK    6  A    between atoms: C8_13  and  N3_14 
REMARK    7  A    between atoms: N3_14  and  C10_16 
REMARK    8  A    between atoms: C13_19  and  N4_21 
ROOT
HETATM    1  N4  UNL     1     -11.390  14.944  31.060  1.00  0.00    -0.373 N 
HETATM    2  C14 UNL     1     -10.822  16.223  30.839  1.00  0.00     0.124 C 
HETATM    3  C15 UNL     1     -10.529  16.530  29.363  1.00  0.00     0.030 C 
HETATM    4  C16 UNL     1     -11.446  15.846  28.444  1.00  0.00    -0.029 C 
HETATM    5  C17 UNL     1     -12.820  16.538  28.599  1.00  0.00     0.016 C 
HETATM    6  C18 UNL     1     -11.177  15.483  27.069  1.00  0.00     0.004 C 
HETATM    7  C19 UNL     1     -10.227  16.084  26.162  1.00  0.00    -0.004 C 
HETATM    8  C20 UNL     1      -9.260  17.106  26.627  1.00  0.00     0.006 C 
HETATM    9  C21 UNL     1      -8.676  17.772  25.361  1.00  0.00     0.006 C 
HETATM   10  C22 UNL     1      -7.891  16.709  24.649  1.00  0.00     0.002 C 
HETATM   11  C23 UNL     1      -7.066  17.235  23.517  1.00  0.00    -0.043 C 
HETATM   12  C24 UNL     1      -5.573  17.295  23.867  1.00  0.00     0.015 C 
HETATM   13  C25 UNL     1      -7.448  18.689  23.201  1.00  0.00     0.015 C 
HETATM   14  C26 UNL     1      -7.180  16.479  22.236  1.00  0.00     0.009 C 
HETATM   15  C27 UNL     1      -7.224  14.999  22.386  1.00  0.00     0.002 C 
HETATM   16  C28 UNL     1      -7.789  14.500  23.672  1.00  0.00     0.010 C 
HETATM   17  C29 UNL     1      -8.733  15.509  24.288  1.00  0.00    -0.036 C 
HETATM   18  C30 UNL     1      -9.787  15.822  23.256  1.00  0.00     0.016 C 
HETATM   19  C31 UNL     1      -9.413  14.967  25.494  1.00  0.00    -0.002 C 
HETATM   20  C32 UNL     1      -8.557  14.232  26.455  1.00  0.00     0.006 C 
HETATM   21  C33 UNL     1      -9.365  13.836  27.666  1.00  0.00     0.006 C 
HETATM   22  C34 UNL     1     -10.816  14.066  27.543  1.00  0.00     0.001 C 
HETATM   23  C35 UNL     1     -11.638  14.370  28.756  1.00  0.00    -0.016 C 
HETATM   24  C36 UNL     1     -13.079  13.878  28.546  1.00  0.00     0.018 C 
HETATM   25  C37 UNL     1     -11.146  13.922  30.064  1.00  0.00     0.133 C 
ENDROOT
BRANCH   1  26
HETATM   26  C13 UNL     1     -12.140  14.646  32.193  1.00  0.00     0.100 C 
HETATM   27  S1  UNL     1     -13.798  14.607  32.026  1.00  0.00    -0.063 SA
BRANCH  26  28
HETATM   28  C7  UNL     1     -11.567  14.358  33.561  1.00  0.00     0.176 C 
BRANCH  28  29
HETATM   29  N2  UNL     1     -12.772  14.088  34.375  1.00  0.00    -0.330 N 
HETATM   30  C6  UNL     1     -12.812  13.007  35.316  1.00  0.00     0.320 C 
HETATM   31  N1  UNL     1     -13.946  12.744  36.098  1.00  0.00    -0.319 N 
HETATM   32  O1  UNL     1     -11.783  12.302  35.411  1.00  0.00    -0.247 OA
ATOM     33  H1  UNL     1     -14.735  13.353  35.882  1.00  0.00     0.169 HD
ATOM     34  H2  UNL     1     -13.592  14.685  34.266  1.00  0.00     0.165 HD
BRANCH  31  35
HETATM   35  C5  UNL     1     -14.221  11.823  37.110  1.00  0.00     0.089 C 
HETATM   36  C4  UNL     1     -14.894  12.074  38.363  1.00  0.00    -0.006 C 
BRANCH  36  37
HETATM   37  C2  UNL     1     -14.588  13.037  39.401  1.00  0.00     0.001 C 
HETATM   38  C1  UNL     1     -15.413  14.286  39.437  1.00  0.00     0.013 C 
HETATM   39  C3  UNL     1     -13.098  13.374  39.507  1.00  0.00     0.013 C 
ENDBRANCH  36  37
ENDBRANCH  31  35
ENDBRANCH  28  29
BRANCH  28  40
HETATM   40  C8  UNL     1     -11.006  15.624  34.180  1.00  0.00     0.304 C 
BRANCH  40  41
HETATM   41  N3  UNL     1      -9.676  15.511  34.697  1.00  0.00     0.090 N 
HETATM   42  C9  UNL     1      -8.853  16.443  33.883  1.00  0.00     0.310 C 
BRANCH  41  43
HETATM   43  C10 UNL     1      -9.723  16.101  36.065  1.00  0.00     0.214 C 
HETATM   44  C11 UNL     1      -8.344  16.541  36.506  1.00  0.00     0.042 C 
HETATM   45  C12 UNL     1     -10.294  15.124  37.051  1.00  0.00     0.042 C 
ENDBRANCH  41  43
ENDBRANCH  40  41
ENDBRANCH  28  40
ENDBRANCH  26  28
ENDBRANCH   1  26
TORSDOF 8
ENDMDL
MODEL 3
REMARK VINA RESULT: -9.595789874      1.074      2.512
REMARK  8 active torsions:
REMARK  status: ('A' for Active; 'I' for Inactive)
REMARK    1  A    between atoms: C2_2  and  C4_4 
REMARK    2  A    between atoms: C5_5  and  N1_6 
REMARK       I    between atoms: N1_6  and  C6_8 
REMARK       I    between atoms: C6_8  and  N2_10 
REMARK    3  A    between atoms: N2_10  and  C7_12 
REMARK    4  A    between atoms: C7_12  and  C8_13 
REMARK    5  A    between atoms: C7_12  and  C13_19 
REMARK    6  A    between atoms: C8_13  and  N3_14 
REMARK    7  A    between atoms: N3_14  and  C10_16 
REMARK    8  A    between atoms: C13_19  and  N4_21 
ROOT
HETATM    1  N4  UNL     1     -11.516  15.129  31.007  1.00  0.00    -0.373 N 
HETATM    2  C14 UNL     1     -11.610  14.133  30.002  1.00  0.00     0.124 C 
HETATM    3  C15 UNL     1     -10.592  14.296  28.865  1.00  0.00     0.030 C 
HETATM    4  C16 UNL     1      -9.346  14.938  29.300  1.00  0.00    -0.029 C 
HETATM    5  C17 UNL     1      -8.606  13.907  30.183  1.00  0.00     0.016 C 
HETATM    6  C18 UNL     1      -8.431  15.695  28.472  1.00  0.00     0.004 C 
HETATM    7  C19 UNL     1      -8.244  15.603  27.042  1.00  0.00    -0.004 C 
HETATM    8  C20 UNL     1      -9.139  14.773  26.201  1.00  0.00     0.006 C 
HETATM    9  C21 UNL     1      -8.443  14.620  24.831  1.00  0.00     0.006 C 
HETATM   10  C22 UNL     1      -8.406  15.992  24.221  1.00  0.00     0.002 C 
HETATM   11  C23 UNL     1      -7.969  15.996  22.790  1.00  0.00    -0.043 C 
HETATM   12  C24 UNL     1      -9.142  16.226  21.827  1.00  0.00     0.015 C 
HETATM   13  C25 UNL     1      -7.407  14.623  22.393  1.00  0.00     0.015 C 
HETATM   14  C26 UNL     1      -6.921  16.999  22.443  1.00  0.00     0.009 C 
HETATM   15  C27 UNL     1      -7.097  18.333  23.081  1.00  0.00     0.002 C 
HETATM   16  C28 UNL     1      -7.811  18.329  24.390  1.00  0.00     0.010 C 
HETATM   17  C29 UNL     1      -7.680  16.992  25.087  1.00  0.00    -0.036 C 
HETATM   18  C30 UNL     1      -6.205  16.698  25.212  1.00  0.00     0.016 C 
HETATM   19  C31 UNL     1      -8.263  17.021  26.454  1.00  0.00    -0.002 C 
HETATM   20  C32 UNL     1      -9.584  17.678  26.590  1.00  0.00     0.006 C 
HETATM   21  C33 UNL     1     -10.087  17.537  28.005  1.00  0.00     0.006 C 
HETATM   22  C34 UNL     1      -9.105  16.988  28.958  1.00  0.00     0.001 C 
HETATM   23  C35 UNL     1      -9.562  16.189  30.137  1.00  0.00    -0.016 C 
HETATM   24  C36 UNL     1      -8.556  16.340  31.290  1.00  0.00     0.018 C 
HETATM   25  C37 UNL     1     -10.925  16.398  30.638  1.00  0.00     0.133 C 
ENDROOT
BRANCH   1  26
HETATM   26  C13 UNL     1     -11.986  14.930  32.301  1.00  0.00     0.100 C 
HETATM   27  S1  UNL     1     -13.615  15.165  32.568  1.00  0.00    -0.063 SA
BRANCH  26  28
HETATM   28  C7  UNL     1     -11.135  14.520  33.479  1.00  0.00     0.176 C 
BRANCH  28  29
HETATM   29  N2  UNL     1     -12.082  13.760  34.324  1.00  0.00    -0.330 N 
HETATM   30  C6  UNL     1     -11.645  12.657  35.129  1.00  0.00     0.320 C 
HETATM   31  N1  UNL     1     -12.530  11.931  35.938  1.00  0.00    -0.319 N 
HETATM   32  O1  UNL     1     -10.429  12.368  35.081  1.00  0.00    -0.247 OA
ATOM     33  H1  UNL     1     -13.501  12.230  35.842  1.00  0.00     0.169 HD
ATOM     34  H2  UNL     1     -13.067  14.025  34.334  1.00  0.00     0.165 HD
BRANCH  31  35
HETATM   35  C5  UNL     1     -12.363  10.886  36.848  1.00  0.00     0.089 C 
HETATM   36  C4  UNL     1     -12.062   9.505  36.551  1.00  0.00    -0.006 C 
BRANCH  36  37
HETATM   37  C2  UNL     1     -12.761   8.570  35.692  1.00  0.00     0.001 C 
HETATM   38  C1  UNL     1     -12.572   8.727  34.215  1.00  0.00     0.013 C 
HETATM   39  C3  UNL     1     -14.246   8.417  36.031  1.00  0.00     0.013 C 
ENDBRANCH  36  37
ENDBRANCH  31  35
ENDBRANCH  28  29
BRANCH  28  40
HETATM   40  C8  UNL     1     -10.797  15.726  34.336  1.00  0.00     0.304 C 
BRANCH  40  41
HETATM   41  N3  UNL     1      -9.462  15.752  34.851  1.00  0.00     0.090 N 
HETATM   42  C9  UNL     1      -8.779  16.852  34.123  1.00  0.00     0.310 C 
BRANCH  41  43
HETATM   43  C10 UNL     1      -9.583  16.213  36.263  1.00  0.00     0.214 C 
HETATM   44  C11 UNL     1      -8.236  16.642  36.803  1.00  0.00     0.042 C 
HETATM   45  C12 UNL     1     -10.167  15.135  37.130  1.00  0.00     0.042 C 
ENDBRANCH  41  43
ENDBRANCH  40  41
ENDBRANCH  28  40
ENDBRANCH  26  28
ENDBRANCH   1  26
TORSDOF 8
ENDMDL
MODEL 4
REMARK VINA RESULT: -9.487170051      5.432     12.427
REMARK  8 active torsions:
REMARK  status: ('A' for Active; 'I' for Inactive)
REMARK    1  A    between atoms: C2_2  and  C4_4 
REMARK    2  A    between atoms: C5_5  and  N1_6 
REMARK       I    between atoms: N1_6  and  C6_8 
REMARK       I    between atoms: C6_8  and  N2_10 
REMARK    3  A    between atoms: N2_10  and  C7_12 
REMARK    4  A    between atoms: C7_12  and  C8_13 
REMARK    5  A    between atoms: C7_12  and  C13_19 
REMARK    6  A    between atoms: C8_13  and  N3_14 
REMARK    7  A    between atoms: N3_14  and  C10_16 
REMARK    8  A    between atoms: C13_19  and  N4_21 
ROOT
HETATM    1  N4  UNL     1      -7.344  17.226  24.630  1.00  0.00    -0.373 N 
HETATM    2  C14 UNL     1      -8.715  17.446  24.914  1.00  0.00     0.124 C 
HETATM    3  C15 UNL     1      -9.065  17.365  26.407  1.00  0.00     0.030 C 
HETATM    4  C16 UNL     1      -7.951  17.760  27.277  1.00  0.00    -0.029 C 
HETATM    5  C17 UNL     1      -7.791  19.290  27.117  1.00  0.00     0.016 C 
HETATM    6  C18 UNL     1      -7.732  17.334  28.643  1.00  0.00     0.004 C 
HETATM    7  C19 UNL     1      -8.712  16.864  29.594  1.00  0.00    -0.004 C 
HETATM    8  C20 UNL     1     -10.115  16.611  29.192  1.00  0.00     0.006 C 
HETATM    9  C21 UNL     1     -10.934  16.482  30.495  1.00  0.00     0.006 C 
HETATM   10  C22 UNL     1     -10.439  15.243  31.184  1.00  0.00     0.002 C 
HETATM   11  C23 UNL     1     -11.278  14.836  32.354  1.00  0.00    -0.043 C 
HETATM   12  C24 UNL     1     -12.157  13.617  32.041  1.00  0.00     0.015 C 
HETATM   13  C25 UNL     1     -12.274  15.947  32.717  1.00  0.00     0.015 C 
HETATM   14  C26 UNL     1     -10.525  14.517  33.602  1.00  0.00     0.009 C 
HETATM   15  C27 UNL     1      -9.268  13.748  33.394  1.00  0.00     0.002 C 
HETATM   16  C28 UNL     1      -8.600  13.952  32.077  1.00  0.00     0.010 C 
HETATM   17  C29 UNL     1      -8.959  15.294  31.478  1.00  0.00    -0.036 C 
HETATM   18  C30 UNL     1      -8.601  16.347  32.497  1.00  0.00     0.016 C 
HETATM   19  C31 UNL     1      -8.189  15.571  30.237  1.00  0.00    -0.002 C 
HETATM   20  C32 UNL     1      -8.082  14.455  29.269  1.00  0.00     0.006 C 
HETATM   21  C33 UNL     1      -7.365  14.918  28.025  1.00  0.00     0.006 C 
HETATM   22  C34 UNL     1      -6.763  16.260  28.123  1.00  0.00     0.001 C 
HETATM   23  C35 UNL     1      -6.625  17.117  26.904  1.00  0.00    -0.016 C 
HETATM   24  C36 UNL     1      -5.418  18.057  27.062  1.00  0.00     0.018 C 
HETATM   25  C37 UNL     1      -6.576  16.463  25.592  1.00  0.00     0.133 C 
ENDROOT
BRANCH   1  26
HETATM   26  C13 UNL     1      -6.737  17.695  23.469  1.00  0.00     0.100 C 
HETATM   27  S1  UNL     1      -6.563  19.345  23.309  1.00  0.00    -0.063 SA
BRANCH  26  28
HETATM   28  C7  UNL     1      -6.227  16.824  22.346  1.00  0.00     0.176 C 
BRANCH  28  29
HETATM   29  N2  UNL     1      -6.265  17.732  21.178  1.00  0.00    -0.330 N 
HETATM   30  C6  UNL     1      -5.393  17.544  20.056  1.00  0.00     0.320 C 
HETATM   31  N1  UNL     1      -5.422  18.393  18.942  1.00  0.00    -0.319 N 
HETATM   32  O1  UNL     1      -4.599  16.578  20.114  1.00  0.00    -0.247 OA
ATOM     33  H1  UNL     1      -6.072  19.173  19.046  1.00  0.00     0.169 HD
ATOM     34  H2  UNL     1      -6.926  18.509  21.172  1.00  0.00     0.165 HD
BRANCH  31  35
HETATM   35  C5  UNL     1      -4.749  18.397  17.719  1.00  0.00     0.089 C 
HETATM   36  C4  UNL     1      -5.138  17.721  16.503  1.00  0.00    -0.006 C 
BRANCH  36  37
HETATM   37  C2  UNL     1      -5.427  16.320  16.275  1.00  0.00     0.001 C 
HETATM   38  C1  UNL     1      -4.276  15.437  15.902  1.00  0.00     0.013 C 
HETATM   39  C3  UNL     1      -6.612  16.083  15.334  1.00  0.00     0.013 C 
ENDBRANCH  36  37
ENDBRANCH  31  35
ENDBRANCH  28  29
BRANCH  28  40
HETATM   40  C8  UNL     1      -7.250  15.760  21.991  1.00  0.00     0.304 C 
BRANCH  40  41
HETATM   41  N3  UNL     1      -8.579  16.244  21.770  1.00  0.00     0.090 N 
HETATM   42  C9  UNL     1      -8.764  16.232  20.296  1.00  0.00     0.310 C 
BRANCH  41  43
HETATM   43  C10 UNL     1      -9.487  15.188  22.301  1.00  0.00     0.214 C 
HETATM   44  C11 UNL     1     -10.704  15.807  22.952  1.00  0.00     0.042 C 
HETATM   45  C12 UNL     1      -8.768  14.307  23.282  1.00  0.00     0.042 C 
ENDBRANCH  41  43
ENDBRANCH  40  41
ENDBRANCH  28  40
ENDBRANCH  26  28
ENDBRANCH   1  26
TORSDOF 8
ENDMDL
MODEL 5
REMARK VINA RESULT: -9.278407077      1.927      3.123
REMARK  8 active torsions:
REMARK  status: ('A' for Active; 'I' for Inactive)
REMARK    1  A    between atoms: C2_2  and  C4_4 
REMARK    2  A    between atoms: C5_5  and  N1_6 
REMARK       I    between atoms: N1_6  and  C6_8 
REMARK       I    between atoms: C6_8  and  N2_10 
REMARK    3  A    between atoms: N2_10  and  C7_12 
REMARK    4  A    between atoms: C7_12  and  C8_13 
REMARK    5  A    between atoms: C7_12  and  C13_19 
REMARK    6  A    between atoms: C8_13  and  N3_14 
REMARK    7  A    between atoms: N3_14  and  C10_16 
REMARK    8  A    between atoms: C13_19  and  N4_21 
ROOT
HETATM    1  N4  UNL     1     -10.283  14.718  30.722  1.00  0.00    -0.373 N 
HETATM    2  C14 UNL     1      -8.924  14.715  31.124  1.00  0.00     0.124 C 
HETATM    3  C15 UNL     1      -8.010  15.580  30.245  1.00  0.00     0.030 C 
HETATM    4  C16 UNL     1      -8.708  16.724  29.647  1.00  0.00    -0.029 C 
HETATM    5  C17 UNL     1      -8.994  17.714  30.800  1.00  0.00     0.016 C 
HETATM    6  C18 UNL     1      -8.348  17.409  28.424  1.00  0.00     0.004 C 
HETATM    7  C19 UNL     1      -7.050  17.479  27.794  1.00  0.00    -0.004 C 
HETATM    8  C20 UNL     1      -5.909  16.676  28.291  1.00  0.00     0.006 C 
HETATM    9  C21 UNL     1      -4.637  17.261  27.639  1.00  0.00     0.006 C 
HETATM   10  C22 UNL     1      -4.758  16.996  26.166  1.00  0.00     0.002 C 
HETATM   11  C23 UNL     1      -3.507  17.294  25.402  1.00  0.00    -0.043 C 
HETATM   12  C24 UNL     1      -2.763  16.016  24.988  1.00  0.00     0.015 C 
HETATM   13  C25 UNL     1      -2.504  18.055  26.283  1.00  0.00     0.015 C 
HETATM   14  C26 UNL     1      -3.689  18.109  24.166  1.00  0.00     0.009 C 
HETATM   15  C27 UNL     1      -4.886  17.754  23.356  1.00  0.00     0.002 C 
HETATM   16  C28 UNL     1      -6.028  17.174  24.117  1.00  0.00     0.010 C 
HETATM   17  C29 UNL     1      -6.002  17.606  25.567  1.00  0.00    -0.036 C 
HETATM   18  C30 UNL     1      -5.981  19.114  25.582  1.00  0.00     0.016 C 
HETATM   19  C31 UNL     1      -7.212  17.153  26.302  1.00  0.00    -0.002 C 
HETATM   20  C32 UNL     1      -7.637  15.753  26.067  1.00  0.00     0.006 C 
HETATM   21  C33 UNL     1      -8.809  15.414  26.954  1.00  0.00     0.006 C 
HETATM   22  C34 UNL     1      -9.390  16.560  27.676  1.00  0.00     0.001 C 
HETATM   23  C35 UNL     1     -10.039  16.364  29.009  1.00  0.00    -0.016 C 
HETATM   24  C36 UNL     1     -11.131  17.426  29.218  1.00  0.00     0.018 C 
HETATM   25  C37 UNL     1     -10.570  15.036  29.339  1.00  0.00     0.133 C 
ENDROOT
BRANCH   1  26
HETATM   26  C13 UNL     1     -11.321  14.410  31.595  1.00  0.00     0.100 C 
HETATM   27  S1  UNL     1     -12.858  14.322  30.956  1.00  0.00    -0.063 SA
BRANCH  26  28
HETATM   28  C7  UNL     1     -11.162  14.153  33.075  1.00  0.00     0.176 C 
BRANCH  28  29
HETATM   29  N2  UNL     1     -12.542  13.847  33.509  1.00  0.00    -0.330 N 
HETATM   30  C6  UNL     1     -12.814  12.809  34.460  1.00  0.00     0.320 C 
HETATM   31  N1  UNL     1     -14.117  12.513  34.884  1.00  0.00    -0.319 N 
HETATM   32  O1  UNL     1     -11.830  12.175  34.901  1.00  0.00    -0.247 OA
ATOM     33  H1  UNL     1     -14.832  13.062  34.406  1.00  0.00     0.169 HD
ATOM     34  H2  UNL     1     -13.318  14.386  33.123  1.00  0.00     0.165 HD
BRANCH  31  35
HETATM   35  C5  UNL     1     -14.642  11.624  35.824  1.00  0.00     0.089 C 
HETATM   36  C4  UNL     1     -14.830  11.854  37.237  1.00  0.00    -0.006 C 
BRANCH  36  37
HETATM   37  C2  UNL     1     -13.872  12.262  38.244  1.00  0.00     0.001 C 
HETATM   38  C1  UNL     1     -13.686  13.734  38.452  1.00  0.00     0.013 C 
HETATM   39  C3  UNL     1     -12.516  11.561  38.122  1.00  0.00     0.013 C 
ENDBRANCH  36  37
ENDBRANCH  31  35
ENDBRANCH  28  29
BRANCH  28  40
HETATM   40  C8  UNL     1     -10.845  15.443  33.807  1.00  0.00     0.304 C 
BRANCH  40  41
HETATM   41  N3  UNL     1      -9.631  15.431  34.565  1.00  0.00     0.090 N 
HETATM   42  C9  UNL     1      -8.792  16.512  33.986  1.00  0.00     0.310 C 
BRANCH  41  43
HETATM   43  C10 UNL     1     -10.002  15.892  35.932  1.00  0.00     0.214 C 
HETATM   44  C11 UNL     1      -8.796  16.450  36.655  1.00  0.00     0.042 C 
HETATM   45  C12 UNL     1     -10.610  14.774  36.728  1.00  0.00     0.042 C 
ENDBRANCH  41  43
ENDBRANCH  40  41
ENDBRANCH  28  40
ENDBRANCH  26  28
ENDBRANCH   1  26
TORSDOF 8
ENDMDL
