MODEL 1
REMARK VINA RESULT: -9.030752598      0.000      0.000
REMARK  8 active torsions:
REMARK  status: ('A' for Active; 'I' for Inactive)
REMARK    1  A    between atoms: C2_2  and  C4_4 
REMARK    2  A    between atoms: C7_7  and  C8_8 
REMARK       I    between atoms: C8_8  and  N1_10 
REMARK    3  A    between atoms: N1_10  and  C9_12 
REMARK    4  A    between atoms: C9_12  and  C10_13 
REMARK    5  A    between atoms: C26_29  and  C27_30 
REMARK       I    between atoms: C27_30  and  N2_32 
REMARK    6  A    between atoms: N2_32  and  C28_34 
REMARK    7  A    between atoms: C28_34  and  C29_35 
REMARK    8  A    between atoms: C28_34  and  C32_40 
REMARK       I    between atoms: C29_35  and  N3_37 
ROOT
HETATM    1  C4  UNL     1      -8.822  16.078  29.571  1.00  0.00     0.019 C 
HETATM    2  C5  UNL     1      -8.927  17.596  29.321  1.00  0.00     0.010 C 
HETATM    3  C6  UNL     1     -10.055  17.731  28.329  1.00  0.00     0.020 C 
HETATM    4  C7  UNL     1     -10.801  16.414  28.342  1.00  0.00     0.045 C 
HETATM    5  C16 UNL     1     -12.278  16.602  28.661  1.00  0.00     0.020 C 
HETATM    6  C17 UNL     1     -12.865  15.220  28.711  1.00  0.00     0.012 C 
HETATM    7  C18 UNL     1     -12.233  14.248  29.640  1.00  0.00    -0.029 C 
HETATM    8  C19 UNL     1     -12.414  12.862  28.977  1.00  0.00     0.016 C 
HETATM    9  C20 UNL     1     -10.756  14.414  29.869  1.00  0.00     0.001 C 
HETATM   10  C21 UNL     1     -10.376  14.116  31.316  1.00  0.00     0.006 C 
HETATM   11  C22 UNL     1     -11.172  14.836  32.336  1.00  0.00     0.006 C 
HETATM   12  C23 UNL     1     -12.593  15.081  31.984  1.00  0.00    -0.001 C 
HETATM   13  C24 UNL     1     -13.463  14.939  33.192  1.00  0.00     0.010 C 
HETATM   14  C25 UNL     1     -13.628  13.560  33.712  1.00  0.00     0.044 C 
HETATM   15  C26 UNL     1     -13.150  12.498  32.785  1.00  0.00     0.007 C 
HETATM   16  C35 UNL     1     -12.871  12.729  31.518  1.00  0.00    -0.004 C 
HETATM   17  C36 UNL     1     -13.023  14.095  30.939  1.00  0.00    -0.014 C 
HETATM   18  C37 UNL     1     -14.514  14.243  30.674  1.00  0.00     0.021 C 
HETATM   19  C38 UNL     1     -10.239  15.750  29.531  1.00  0.00     0.016 C 
ENDROOT
BRANCH  15  20
HETATM   20  C27 UNL     1     -12.994  11.159  33.343  1.00  0.00     0.248 C 
HETATM   21  O2  UNL     1     -12.584  11.035  34.546  1.00  0.00    -0.268 OA
HETATM   22  N2  UNL     1     -13.268   9.984  32.625  1.00  0.00    -0.344 N 
ATOM     23  H2  UNL     1     -13.594  10.050  31.661  1.00  0.00     0.163 HD
BRANCH  22  24
HETATM   24  C28 UNL     1     -13.092   8.660  33.241  1.00  0.00     0.180 C 
BRANCH  24  25
HETATM   25  C29 UNL     1     -14.205   8.399  34.162  1.00  0.00     0.242 C 
HETATM   26  O3  UNL     1     -15.376   8.542  33.642  1.00  0.00    -0.271 OA
HETATM   27  N3  UNL     1     -14.155   8.026  35.507  1.00  0.00    -0.359 N 
HETATM   28  C30 UNL     1     -12.909   7.872  36.204  1.00  0.00     0.152 C 
HETATM   29  C31 UNL     1     -15.375   7.780  36.243  1.00  0.00     0.152 C 
ENDBRANCH  24  25
BRANCH  24  30
HETATM   30  C32 UNL     1     -13.061   7.616  32.141  1.00  0.00     0.009 C 
HETATM   31  C33 UNL     1     -13.099   6.216  32.668  1.00  0.00     0.012 C 
HETATM   32  C34 UNL     1     -11.863   7.797  31.257  1.00  0.00     0.012 C 
ENDBRANCH  24  30
ENDBRANCH  22  24
ENDBRANCH  15  20
BRANCH   4  33
HETATM   33  C8  UNL     1     -10.657  15.815  27.025  1.00  0.00     0.226 C 
HETATM   34  O1  UNL     1     -10.611  14.607  26.711  1.00  0.00    -0.273 OA
HETATM   35  N1  UNL     1     -10.552  16.712  25.919  1.00  0.00    -0.360 N 
ATOM     36  H1  UNL     1     -10.582  17.714  26.104  1.00  0.00     0.162 HD
BRANCH  35  37
HETATM   37  C9  UNL     1     -10.409  16.276  24.562  1.00  0.00     0.127 C 
BRANCH  37  38
HETATM   38  C10 UNL     1      -9.042  16.655  24.057  1.00  0.00     0.003 C 
HETATM   39  C11 UNL     1      -8.906  16.423  22.566  1.00  0.00     0.006 C 
HETATM   40  C12 UNL     1      -7.418  16.460  22.257  1.00  0.00     0.000 C 
HETATM   41  C13 UNL     1      -6.665  17.308  23.265  1.00  0.00     0.000 C 
HETATM   42  C14 UNL     1      -6.673  16.661  24.634  1.00  0.00     0.000 C 
HETATM   43  C15 UNL     1      -7.950  15.852  24.730  1.00  0.00     0.006 C 
ENDBRANCH  37  38
ENDBRANCH  35  37
ENDBRANCH   4  33
BRANCH   1  44
HETATM   44  C2  UNL     1      -7.832  15.398  28.773  1.00  0.00    -0.089 C 
HETATM   45  C1  UNL     1      -7.927  14.112  28.505  1.00  0.00     0.014 C 
HETATM   46  C3  UNL     1      -6.661  16.114  28.170  1.00  0.00     0.043 C 
ENDBRANCH   1  44
TORSDOF 8
ENDMDL
MODEL 2
REMARK VINA RESULT: -8.700374535      4.767     12.363
REMARK  8 active torsions:
REMARK  status: ('A' for Active; 'I' for Inactive)
REMARK    1  A    between atoms: C2_2  and  C4_4 
REMARK    2  A    between atoms: C7_7  and  C8_8 
REMARK       I    between atoms: C8_8  and  N1_10 
REMARK    3  A    between atoms: N1_10  and  C9_12 
REMARK    4  A    between atoms: C9_12  and  C10_13 
REMARK    5  A    between atoms: C26_29  and  C27_30 
REMARK       I    between atoms: C27_30  and  N2_32 
REMARK    6  A    between atoms: N2_32  and  C28_34 
REMARK    7  A    between atoms: C28_34  and  C29_35 
REMARK    8  A    between atoms: C28_34  and  C32_40 
REMARK       I    between atoms: C29_35  and  N3_37 
ROOT
HETATM    1  C4  UNL     1      -9.535  15.638  26.543  1.00  0.00     0.019 C 
HETATM    2  C5  UNL     1     -10.779  16.474  26.907  1.00  0.00     0.010 C 
HETATM    3  C6  UNL     1     -10.261  17.503  27.881  1.00  0.00     0.020 C 
HETATM    4  C7  UNL     1      -8.753  17.501  27.751  1.00  0.00     0.045 C 
HETATM    5  C16 UNL     1      -8.211  18.884  27.414  1.00  0.00     0.020 C 
HETATM    6  C17 UNL     1      -6.728  18.712  27.245  1.00  0.00     0.012 C 
HETATM    7  C18 UNL     1      -6.270  17.700  26.258  1.00  0.00    -0.029 C 
HETATM    8  C19 UNL     1      -4.929  17.160  26.808  1.00  0.00     0.016 C 
HETATM    9  C20 UNL     1      -7.162  16.503  26.076  1.00  0.00     0.001 C 
HETATM   10  C21 UNL     1      -7.204  16.052  24.618  1.00  0.00     0.006 C 
HETATM   11  C22 UNL     1      -7.515  17.120  23.640  1.00  0.00     0.006 C 
HETATM   12  C23 UNL     1      -6.997  18.470  23.978  1.00  0.00    -0.001 C 
HETATM   13  C24 UNL     1      -6.538  19.178  22.744  1.00  0.00     0.010 C 
HETATM   14  C25 UNL     1      -5.303  18.650  22.115  1.00  0.00     0.044 C 
HETATM   15  C26 UNL     1      -4.547  17.693  22.968  1.00  0.00     0.007 C 
HETATM   16  C35 UNL     1      -4.787  17.540  24.255  1.00  0.00    -0.004 C 
HETATM   17  C36 UNL     1      -5.849  18.336  24.934  1.00  0.00    -0.014 C 
HETATM   18  C37 UNL     1      -5.220  19.700  25.177  1.00  0.00     0.021 C 
HETATM   19  C38 UNL     1      -8.548  16.707  26.527  1.00  0.00     0.016 C 
ENDROOT
BRANCH  15  20
HETATM   20  C27 UNL     1      -3.508  16.906  22.312  1.00  0.00     0.248 C 
HETATM   21  O2  UNL     1      -3.722  16.460  21.134  1.00  0.00    -0.268 OA
HETATM   22  N2  UNL     1      -2.273  16.603  22.908  1.00  0.00    -0.344 N 
ATOM     23  H2  UNL     1      -2.074  16.943  23.848  1.00  0.00     0.163 HD
BRANCH  22  24
HETATM   24  C28 UNL     1      -1.263  15.805  22.197  1.00  0.00     0.180 C 
BRANCH  24  25
HETATM   25  C29 UNL     1      -0.454  16.688  21.347  1.00  0.00     0.242 C 
HETATM   26  O3  UNL     1       0.095  17.675  21.969  1.00  0.00    -0.271 OA
HETATM   27  N3  UNL     1      -0.213  16.596  19.975  1.00  0.00    -0.359 N 
HETATM   28  C30 UNL     1      -0.800  15.562  19.170  1.00  0.00     0.152 C 
HETATM   29  C31 UNL     1       0.649  17.554  19.319  1.00  0.00     0.152 C 
ENDBRANCH  24  25
BRANCH  24  30
HETATM   30  C32 UNL     1      -0.387  15.111  23.222  1.00  0.00     0.009 C 
HETATM   31  C33 UNL     1       0.123  13.787  22.749  1.00  0.00     0.012 C 
HETATM   32  C34 UNL     1      -1.109  14.944  24.526  1.00  0.00     0.012 C 
ENDBRANCH  24  30
ENDBRANCH  22  24
ENDBRANCH  15  20
BRANCH   4  33
HETATM   33  C8  UNL     1      -8.203  17.055  29.020  1.00  0.00     0.226 C 
HETATM   34  O1  UNL     1      -7.170  16.388  29.239  1.00  0.00    -0.273 OA
HETATM   35  N1  UNL     1      -8.926  17.418  30.197  1.00  0.00    -0.360 N 
ATOM     36  H1  UNL     1      -9.781  17.963  30.091  1.00  0.00     0.162 HD
BRANCH  35  37
HETATM   37  C9  UNL     1      -8.510  17.056  31.519  1.00  0.00     0.127 C 
BRANCH  37  38
HETATM   38  C10 UNL     1      -9.541  16.149  32.136  1.00  0.00     0.003 C 
HETATM   39  C11 UNL     1      -9.198  15.796  33.568  1.00  0.00     0.006 C 
HETATM   40  C12 UNL     1     -10.065  14.603  33.939  1.00  0.00     0.000 C 
HETATM   41  C13 UNL     1     -11.344  14.574  33.123  1.00  0.00     0.000 C 
HETATM   42  C14 UNL     1     -11.053  14.296  31.663  1.00  0.00     0.000 C 
HETATM   43  C15 UNL     1      -9.672  14.846  31.379  1.00  0.00     0.006 C 
ENDBRANCH  37  38
ENDBRANCH  35  37
ENDBRANCH   4  33
BRANCH   1  44
HETATM   44  C2  UNL     1      -9.373  14.426  27.308  1.00  0.00    -0.089 C 
HETATM   45  C1  UNL     1      -8.194  13.856  27.454  1.00  0.00     0.014 C 
HETATM   46  C3  UNL     1     -10.519  13.766  28.011  1.00  0.00     0.043 C 
ENDBRANCH   1  44
TORSDOF 8
ENDMDL
MODEL 3
REMARK VINA RESULT: -8.619639294      2.800      5.007
REMARK  8 active torsions:
REMARK  status: ('A' for Active; 'I' for Inactive)
REMARK    1  A    between atoms: C2_2  and  C4_4 
REMARK    2  A    between atoms: C7_7  and  C8_8 
REMARK       I    between atoms: C8_8  and  N1_10 
REMARK    3  A    between atoms: N1_10  and  C9_12 
REMARK    4  A    between atoms: C9_12  and  C10_13 
REMARK    5  A    between atoms: C26_29  and  C27_30 
REMARK       I    between atoms: C27_30  and  N2_32 
REMARK    6  A    between atoms: N2_32  and  C28_34 
REMARK    7  A    between atoms: C28_34  and  C29_35 
REMARK    8  A    between atoms: C28_34  and  C32_40 
REMARK       I    between atoms: C29_35  and  N3_37 
ROOT
HETATM    1  C4  UNL     1      -5.648  18.177  27.210  1.00  0.00     0.019 C 
HETATM    2  C5  UNL     1      -5.575  19.552  26.514  1.00  0.00     0.010 C 
HETATM    3  C6  UNL     1      -6.247  19.327  25.181  1.00  0.00     0.020 C 
HETATM    4  C7  UNL     1      -7.009  18.024  25.297  1.00  0.00     0.045 C 
HETATM    5  C16 UNL     1      -8.488  18.204  24.979  1.00  0.00     0.020 C 
HETATM    6  C17 UNL     1      -9.120  16.859  25.204  1.00  0.00     0.012 C 
HETATM    7  C18 UNL     1      -8.928  16.234  26.539  1.00  0.00    -0.029 C 
HETATM    8  C19 UNL     1      -8.920  14.708  26.285  1.00  0.00     0.016 C 
HETATM    9  C20 UNL     1      -7.635  16.551  27.238  1.00  0.00     0.001 C 
HETATM   10  C21 UNL     1      -7.835  16.703  28.744  1.00  0.00     0.006 C 
HETATM   11  C22 UNL     1      -8.915  17.634  29.143  1.00  0.00     0.006 C 
HETATM   12  C23 UNL     1     -10.090  17.679  28.236  1.00  0.00    -0.001 C 
HETATM   13  C24 UNL     1     -11.352  17.834  29.024  1.00  0.00     0.010 C 
HETATM   14  C25 UNL     1     -11.767  16.654  29.820  1.00  0.00     0.044 C 
HETATM   15  C26 UNL     1     -11.034  15.403  29.483  1.00  0.00     0.007 C 
HETATM   16  C35 UNL     1     -10.294  15.280  28.400  1.00  0.00    -0.004 C 
HETATM   17  C36 UNL     1     -10.151  16.410  27.439  1.00  0.00    -0.014 C 
HETATM   18  C37 UNL     1     -11.427  16.383  26.611  1.00  0.00     0.021 C 
HETATM   19  C38 UNL     1      -6.963  17.765  26.746  1.00  0.00     0.016 C 
ENDROOT
BRANCH  15  20
HETATM   20  C27 UNL     1     -11.164  14.292  30.419  1.00  0.00     0.248 C 
HETATM   21  O2  UNL     1     -10.154  13.537  30.625  1.00  0.00    -0.268 OA
HETATM   22  N2  UNL     1     -12.348  13.998  31.114  1.00  0.00    -0.344 N 
ATOM     23  H2  UNL     1     -13.172  14.580  30.969  1.00  0.00     0.163 HD
BRANCH  22  24
HETATM   24  C28 UNL     1     -12.419  12.863  32.047  1.00  0.00     0.180 C 
BRANCH  24  25
HETATM   25  C29 UNL     1     -12.650  13.365  33.407  1.00  0.00     0.242 C 
HETATM   26  O3  UNL     1     -13.882  13.341  33.786  1.00  0.00    -0.271 OA
HETATM   27  N3  UNL     1     -11.720  13.858  34.324  1.00  0.00    -0.359 N 
HETATM   28  C30 UNL     1     -10.325  13.967  34.003  1.00  0.00     0.152 C 
HETATM   29  C31 UNL     1     -12.144  14.277  35.641  1.00  0.00     0.152 C 
ENDBRANCH  24  25
BRANCH  24  30
HETATM   30  C32 UNL     1     -13.556  11.956  31.619  1.00  0.00     0.009 C 
HETATM   31  C33 UNL     1     -13.082  10.636  31.096  1.00  0.00     0.012 C 
HETATM   32  C34 UNL     1     -14.427  12.625  30.597  1.00  0.00     0.012 C 
ENDBRANCH  24  30
ENDBRANCH  22  24
ENDBRANCH  15  20
BRANCH   4  33
HETATM   33  C8  UNL     1      -6.418  17.084  24.359  1.00  0.00     0.226 C 
HETATM   34  O1  UNL     1      -6.017  15.919  24.561  1.00  0.00    -0.273 OA
HETATM   35  N1  UNL     1      -6.263  17.532  23.011  1.00  0.00    -0.360 N 
ATOM     36  H1  UNL     1      -6.569  18.475  22.777  1.00  0.00     0.162 HD
BRANCH  35  37
HETATM   37  C9  UNL     1      -5.700  16.722  21.973  1.00  0.00     0.127 C 
BRANCH  37  38
HETATM   38  C10 UNL     1      -6.755  16.432  20.938  1.00  0.00     0.003 C 
HETATM   39  C11 UNL     1      -6.287  16.781  19.541  1.00  0.00     0.006 C 
HETATM   40  C12 UNL     1      -7.529  16.822  18.666  1.00  0.00     0.000 C 
HETATM   41  C13 UNL     1      -8.624  15.928  19.219  1.00  0.00     0.000 C 
HETATM   42  C14 UNL     1      -9.158  16.469  20.528  1.00  0.00     0.000 C 
HETATM   43  C15 UNL     1      -8.022  17.220  21.189  1.00  0.00     0.006 C 
ENDBRANCH  37  38
ENDBRANCH  35  37
ENDBRANCH   4  33
BRANCH   1  44
HETATM   44  C2  UNL     1      -4.468  17.361  27.067  1.00  0.00    -0.089 C 
HETATM   45  C1  UNL     1      -4.215  16.365  27.891  1.00  0.00     0.014 C 
HETATM   46  C3  UNL     1      -3.483  17.566  25.956  1.00  0.00     0.043 C 
ENDBRANCH   1  44
TORSDOF 8
ENDMDL
MODEL 4
REMARK VINA RESULT: -8.453645586      1.827      2.729
REMARK  8 active torsions:
REMARK  status: ('A' for Active; 'I' for Inactive)
REMARK    1  A    between atoms: C2_2  and  C4_4 
REMARK    2  A    between atoms: C7_7  and  C8_8 
REMARK       I    between atoms: C8_8  and  N1_10 
REMARK    3  A    between atoms: N1_10  and  C9_12 
REMARK    4  A    between atoms: C9_12  and  C10_13 
REMARK    5  A    between atoms: C26_29  and  C27_30 
REMARK       I    between atoms: C27_30  and  N2_32 
REMARK    6  A    between atoms: N2_32  and  C28_34 
REMARK    7  A    between atoms: C28_34  and  C29_35 
REMARK    8  A    between atoms: C28_34  and  C32_40 
REMARK       I    between atoms: C29_35  and  N3_37 
ROOT
HETATM    1  C4  UNL     1      -8.740  17.549  28.086  1.00  0.00     0.019 C 
HETATM    2  C5  UNL     1      -9.061  18.668  27.073  1.00  0.00     0.010 C 
HETATM    3  C6  UNL     1      -9.462  17.928  25.821  1.00  0.00     0.020 C 
HETATM    4  C7  UNL     1      -9.745  16.500  26.235  1.00  0.00     0.045 C 
HETATM    5  C16 UNL     1     -11.152  16.065  25.843  1.00  0.00     0.020 C 
HETATM    6  C17 UNL     1     -11.312  14.670  26.378  1.00  0.00     0.012 C 
HETATM    7  C18 UNL     1     -11.070  14.468  27.830  1.00  0.00    -0.029 C 
HETATM    8  C19 UNL     1     -10.517  13.029  27.962  1.00  0.00     0.016 C 
HETATM    9  C20 UNL     1     -10.049  15.372  28.463  1.00  0.00     0.001 C 
HETATM   10  C21 UNL     1     -10.456  15.773  29.878  1.00  0.00     0.006 C 
HETATM   11  C22 UNL     1     -11.825  16.321  30.006  1.00  0.00     0.006 C 
HETATM   12  C23 UNL     1     -12.836  15.742  29.085  1.00  0.00    -0.001 C 
HETATM   13  C24 UNL     1     -14.155  15.608  29.776  1.00  0.00     0.010 C 
HETATM   14  C25 UNL     1     -14.232  14.566  30.828  1.00  0.00     0.044 C 
HETATM   15  C26 UNL     1     -13.086  13.617  30.831  1.00  0.00     0.007 C 
HETATM   16  C35 UNL     1     -12.231  13.528  29.832  1.00  0.00    -0.004 C 
HETATM   17  C36 UNL     1     -12.372  14.392  28.625  1.00  0.00    -0.014 C 
HETATM   18  C37 UNL     1     -13.463  13.729  27.797  1.00  0.00     0.021 C 
HETATM   19  C38 UNL     1      -9.777  16.603  27.704  1.00  0.00     0.016 C 
ENDROOT
BRANCH  15  20
HETATM   20  C27 UNL     1     -12.935  12.770  32.009  1.00  0.00     0.248 C 
HETATM   21  O2  UNL     1     -12.258  13.207  33.001  1.00  0.00    -0.268 OA
HETATM   22  N2  UNL     1     -13.494  11.487  32.118  1.00  0.00    -0.344 N 
ATOM     23  H2  UNL     1     -14.038  11.110  31.343  1.00  0.00     0.163 HD
BRANCH  22  24
HETATM   24  C28 UNL     1     -13.309  10.679  33.333  1.00  0.00     0.180 C 
BRANCH  24  25
HETATM   25  C29 UNL     1     -14.388  10.974  34.284  1.00  0.00     0.242 C 
HETATM   26  O3  UNL     1     -15.577  10.834  33.805  1.00  0.00    -0.271 OA
HETATM   27  N3  UNL     1     -14.290  11.382  35.616  1.00  0.00    -0.359 N 
HETATM   28  C30 UNL     1     -13.020  11.606  36.247  1.00  0.00     0.152 C 
HETATM   29  C31 UNL     1     -15.483  11.591  36.405  1.00  0.00     0.152 C 
ENDBRANCH  24  25
BRANCH  24  30
HETATM   30  C32 UNL     1     -13.332   9.213  32.946  1.00  0.00     0.009 C 
HETATM   31  C33 UNL     1     -12.566   8.348  33.897  1.00  0.00     0.012 C 
HETATM   32  C34 UNL     1     -12.821   9.014  31.550  1.00  0.00     0.012 C 
ENDBRANCH  24  30
ENDBRANCH  22  24
ENDBRANCH  15  20
BRANCH   4  33
HETATM   33  C8  UNL     1      -8.769  15.650  25.575  1.00  0.00     0.226 C 
HETATM   34  O1  UNL     1      -7.985  14.817  26.076  1.00  0.00    -0.273 OA
HETATM   35  N1  UNL     1      -8.674  15.762  24.154  1.00  0.00    -0.360 N 
ATOM     36  H1  UNL     1      -9.285  16.425  23.679  1.00  0.00     0.162 HD
BRANCH  35  37
HETATM   37  C9  UNL     1      -7.763  14.990  23.363  1.00  0.00     0.127 C 
BRANCH  37  38
HETATM   38  C10 UNL     1      -7.913  15.372  21.914  1.00  0.00     0.003 C 
HETATM   39  C11 UNL     1      -6.586  15.749  21.289  1.00  0.00     0.006 C 
HETATM   40  C12 UNL     1      -6.909  16.473  19.992  1.00  0.00     0.000 C 
HETATM   41  C13 UNL     1      -8.251  16.036  19.434  1.00  0.00     0.000 C 
HETATM   42  C14 UNL     1      -9.386  16.492  20.326  1.00  0.00     0.000 C 
HETATM   43  C15 UNL     1      -8.837  16.557  21.736  1.00  0.00     0.006 C 
ENDBRANCH  37  38
ENDBRANCH  35  37
ENDBRANCH   4  33
BRANCH   1  44
HETATM   44  C2  UNL     1      -7.345  17.196  28.181  1.00  0.00    -0.089 C 
HETATM   45  C1  UNL     1      -6.937  16.197  28.935  1.00  0.00     0.014 C 
HETATM   46  C3  UNL     1      -6.284  17.914  27.402  1.00  0.00     0.043 C 
ENDBRANCH   1  44
TORSDOF 8
ENDMDL
MODEL 5
REMARK VINA RESULT: -8.368064457      3.771     11.276
REMARK  8 active torsions:
REMARK  status: ('A' for Active; 'I' for Inactive)
REMARK    1  A    between atoms: C2_2  and  C4_4 
REMARK    2  A    between atoms: C7_7  and  C8_8 
REMARK       I    between atoms: C8_8  and  N1_10 
REMARK    3  A    between atoms: N1_10  and  C9_12 
REMARK    4  A    between atoms: C9_12  and  C10_13 
REMARK    5  A    between atoms: C26_29  and  C27_30 
REMARK       I    between atoms: C27_30  and  N2_32 
REMARK    6  A    between atoms: N2_32  and  C28_34 
REMARK    7  A    between atoms: C28_34  and  C29_35 
REMARK    8  A    between atoms: C28_34  and  C32_40 
REMARK       I    between atoms: C29_35  and  N3_37 
ROOT
HETATM    1  C4  UNL     1     -10.767  17.316  28.577  1.00  0.00     0.019 C 
HETATM    2  C5  UNL     1     -10.710  17.733  30.061  1.00  0.00     0.010 C 
HETATM    3  C6  UNL     1      -9.725  16.770  30.677  1.00  0.00     0.020 C 
HETATM    4  C7  UNL     1      -8.973  16.129  29.531  1.00  0.00     0.045 C 
HETATM    5  C16 UNL     1      -7.468  16.323  29.662  1.00  0.00     0.020 C 
HETATM    6  C17 UNL     1      -6.868  15.705  28.431  1.00  0.00     0.012 C 
HETATM    7  C18 UNL     1      -7.361  16.194  27.117  1.00  0.00    -0.029 C 
HETATM    8  C19 UNL     1      -7.258  14.984  26.159  1.00  0.00     0.016 C 
HETATM    9  C20 UNL     1      -8.796  16.643  27.074  1.00  0.00     0.001 C 
HETATM   10  C21 UNL     1      -8.976  17.856  26.165  1.00  0.00     0.006 C 
HETATM   11  C22 UNL     1      -8.058  18.985  26.436  1.00  0.00     0.006 C 
HETATM   12  C23 UNL     1      -6.698  18.609  26.899  1.00  0.00    -0.001 C 
HETATM   13  C24 UNL     1      -5.674  19.528  26.314  1.00  0.00     0.010 C 
HETATM   14  C25 UNL     1      -5.429  19.382  24.859  1.00  0.00     0.044 C 
HETATM   15  C26 UNL     1      -6.016  18.152  24.262  1.00  0.00     0.007 C 
HETATM   16  C35 UNL     1      -6.464  17.149  24.991  1.00  0.00    -0.004 C 
HETATM   17  C36 UNL     1      -6.403  17.199  26.479  1.00  0.00    -0.014 C 
HETATM   18  C37 UNL     1      -4.962  16.851  26.823  1.00  0.00     0.021 C 
HETATM   19  C38 UNL     1      -9.365  16.974  28.390  1.00  0.00     0.016 C 
ENDROOT
BRANCH  15  20
HETATM   20  C27 UNL     1      -6.085  18.095  22.806  1.00  0.00     0.248 C 
HETATM   21  O2  UNL     1      -5.557  19.038  22.125  1.00  0.00    -0.268 OA
HETATM   22  N2  UNL     1      -6.707  17.053  22.100  1.00  0.00    -0.344 N 
ATOM     23  H2  UNL     1      -7.139  16.286  22.615  1.00  0.00     0.163 HD
BRANCH  22  24
HETATM   24  C28 UNL     1      -6.744  17.049  20.629  1.00  0.00     0.180 C 
BRANCH  24  25
HETATM   25  C29 UNL     1      -5.550  16.368  20.114  1.00  0.00     0.242 C 
HETATM   26  O3  UNL     1      -5.281  15.247  20.690  1.00  0.00    -0.271 OA
HETATM   27  N3  UNL     1      -4.684  16.777  19.098  1.00  0.00    -0.359 N 
HETATM   28  C30 UNL     1      -4.860  18.025  18.409  1.00  0.00     0.152 C 
HETATM   29  C31 UNL     1      -3.570  15.942  18.707  1.00  0.00     0.152 C 
ENDBRANCH  24  25
BRANCH  24  30
HETATM   30  C32 UNL     1      -8.000  16.326  20.180  1.00  0.00     0.009 C 
HETATM   31  C33 UNL     1      -8.227  16.418  18.705  1.00  0.00     0.012 C 
HETATM   32  C34 UNL     1      -9.206  16.830  20.916  1.00  0.00     0.012 C 
ENDBRANCH  24  30
ENDBRANCH  22  24
ENDBRANCH  15  20
BRANCH   4  33
HETATM   33  C8  UNL     1      -9.286  14.709  29.539  1.00  0.00     0.226 C 
HETATM   34  O1  UNL     1      -8.737  13.779  28.914  1.00  0.00    -0.273 OA
HETATM   35  N1  UNL     1     -10.369  14.295  30.374  1.00  0.00    -0.360 N 
ATOM     36  H1  UNL     1     -10.864  15.005  30.913  1.00  0.00     0.162 HD
BRANCH  35  37
HETATM   37  C9  UNL     1     -10.796  12.933  30.491  1.00  0.00     0.127 C 
BRANCH  37  38
HETATM   38  C10 UNL     1     -12.166  12.784  29.884  1.00  0.00     0.003 C 
HETATM   39  C11 UNL     1     -13.118  12.054  30.809  1.00  0.00     0.006 C 
HETATM   40  C12 UNL     1     -14.304  11.627  29.960  1.00  0.00     0.000 C 
HETATM   41  C13 UNL     1     -14.491  12.548  28.768  1.00  0.00     0.000 C 
HETATM   42  C14 UNL     1     -13.347  12.405  27.785  1.00  0.00     0.000 C 
HETATM   43  C15 UNL     1     -12.127  12.006  28.587  1.00  0.00     0.006 C 
ENDBRANCH  37  38
ENDBRANCH  35  37
ENDBRANCH   4  33
BRANCH   1  44
HETATM   44  C2  UNL     1     -11.848  16.426  28.236  1.00  0.00    -0.089 C 
HETATM   45  C1  UNL     1     -12.947  16.367  28.961  1.00  0.00     0.014 C 
HETATM   46  C3  UNL     1     -11.809  15.546  27.024  1.00  0.00     0.043 C 
ENDBRANCH   1  44
TORSDOF 8
ENDMDL
