MODEL 1
REMARK VINA RESULT: -7.632670701      0.000      0.000
REMARK  10 active torsions:
REMARK  status: ('A' for Active; 'I' for Inactive)
REMARK    1  A    between atoms: C3_3  and  N1_4 
REMARK    2  A    between atoms: N1_4  and  C4_5 
REMARK    3  A    between atoms: N1_4  and  C9_10 
REMARK    4  A    between atoms: C9_10  and  C10_11 
REMARK    5  A    between atoms: C9_10  and  C21_28 
REMARK       I    between atoms: C10_11  and  N2_13 
REMARK    6  A    between atoms: N2_13  and  C11_15 
REMARK    7  A    between atoms: C11_15  and  C12_16 
REMARK    8  A    between atoms: C11_15  and  C17_24 
REMARK    9  A    between atoms: C12_16  and  C13_17 
REMARK   10  A    between atoms: C17_24  and  C19_26 
ROOT
HETATM    1  C1  UNL     1     -12.809  13.610  34.226  1.00  0.00     0.018 C 
HETATM    2  C2  UNL     1     -12.892  14.067  33.111  1.00  0.00    -0.072 C 
HETATM    3  C3  UNL     1     -13.017  14.617  31.727  1.00  0.00     0.155 C 
ENDROOT
BRANCH   3   4
HETATM    4  N1  UNL     1     -12.784  13.600  30.827  1.00  0.00    -0.343 N 
BRANCH   4   5
HETATM    5  C4  UNL     1     -13.328  12.358  31.251  1.00  0.00     0.090 C 
HETATM    6  C5  UNL     1     -14.674  11.981  30.763  1.00  0.00     0.026 C 
HETATM    7  C6  UNL     1     -14.829  10.578  31.315  1.00  0.00     0.002 C 
HETATM    8  C7  UNL     1     -13.449  10.001  31.303  1.00  0.00     0.002 C 
HETATM    9  C8  UNL     1     -12.501  11.150  30.969  1.00  0.00     0.026 C 
ENDBRANCH   4   5
BRANCH   4  10
HETATM   10  C9  UNL     1     -11.790  13.600  29.844  1.00  0.00     0.088 C 
BRANCH  10  11
HETATM   11  C10 UNL     1     -10.540  14.337  30.125  1.00  0.00     0.265 C 
HETATM   12  O1  UNL     1      -9.397  13.826  29.817  1.00  0.00    -0.266 OA
HETATM   13  N2  UNL     1     -10.395  15.609  30.727  1.00  0.00    -0.351 N 
ATOM     14  H2  UNL     1     -11.243  16.106  30.997  1.00  0.00     0.163 HD
BRANCH  13  15
HETATM   15  C11 UNL     1      -9.127  16.253  30.986  1.00  0.00     0.089 C 
BRANCH  15  16
HETATM   16  C12 UNL     1      -8.855  17.401  30.101  1.00  0.00     0.039 C 
BRANCH  16  17
HETATM   17  C13 UNL     1      -9.061  17.283  28.646  1.00  0.00     0.081 C 
HETATM   18  C14 UNL     1      -8.095  18.013  27.766  1.00  0.00     0.034 C 
HETATM   19  C15 UNL     1      -8.920  18.622  26.648  1.00  0.00     0.123 C 
HETATM   20  N3  UNL     1     -10.096  19.029  27.410  1.00  0.00    -0.361 N 
HETATM   21  C16 UNL     1     -10.349  17.973  28.315  1.00  0.00     0.221 C 
ATOM     22  H3  UNL     1     -10.625  19.895  27.310  1.00  0.00     0.162 HD
HETATM   23  O2  UNL     1     -11.514  17.706  28.740  1.00  0.00    -0.273 OA
ENDBRANCH  16  17
ENDBRANCH  15  16
BRANCH  15  24
HETATM   24  C17 UNL     1      -8.876  16.486  32.442  1.00  0.00     0.004 C 
HETATM   25  C18 UNL     1      -7.504  16.060  32.899  1.00  0.00     0.012 C 
BRANCH  24  26
HETATM   26  C19 UNL     1      -9.855  15.730  33.312  1.00  0.00     0.002 C 
HETATM   27  C20 UNL     1     -10.324  16.550  34.493  1.00  0.00     0.005 C 
ENDBRANCH  24  26
ENDBRANCH  15  24
ENDBRANCH  13  15
ENDBRANCH  10  11
BRANCH  10  28
HETATM   28  C21 UNL     1     -12.327  13.835  28.441  1.00  0.00    -0.003 C 
HETATM   29  C22 UNL     1     -12.588  12.429  27.866  1.00  0.00     0.021 C 
HETATM   30  C23 UNL     1     -13.541  14.626  28.292  1.00  0.00     0.021 C 
HETATM   31  C24 UNL     1     -11.201  14.379  27.589  1.00  0.00     0.021 C 
ENDBRANCH  10  28
ENDBRANCH   4  10
ENDBRANCH   3   4
TORSDOF 10
ENDMDL
MODEL 2
REMARK VINA RESULT: -7.272398111      2.398      4.758
REMARK  10 active torsions:
REMARK  status: ('A' for Active; 'I' for Inactive)
REMARK    1  A    between atoms: C3_3  and  N1_4 
REMARK    2  A    between atoms: N1_4  and  C4_5 
REMARK    3  A    between atoms: N1_4  and  C9_10 
REMARK    4  A    between atoms: C9_10  and  C10_11 
REMARK    5  A    between atoms: C9_10  and  C21_28 
REMARK       I    between atoms: C10_11  and  N2_13 
REMARK    6  A    between atoms: N2_13  and  C11_15 
REMARK    7  A    between atoms: C11_15  and  C12_16 
REMARK    8  A    between atoms: C11_15  and  C17_24 
REMARK    9  A    between atoms: C12_16  and  C13_17 
REMARK   10  A    between atoms: C17_24  and  C19_26 
ROOT
HETATM    1  C1  UNL     1     -12.906  14.338  33.351  1.00  0.00     0.018 C 
HETATM    2  C2  UNL     1     -12.378  14.947  32.452  1.00  0.00    -0.072 C 
HETATM    3  C3  UNL     1     -11.733  15.681  31.321  1.00  0.00     0.155 C 
ENDROOT
BRANCH   3   4
HETATM    4  N1  UNL     1     -10.650  14.950  30.884  1.00  0.00    -0.343 N 
BRANCH   4   5
HETATM    5  C4  UNL     1      -9.466  15.233  31.617  1.00  0.00     0.090 C 
HETATM    6  C5  UNL     1      -9.078  16.650  31.796  1.00  0.00     0.026 C 
HETATM    7  C6  UNL     1      -7.877  16.536  32.714  1.00  0.00     0.002 C 
HETATM    8  C7  UNL     1      -8.163  15.352  33.582  1.00  0.00     0.002 C 
HETATM    9  C8  UNL     1      -9.400  14.674  32.997  1.00  0.00     0.026 C 
ENDBRANCH   4   5
BRANCH   4  10
HETATM   10  C9  UNL     1     -10.537  14.338  29.632  1.00  0.00     0.088 C 
BRANCH  10  11
HETATM   11  C10 UNL     1      -9.624  14.949  28.643  1.00  0.00     0.265 C 
HETATM   12  O1  UNL     1      -8.765  14.225  28.013  1.00  0.00    -0.266 OA
HETATM   13  N2  UNL     1      -9.541  16.308  28.257  1.00  0.00    -0.351 N 
ATOM     14  H2  UNL     1     -10.191  16.965  28.689  1.00  0.00     0.163 HD
BRANCH  13  15
HETATM   15  C11 UNL     1      -8.600  16.829  27.292  1.00  0.00     0.089 C 
BRANCH  15  16
HETATM   16  C12 UNL     1      -9.226  17.652  26.240  1.00  0.00     0.039 C 
BRANCH  16  17
HETATM   17  C13 UNL     1      -9.332  17.141  24.861  1.00  0.00     0.081 C 
HETATM   18  C14 UNL     1      -9.596  15.677  24.702  1.00  0.00     0.034 C 
HETATM   19  C15 UNL     1      -8.717  15.213  23.555  1.00  0.00     0.123 C 
HETATM   20  N3  UNL     1      -7.519  15.996  23.836  1.00  0.00    -0.361 N 
HETATM   21  C16 UNL     1      -7.982  17.274  24.226  1.00  0.00     0.221 C 
ATOM     22  H3  UNL     1      -6.550  15.686  23.766  1.00  0.00     0.162 HD
HETATM   23  O2  UNL     1      -7.303  18.330  24.036  1.00  0.00    -0.273 OA
ENDBRANCH  16  17
ENDBRANCH  15  16
BRANCH  15  24
HETATM   24  C17 UNL     1      -7.377  17.411  27.925  1.00  0.00     0.004 C 
HETATM   25  C18 UNL     1      -7.103  18.838  27.520  1.00  0.00     0.012 C 
BRANCH  24  26
HETATM   26  C19 UNL     1      -6.130  16.633  27.566  1.00  0.00     0.002 C 
HETATM   27  C20 UNL     1      -5.170  17.445  26.725  1.00  0.00     0.005 C 
ENDBRANCH  24  26
ENDBRANCH  15  24
ENDBRANCH  13  15
ENDBRANCH  10  11
BRANCH  10  28
HETATM   28  C21 UNL     1     -11.875  13.921  29.041  1.00  0.00    -0.003 C 
HETATM   29  C22 UNL     1     -12.320  12.699  29.868  1.00  0.00     0.021 C 
HETATM   30  C23 UNL     1     -12.959  14.894  29.037  1.00  0.00     0.021 C 
HETATM   31  C24 UNL     1     -11.626  13.360  27.658  1.00  0.00     0.021 C 
ENDBRANCH  10  28
ENDBRANCH   4  10
ENDBRANCH   3   4
TORSDOF 10
ENDMDL
MODEL 3
REMARK VINA RESULT: -7.271556652      2.907      7.505
REMARK  10 active torsions:
REMARK  status: ('A' for Active; 'I' for Inactive)
REMARK    1  A    between atoms: C3_3  and  N1_4 
REMARK    2  A    between atoms: N1_4  and  C4_5 
REMARK    3  A    between atoms: N1_4  and  C9_10 
REMARK    4  A    between atoms: C9_10  and  C10_11 
REMARK    5  A    between atoms: C9_10  and  C21_28 
REMARK       I    between atoms: C10_11  and  N2_13 
REMARK    6  A    between atoms: N2_13  and  C11_15 
REMARK    7  A    between atoms: C11_15  and  C12_16 
REMARK    8  A    between atoms: C11_15  and  C17_24 
REMARK    9  A    between atoms: C12_16  and  C13_17 
REMARK   10  A    between atoms: C17_24  and  C19_26 
ROOT
HETATM    1  C1  UNL     1      -9.974  19.032  27.127  1.00  0.00     0.018 C 
HETATM    2  C2  UNL     1      -9.720  18.130  26.366  1.00  0.00    -0.072 C 
HETATM    3  C3  UNL     1      -9.400  16.996  25.446  1.00  0.00     0.155 C 
ENDROOT
BRANCH   3   4
HETATM    4  N1  UNL     1      -8.036  16.801  25.448  1.00  0.00    -0.343 N 
BRANCH   4   5
HETATM    5  C4  UNL     1      -7.465  16.908  24.151  1.00  0.00     0.090 C 
HETATM    6  C5  UNL     1      -8.244  16.393  23.001  1.00  0.00     0.026 C 
HETATM    7  C6  UNL     1      -7.378  16.802  21.825  1.00  0.00     0.002 C 
HETATM    8  C7  UNL     1      -6.744  18.091  22.240  1.00  0.00     0.002 C 
HETATM    9  C8  UNL     1      -7.068  18.279  23.720  1.00  0.00     0.026 C 
ENDBRANCH   4   5
BRANCH   4  10
HETATM   10  C9  UNL     1      -7.312  16.150  26.451  1.00  0.00     0.088 C 
BRANCH  10  11
HETATM   11  C10 UNL     1      -8.045  15.233  27.349  1.00  0.00     0.265 C 
HETATM   12  O1  UNL     1      -7.827  13.963  27.304  1.00  0.00    -0.266 OA
HETATM   13  N2  UNL     1      -9.023  15.559  28.317  1.00  0.00    -0.351 N 
ATOM     14  H2  UNL     1      -9.259  16.544  28.441  1.00  0.00     0.163 HD
BRANCH  13  15
HETATM   15  C11 UNL     1      -9.711  14.594  29.144  1.00  0.00     0.089 C 
BRANCH  15  16
HETATM   16  C12 UNL     1      -9.309  14.636  30.562  1.00  0.00     0.039 C 
BRANCH  16  17
HETATM   17  C13 UNL     1      -9.336  15.910  31.305  1.00  0.00     0.081 C 
HETATM   18  C14 UNL     1      -8.155  16.211  32.172  1.00  0.00     0.034 C 
HETATM   19  C15 UNL     1      -8.713  16.809  33.451  1.00  0.00     0.123 C 
HETATM   20  N3  UNL     1      -9.896  15.971  33.613  1.00  0.00    -0.361 N 
HETATM   21  C16 UNL     1     -10.437  15.819  32.316  1.00  0.00     0.221 C 
ATOM     22  H3  UNL     1     -10.256  15.576  34.482  1.00  0.00     0.162 HD
HETATM   23  O2  UNL     1     -11.677  15.637  32.114  1.00  0.00    -0.273 OA
ENDBRANCH  16  17
ENDBRANCH  15  16
BRANCH  15  24
HETATM   24  C17 UNL     1     -11.184  14.553  28.892  1.00  0.00     0.004 C 
HETATM   25  C18 UNL     1     -11.591  13.577  27.816  1.00  0.00     0.012 C 
BRANCH  24  26
HETATM   26  C19 UNL     1     -11.720  15.897  28.454  1.00  0.00     0.002 C 
HETATM   27  C20 UNL     1     -13.215  15.870  28.222  1.00  0.00     0.005 C 
ENDBRANCH  24  26
ENDBRANCH  15  24
ENDBRANCH  13  15
ENDBRANCH  10  11
BRANCH  10  28
HETATM   28  C21 UNL     1      -6.339  17.062  27.183  1.00  0.00    -0.003 C 
HETATM   29  C22 UNL     1      -4.967  16.796  26.532  1.00  0.00     0.021 C 
HETATM   30  C23 UNL     1      -6.589  18.496  27.159  1.00  0.00     0.021 C 
HETATM   31  C24 UNL     1      -6.183  16.547  28.597  1.00  0.00     0.021 C 
ENDBRANCH  10  28
ENDBRANCH   4  10
ENDBRANCH   3   4
TORSDOF 10
ENDMDL
MODEL 4
REMARK VINA RESULT: -7.227862028      2.987      5.068
REMARK  10 active torsions:
REMARK  status: ('A' for Active; 'I' for Inactive)
REMARK    1  A    between atoms: C3_3  and  N1_4 
REMARK    2  A    between atoms: N1_4  and  C4_5 
REMARK    3  A    between atoms: N1_4  and  C9_10 
REMARK    4  A    between atoms: C9_10  and  C10_11 
REMARK    5  A    between atoms: C9_10  and  C21_28 
REMARK       I    between atoms: C10_11  and  N2_13 
REMARK    6  A    between atoms: N2_13  and  C11_15 
REMARK    7  A    between atoms: C11_15  and  C12_16 
REMARK    8  A    between atoms: C11_15  and  C17_24 
REMARK    9  A    between atoms: C12_16  and  C13_17 
REMARK   10  A    between atoms: C17_24  and  C19_26 
ROOT
HETATM    1  C1  UNL     1     -11.301  18.290  28.875  1.00  0.00     0.018 C 
HETATM    2  C2  UNL     1     -10.620  17.518  29.506  1.00  0.00    -0.072 C 
HETATM    3  C3  UNL     1      -9.770  16.549  30.263  1.00  0.00     0.155 C 
ENDROOT
BRANCH   3   4
HETATM    4  N1  UNL     1     -10.384  15.316  30.242  1.00  0.00    -0.343 N 
BRANCH   4   5
HETATM    5  C4  UNL     1     -10.776  14.878  31.535  1.00  0.00     0.090 C 
HETATM    6  C5  UNL     1      -9.879  15.175  32.675  1.00  0.00     0.026 C 
HETATM    7  C6  UNL     1     -10.692  14.678  33.855  1.00  0.00     0.002 C 
HETATM    8  C7  UNL     1     -12.117  14.929  33.478  1.00  0.00     0.002 C 
HETATM    9  C8  UNL     1     -12.111  15.344  32.009  1.00  0.00     0.026 C 
ENDBRANCH   4   5
BRANCH   4  10
HETATM   10  C9  UNL     1     -10.275  14.373  29.216  1.00  0.00     0.088 C 
BRANCH  10  11
HETATM   11  C10 UNL     1      -9.194  14.553  28.224  1.00  0.00     0.265 C 
HETATM   12  O1  UNL     1      -8.102  13.873  28.317  1.00  0.00    -0.266 OA
HETATM   13  N2  UNL     1      -9.170  15.423  27.108  1.00  0.00    -0.351 N 
ATOM     14  H2  UNL     1      -9.996  15.997  26.937  1.00  0.00     0.163 HD
BRANCH  13  15
HETATM   15  C11 UNL     1      -8.058  15.553  26.195  1.00  0.00     0.089 C 
BRANCH  15  16
HETATM   16  C12 UNL     1      -8.389  15.189  24.804  1.00  0.00     0.039 C 
BRANCH  16  17
HETATM   17  C13 UNL     1      -9.092  16.148  23.932  1.00  0.00     0.081 C 
HETATM   18  C14 UNL     1     -10.240  15.617  23.133  1.00  0.00     0.034 C 
HETATM   19  C15 UNL     1     -10.126  16.251  21.759  1.00  0.00     0.123 C 
HETATM   20  N3  UNL     1      -8.677  16.209  21.594  1.00  0.00    -0.361 N 
HETATM   21  C16 UNL     1      -8.139  16.559  22.853  1.00  0.00     0.221 C 
ATOM     22  H3  UNL     1      -8.160  15.976  20.746  1.00  0.00     0.162 HD
HETATM   23  O2  UNL     1      -7.013  17.133  22.976  1.00  0.00    -0.273 OA
ENDBRANCH  16  17
ENDBRANCH  15  16
BRANCH  15  24
HETATM   24  C17 UNL     1      -7.309  16.836  26.365  1.00  0.00     0.004 C 
HETATM   25  C18 UNL     1      -6.183  16.755  27.365  1.00  0.00     0.012 C 
BRANCH  24  26
HETATM   26  C19 UNL     1      -8.207  17.955  26.844  1.00  0.00     0.002 C 
HETATM   27  C20 UNL     1      -7.425  19.091  27.466  1.00  0.00     0.005 C 
ENDBRANCH  24  26
ENDBRANCH  15  24
ENDBRANCH  13  15
ENDBRANCH  10  11
BRANCH  10  28
HETATM   28  C21 UNL     1     -11.611  14.001  28.591  1.00  0.00    -0.003 C 
HETATM   29  C22 UNL     1     -12.074  12.740  29.347  1.00  0.00     0.021 C 
HETATM   30  C23 UNL     1     -12.686  14.983  28.631  1.00  0.00     0.021 C 
HETATM   31  C24 UNL     1     -11.354  13.513  27.183  1.00  0.00     0.021 C 
ENDBRANCH  10  28
ENDBRANCH   4  10
ENDBRANCH   3   4
TORSDOF 10
ENDMDL
MODEL 5
REMARK VINA RESULT: -7.193736119      2.598      7.250
REMARK  10 active torsions:
REMARK  status: ('A' for Active; 'I' for Inactive)
REMARK    1  A    between atoms: C3_3  and  N1_4 
REMARK    2  A    between atoms: N1_4  and  C4_5 
REMARK    3  A    between atoms: N1_4  and  C9_10 
REMARK    4  A    between atoms: C9_10  and  C10_11 
REMARK    5  A    between atoms: C9_10  and  C21_28 
REMARK       I    between atoms: C10_11  and  N2_13 
REMARK    6  A    between atoms: N2_13  and  C11_15 
REMARK    7  A    between atoms: C11_15  and  C12_16 
REMARK    8  A    between atoms: C11_15  and  C17_24 
REMARK    9  A    between atoms: C12_16  and  C13_17 
REMARK   10  A    between atoms: C17_24  and  C19_26 
ROOT
HETATM    1  C1  UNL     1      -4.491  16.828  27.952  1.00  0.00     0.018 C 
HETATM    2  C2  UNL     1      -5.111  16.813  26.916  1.00  0.00    -0.072 C 
HETATM    3  C3  UNL     1      -5.891  16.817  25.641  1.00  0.00     0.155 C 
ENDROOT
BRANCH   3   4
HETATM    4  N1  UNL     1      -7.212  16.556  25.933  1.00  0.00    -0.343 N 
BRANCH   4   5
HETATM    5  C4  UNL     1      -8.036  16.544  24.776  1.00  0.00     0.090 C 
HETATM    6  C5  UNL     1      -7.484  17.098  23.519  1.00  0.00     0.026 C 
HETATM    7  C6  UNL     1      -8.586  16.786  22.525  1.00  0.00     0.002 C 
HETATM    8  C7  UNL     1      -9.180  15.497  22.995  1.00  0.00     0.002 C 
HETATM    9  C8  UNL     1      -8.573  15.214  24.367  1.00  0.00     0.026 C 
ENDBRANCH   4   5
BRANCH   4  10
HETATM   10  C9  UNL     1      -7.811  16.714  27.186  1.00  0.00     0.088 C 
BRANCH  10  11
HETATM   11  C10 UNL     1      -8.489  15.543  27.781  1.00  0.00     0.265 C 
HETATM   12  O1  UNL     1      -7.863  14.424  27.914  1.00  0.00    -0.266 OA
HETATM   13  N2  UNL     1      -9.818  15.455  28.259  1.00  0.00    -0.351 N 
ATOM     14  H2  UNL     1     -10.396  16.294  28.211  1.00  0.00     0.163 HD
BRANCH  13  15
HETATM   15  C11 UNL     1     -10.412  14.259  28.810  1.00  0.00     0.089 C 
BRANCH  15  16
HETATM   16  C12 UNL     1     -10.396  14.216  30.285  1.00  0.00     0.039 C 
BRANCH  16  17
HETATM   17  C13 UNL     1     -10.157  15.447  31.061  1.00  0.00     0.081 C 
HETATM   18  C14 UNL     1      -8.826  15.573  31.733  1.00  0.00     0.034 C 
HETATM   19  C15 UNL     1      -9.100  16.163  33.103  1.00  0.00     0.123 C 
HETATM   20  N3  UNL     1     -10.331  15.453  33.431  1.00  0.00    -0.361 N 
HETATM   21  C16 UNL     1     -11.086  15.427  32.236  1.00  0.00     0.221 C 
ATOM     22  H3  UNL     1     -10.593  15.057  34.334  1.00  0.00     0.162 HD
HETATM   23  O2  UNL     1     -12.355  15.392  32.234  1.00  0.00    -0.273 OA
ENDBRANCH  16  17
ENDBRANCH  15  16
BRANCH  15  24
HETATM   24  C17 UNL     1     -11.715  13.904  28.168  1.00  0.00     0.004 C 
HETATM   25  C18 UNL     1     -12.895  14.658  28.729  1.00  0.00     0.012 C 
BRANCH  24  26
HETATM   26  C19 UNL     1     -12.046  12.438  28.333  1.00  0.00     0.002 C 
HETATM   27  C20 UNL     1     -12.983  12.189  29.495  1.00  0.00     0.005 C 
ENDBRANCH  24  26
ENDBRANCH  15  24
ENDBRANCH  13  15
ENDBRANCH  10  11
BRANCH  10  28
HETATM   28  C21 UNL     1      -8.607  18.003  27.317  1.00  0.00    -0.003 C 
HETATM   29  C22 UNL     1      -7.561  19.133  27.253  1.00  0.00     0.021 C 
HETATM   30  C23 UNL     1      -9.641  18.277  26.328  1.00  0.00     0.021 C 
HETATM   31  C24 UNL     1      -9.151  18.082  28.726  1.00  0.00     0.021 C 
ENDBRANCH  10  28
ENDBRANCH   4  10
ENDBRANCH   3   4
TORSDOF 10
ENDMDL
