MODEL 1
REMARK VINA RESULT: -8.571994291      0.000      0.000
REMARK  8 active torsions:
REMARK  status: ('A' for Active; 'I' for Inactive)
REMARK    1  A    between atoms: C2_2  and  C3_3 
REMARK       I    between atoms: C3_3  and  N1_5 
REMARK    2  A    between atoms: C5_7  and  C6_8 
REMARK       I    between atoms: C6_8  and  N2_10 
REMARK    3  A    between atoms: N2_10  and  C7_12 
REMARK    4  A    between atoms: C7_12  and  C8_13 
REMARK    5  A    between atoms: C7_12  and  C12_17 
REMARK    6  A    between atoms: C8_13  and  C9_14 
REMARK    7  A    between atoms: C13_20  and  C14_21 
REMARK    8  A    between atoms: C14_21  and  C15_22 
ROOT
HETATM    1  C3  UNL     1     -13.874  13.093  30.139  1.00  0.00     0.219 C 
HETATM    2  O1  UNL     1     -14.730  13.832  30.686  1.00  0.00    -0.273 OA
HETATM    3  N1  UNL     1     -12.934  13.692  29.259  1.00  0.00    -0.347 N 
HETATM    4  C4  UNL     1     -12.986  15.099  29.021  1.00  0.00     0.140 C 
HETATM    5  C5  UNL     1     -11.633  15.753  28.992  1.00  0.00     0.100 C 
HETATM    6  C13 UNL     1     -10.597  15.004  28.246  1.00  0.00     0.002 C 
HETATM    7  C21 UNL     1     -10.607  13.524  28.454  1.00  0.00     0.030 C 
HETATM    8  C22 UNL     1     -11.931  12.879  28.605  1.00  0.00     0.083 C 
HETATM    9  C23 UNL     1     -12.501  12.493  27.242  1.00  0.00     0.032 C 
ENDROOT
BRANCH   5  10
HETATM   10  C6  UNL     1     -11.164  16.111  30.366  1.00  0.00     0.224 C 
HETATM   11  O2  UNL     1     -10.613  17.254  30.480  1.00  0.00    -0.273 OA
HETATM   12  N2  UNL     1     -11.319  15.242  31.469  1.00  0.00    -0.348 N 
ATOM     13  H2  UNL     1     -11.764  14.334  31.344  1.00  0.00     0.163 HD
BRANCH  12  14
HETATM   14  C7  UNL     1     -10.849  15.638  32.762  1.00  0.00     0.174 C 
BRANCH  14  15
HETATM   15  C8  UNL     1      -9.580  14.983  33.179  1.00  0.00     0.038 C 
BRANCH  15  16
HETATM   16  C9  UNL     1      -8.391  15.839  33.367  1.00  0.00    -0.020 C 
HETATM   17  C10 UNL     1      -8.639  17.194  33.967  1.00  0.00     0.009 C 
HETATM   18  C11 UNL     1      -7.813  16.086  31.963  1.00  0.00     0.009 C 
ENDBRANCH  15  16
ENDBRANCH  14  15
BRANCH  14  19
HETATM   19  C12 UNL     1     -11.913  15.629  33.787  1.00  0.00     0.254 C 
HETATM   20  N3  UNL     1     -11.689  15.879  35.159  1.00  0.00    -0.060 NA
HETATM   21  O3  UNL     1     -13.110  15.379  33.414  1.00  0.00    -0.275 OA
ENDBRANCH  14  19
ENDBRANCH  12  14
ENDBRANCH   5  10
BRANCH   6  22
HETATM   22  C14 UNL     1     -10.581  15.272  26.772  1.00  0.00     0.010 C 
BRANCH  22  23
HETATM   23  C15 UNL     1      -9.483  16.143  26.282  1.00  0.00    -0.014 C 
HETATM   24  C16 UNL     1      -9.865  17.532  25.917  1.00  0.00     0.005 C 
HETATM   25  C17 UNL     1      -9.532  18.541  26.995  1.00  0.00     0.000 C 
HETATM   26  C18 UNL     1      -8.037  18.701  27.133  1.00  0.00     0.000 C 
HETATM   27  C19 UNL     1      -7.430  17.321  27.094  1.00  0.00     0.000 C 
HETATM   28  C20 UNL     1      -8.476  16.260  27.438  1.00  0.00     0.005 C 
ENDBRANCH  22  23
ENDBRANCH   6  22
BRANCH   1  29
HETATM   29  C2  UNL     1     -13.843  11.610  30.410  1.00  0.00     0.098 C 
HETATM   30  C1  UNL     1     -15.252  11.166  30.652  1.00  0.00     0.014 C 
ENDBRANCH   1  29
TORSDOF 8
ENDMDL
MODEL 2
REMARK VINA RESULT: -8.262492044      4.276      8.652
REMARK  8 active torsions:
REMARK  status: ('A' for Active; 'I' for Inactive)
REMARK    1  A    between atoms: C2_2  and  C3_3 
REMARK       I    between atoms: C3_3  and  N1_5 
REMARK    2  A    between atoms: C5_7  and  C6_8 
REMARK       I    between atoms: C6_8  and  N2_10 
REMARK    3  A    between atoms: N2_10  and  C7_12 
REMARK    4  A    between atoms: C7_12  and  C8_13 
REMARK    5  A    between atoms: C7_12  and  C12_17 
REMARK    6  A    between atoms: C8_13  and  C9_14 
REMARK    7  A    between atoms: C13_20  and  C14_21 
REMARK    8  A    between atoms: C14_21  and  C15_22 
ROOT
HETATM    1  C3  UNL     1      -6.574  17.880  27.317  1.00  0.00     0.219 C 
HETATM    2  O1  UNL     1      -6.583  18.934  26.635  1.00  0.00    -0.273 OA
HETATM    3  N1  UNL     1      -7.744  17.073  27.320  1.00  0.00    -0.347 N 
HETATM    4  C4  UNL     1      -8.882  17.476  26.559  1.00  0.00     0.140 C 
HETATM    5  C5  UNL     1      -9.547  16.343  25.828  1.00  0.00     0.100 C 
HETATM    6  C13 UNL     1      -9.697  15.099  26.617  1.00  0.00     0.002 C 
HETATM    7  C21 UNL     1      -8.520  14.734  27.463  1.00  0.00     0.030 C 
HETATM    8  C22 UNL     1      -7.780  15.851  28.094  1.00  0.00     0.083 C 
HETATM    9  C23 UNL     1      -8.391  16.206  29.447  1.00  0.00     0.032 C 
ENDROOT
BRANCH   5  10
HETATM   10  C6  UNL     1      -8.893  16.078  24.511  1.00  0.00     0.224 C 
HETATM   11  O2  UNL     1      -8.818  14.853  24.170  1.00  0.00    -0.273 OA
HETATM   12  N2  UNL     1      -8.389  17.113  23.693  1.00  0.00    -0.348 N 
ATOM     13  H2  UNL     1      -8.465  18.084  23.995  1.00  0.00     0.163 HD
BRANCH  12  14
HETATM   14  C7  UNL     1      -7.772  16.799  22.440  1.00  0.00     0.174 C 
BRANCH  14  15
HETATM   15  C8  UNL     1      -6.456  17.457  22.225  1.00  0.00     0.038 C 
BRANCH  15  16
HETATM   16  C9  UNL     1      -5.905  18.275  23.324  1.00  0.00    -0.020 C 
HETATM   17  C10 UNL     1      -5.699  19.733  23.025  1.00  0.00     0.009 C 
HETATM   18  C11 UNL     1      -4.514  17.696  23.636  1.00  0.00     0.009 C 
ENDBRANCH  15  16
ENDBRANCH  14  15
BRANCH  14  19
HETATM   19  C12 UNL     1      -8.704  16.899  21.299  1.00  0.00     0.254 C 
HETATM   20  N3  UNL     1      -9.574  15.861  20.898  1.00  0.00    -0.060 NA
HETATM   21  O3  UNL     1      -8.729  17.989  20.632  1.00  0.00    -0.275 OA
ENDBRANCH  14  19
ENDBRANCH  12  14
ENDBRANCH   5  10
BRANCH   6  22
HETATM   22  C14 UNL     1     -10.925  15.056  27.475  1.00  0.00     0.010 C 
BRANCH  22  23
HETATM   23  C15 UNL     1     -11.032  13.897  28.398  1.00  0.00    -0.014 C 
HETATM   24  C16 UNL     1     -11.453  14.207  29.788  1.00  0.00     0.005 C 
HETATM   25  C17 UNL     1     -12.919  13.926  30.041  1.00  0.00     0.000 C 
HETATM   26  C18 UNL     1     -13.192  12.442  30.002  1.00  0.00     0.000 C 
HETATM   27  C19 UNL     1     -12.447  11.877  28.819  1.00  0.00     0.000 C 
HETATM   28  C20 UNL     1     -12.117  12.978  27.811  1.00  0.00     0.005 C 
ENDBRANCH  22  23
ENDBRANCH   6  22
BRANCH   1  29
HETATM   29  C2  UNL     1      -5.357  17.479  28.111  1.00  0.00     0.098 C 
HETATM   30  C1  UNL     1      -4.447  16.725  27.191  1.00  0.00     0.014 C 
ENDBRANCH   1  29
TORSDOF 8
ENDMDL
MODEL 3
REMARK VINA RESULT: -8.098497612      1.633      2.758
REMARK  8 active torsions:
REMARK  status: ('A' for Active; 'I' for Inactive)
REMARK    1  A    between atoms: C2_2  and  C3_3 
REMARK       I    between atoms: C3_3  and  N1_5 
REMARK    2  A    between atoms: C5_7  and  C6_8 
REMARK       I    between atoms: C6_8  and  N2_10 
REMARK    3  A    between atoms: N2_10  and  C7_12 
REMARK    4  A    between atoms: C7_12  and  C8_13 
REMARK    5  A    between atoms: C7_12  and  C12_17 
REMARK    6  A    between atoms: C8_13  and  C9_14 
REMARK    7  A    between atoms: C13_20  and  C14_21 
REMARK    8  A    between atoms: C14_21  and  C15_22 
ROOT
HETATM    1  C3  UNL     1     -12.176  14.519  28.042  1.00  0.00     0.219 C 
HETATM    2  O1  UNL     1     -13.224  14.945  28.588  1.00  0.00    -0.273 OA
HETATM    3  N1  UNL     1     -11.125  15.443  27.797  1.00  0.00    -0.347 N 
HETATM    4  C4  UNL     1     -11.285  16.811  28.171  1.00  0.00     0.140 C 
HETATM    5  C5  UNL     1     -10.057  17.409  28.799  1.00  0.00     0.100 C 
HETATM    6  C13 UNL     1      -8.785  17.062  28.126  1.00  0.00     0.002 C 
HETATM    7  C21 UNL     1      -8.668  15.641  27.678  1.00  0.00     0.030 C 
HETATM    8  C22 UNL     1      -9.900  14.998  27.168  1.00  0.00     0.083 C 
HETATM    9  C23 UNL     1     -10.059  15.250  25.671  1.00  0.00     0.032 C 
ENDROOT
BRANCH   5  10
HETATM   10  C6  UNL     1      -9.994  17.127  30.265  1.00  0.00     0.224 C 
HETATM   11  O2  UNL     1      -9.254  17.909  30.946  1.00  0.00    -0.273 OA
HETATM   12  N2  UNL     1     -10.705  16.063  30.863  1.00  0.00    -0.348 N 
ATOM     13  H2  UNL     1     -11.289  15.454  30.290  1.00  0.00     0.163 HD
BRANCH  12  14
HETATM   14  C7  UNL     1     -10.606  15.839  32.274  1.00  0.00     0.174 C 
BRANCH  14  15
HETATM   15  C8  UNL     1      -9.433  15.021  32.682  1.00  0.00     0.038 C 
BRANCH  15  16
HETATM   16  C9  UNL     1      -8.419  15.654  33.551  1.00  0.00    -0.020 C 
HETATM   17  C10 UNL     1      -8.830  16.930  34.226  1.00  0.00     0.009 C 
HETATM   18  C11 UNL     1      -7.232  16.009  32.638  1.00  0.00     0.009 C 
ENDBRANCH  15  16
ENDBRANCH  14  15
BRANCH  14  19
HETATM   19  C12 UNL     1     -11.887  15.425  32.881  1.00  0.00     0.254 C 
HETATM   20  N3  UNL     1     -12.164  15.495  34.264  1.00  0.00    -0.060 NA
HETATM   21  O3  UNL     1     -12.803  14.974  32.111  1.00  0.00    -0.275 OA
ENDBRANCH  14  19
ENDBRANCH  12  14
ENDBRANCH   5  10
BRANCH   6  22
HETATM   22  C14 UNL     1      -8.433  17.950  26.972  1.00  0.00     0.010 C 
BRANCH  22  23
HETATM   23  C15 UNL     1      -7.041  18.465  26.949  1.00  0.00    -0.014 C 
HETATM   24  C16 UNL     1      -6.062  17.739  27.800  1.00  0.00     0.005 C 
HETATM   25  C17 UNL     1      -5.203  16.768  27.019  1.00  0.00     0.000 C 
HETATM   26  C18 UNL     1      -4.261  17.508  26.100  1.00  0.00     0.000 C 
HETATM   27  C19 UNL     1      -5.051  18.610  25.438  1.00  0.00     0.000 C 
HETATM   28  C20 UNL     1      -6.550  18.314  25.499  1.00  0.00     0.005 C 
ENDBRANCH  22  23
ENDBRANCH   6  22
BRANCH   1  29
HETATM   29  C2  UNL     1     -12.035  13.068  27.658  1.00  0.00     0.098 C 
HETATM   30  C1  UNL     1     -12.306  12.249  28.882  1.00  0.00     0.014 C 
ENDBRANCH   1  29
TORSDOF 8
ENDMDL
MODEL 4
REMARK VINA RESULT: -8.058666646      2.114      3.370
REMARK  8 active torsions:
REMARK  status: ('A' for Active; 'I' for Inactive)
REMARK    1  A    between atoms: C2_2  and  C3_3 
REMARK       I    between atoms: C3_3  and  N1_5 
REMARK    2  A    between atoms: C5_7  and  C6_8 
REMARK       I    between atoms: C6_8  and  N2_10 
REMARK    3  A    between atoms: N2_10  and  C7_12 
REMARK    4  A    between atoms: C7_12  and  C8_13 
REMARK    5  A    between atoms: C7_12  and  C12_17 
REMARK    6  A    between atoms: C8_13  and  C9_14 
REMARK    7  A    between atoms: C13_20  and  C14_21 
REMARK    8  A    between atoms: C14_21  and  C15_22 
ROOT
HETATM    1  C3  UNL     1     -11.888  14.521  28.565  1.00  0.00     0.219 C 
HETATM    2  O1  UNL     1     -12.802  15.024  29.263  1.00  0.00    -0.273 OA
HETATM    3  N1  UNL     1     -10.680  15.253  28.414  1.00  0.00    -0.347 N 
HETATM    4  C4  UNL     1     -10.538  16.522  29.050  1.00  0.00     0.140 C 
HETATM    5  C5  UNL     1      -9.189  16.733  29.678  1.00  0.00     0.100 C 
HETATM    6  C13 UNL     1      -8.044  16.287  28.853  1.00  0.00     0.002 C 
HETATM    7  C21 UNL     1      -8.241  14.989  28.138  1.00  0.00     0.030 C 
HETATM    8  C22 UNL     1      -9.599  14.713  27.616  1.00  0.00     0.083 C 
HETATM    9  C23 UNL     1      -9.764  15.286  26.211  1.00  0.00     0.032 C 
ENDROOT
BRANCH   5  10
HETATM   10  C6  UNL     1      -9.126  16.155  31.055  1.00  0.00     0.224 C 
HETATM   11  O2  UNL     1      -7.965  15.826  31.463  1.00  0.00    -0.273 OA
HETATM   12  N2  UNL     1     -10.276  15.983  31.858  1.00  0.00    -0.348 N 
ATOM     13  H2  UNL     1     -11.191  16.257  31.502  1.00  0.00     0.163 HD
BRANCH  12  14
HETATM   14  C7  UNL     1     -10.155  15.423  33.170  1.00  0.00     0.174 C 
BRANCH  14  15
HETATM   15  C8  UNL     1     -11.152  14.364  33.478  1.00  0.00     0.038 C 
BRANCH  15  16
HETATM   16  C9  UNL     1     -12.308  14.220  32.569  1.00  0.00    -0.020 C 
HETATM   17  C10 UNL     1     -13.484  15.112  32.848  1.00  0.00     0.009 C 
HETATM   18  C11 UNL     1     -12.811  12.775  32.740  1.00  0.00     0.009 C 
ENDBRANCH  15  16
ENDBRANCH  14  15
BRANCH  14  19
HETATM   19  C12 UNL     1     -10.003  16.450  34.221  1.00  0.00     0.254 C 
HETATM   20  N3  UNL     1      -8.824  17.199  34.428  1.00  0.00    -0.060 NA
HETATM   21  O3  UNL     1     -10.998  16.678  34.991  1.00  0.00    -0.275 OA
ENDBRANCH  14  19
ENDBRANCH  12  14
ENDBRANCH   5  10
BRANCH   6  22
HETATM   22  C14 UNL     1      -7.564  17.302  27.862  1.00  0.00     0.010 C 
BRANCH  22  23
HETATM   23  C15 UNL     1      -6.583  16.817  26.858  1.00  0.00    -0.014 C 
HETATM   24  C16 UNL     1      -6.574  17.533  25.556  1.00  0.00     0.005 C 
HETATM   25  C17 UNL     1      -5.457  18.548  25.444  1.00  0.00     0.000 C 
HETATM   26  C18 UNL     1      -4.115  17.860  25.381  1.00  0.00     0.000 C 
HETATM   27  C19 UNL     1      -4.120  16.765  26.419  1.00  0.00     0.000 C 
HETATM   28  C20 UNL     1      -5.191  17.029  27.478  1.00  0.00     0.005 C 
ENDBRANCH  22  23
ENDBRANCH   6  22
BRANCH   1  29
HETATM   29  C2  UNL     1     -12.065  13.177  27.905  1.00  0.00     0.098 C 
HETATM   30  C1  UNL     1     -12.406  12.189  28.978  1.00  0.00     0.014 C 
ENDBRANCH   1  29
TORSDOF 8
ENDMDL
MODEL 5
REMARK VINA RESULT: -7.981846162      4.648      9.025
REMARK  8 active torsions:
REMARK  status: ('A' for Active; 'I' for Inactive)
REMARK    1  A    between atoms: C2_2  and  C3_3 
REMARK       I    between atoms: C3_3  and  N1_5 
REMARK    2  A    between atoms: C5_7  and  C6_8 
REMARK       I    between atoms: C6_8  and  N2_10 
REMARK    3  A    between atoms: N2_10  and  C7_12 
REMARK    4  A    between atoms: C7_12  and  C8_13 
REMARK    5  A    between atoms: C7_12  and  C12_17 
REMARK    6  A    between atoms: C8_13  and  C9_14 
REMARK    7  A    between atoms: C13_20  and  C14_21 
REMARK    8  A    between atoms: C14_21  and  C15_22 
ROOT
HETATM    1  C3  UNL     1      -6.381  17.853  27.196  1.00  0.00     0.219 C 
HETATM    2  O1  UNL     1      -6.366  18.917  26.528  1.00  0.00    -0.273 OA
HETATM    3  N1  UNL     1      -7.571  17.077  27.195  1.00  0.00    -0.347 N 
HETATM    4  C4  UNL     1      -8.702  17.520  26.446  1.00  0.00     0.140 C 
HETATM    5  C5  UNL     1      -9.401  16.415  25.704  1.00  0.00     0.100 C 
HETATM    6  C13 UNL     1      -9.579  15.165  26.476  1.00  0.00     0.002 C 
HETATM    7  C21 UNL     1      -8.407  14.757  27.310  1.00  0.00     0.030 C 
HETATM    8  C22 UNL     1      -7.634  15.845  27.952  1.00  0.00     0.083 C 
HETATM    9  C23 UNL     1      -8.229  16.197  29.313  1.00  0.00     0.032 C 
ENDROOT
BRANCH   5  10
HETATM   10  C6  UNL     1      -8.761  16.151  24.379  1.00  0.00     0.224 C 
HETATM   11  O2  UNL     1      -8.733  14.931  24.013  1.00  0.00    -0.273 OA
HETATM   12  N2  UNL     1      -8.221  17.183  23.579  1.00  0.00    -0.348 N 
ATOM     13  H2  UNL     1      -8.260  18.150  23.900  1.00  0.00     0.163 HD
BRANCH  12  14
HETATM   14  C7  UNL     1      -7.620  16.870  22.318  1.00  0.00     0.174 C 
BRANCH  14  15
HETATM   15  C8  UNL     1      -6.352  17.600  22.048  1.00  0.00     0.038 C 
BRANCH  15  16
HETATM   16  C9  UNL     1      -5.329  16.925  21.223  1.00  0.00    -0.020 C 
HETATM   17  C10 UNL     1      -3.930  16.928  21.770  1.00  0.00     0.009 C 
HETATM   18  C11 UNL     1      -5.275  17.693  19.891  1.00  0.00     0.009 C 
ENDBRANCH  15  16
ENDBRANCH  14  15
BRANCH  14  19
HETATM   19  C12 UNL     1      -8.587  16.881  21.201  1.00  0.00     0.254 C 
HETATM   20  N3  UNL     1      -9.272  15.737  20.740  1.00  0.00    -0.060 NA
HETATM   21  O3  UNL     1      -8.820  17.993  20.615  1.00  0.00    -0.275 OA
ENDBRANCH  14  19
ENDBRANCH  12  14
ENDBRANCH   5  10
BRANCH   6  22
HETATM   22  C14 UNL     1     -10.802  15.141  27.340  1.00  0.00     0.010 C 
BRANCH  22  23
HETATM   23  C15 UNL     1     -10.923  13.985  28.265  1.00  0.00    -0.014 C 
HETATM   24  C16 UNL     1     -11.285  14.308  29.669  1.00  0.00     0.005 C 
HETATM   25  C17 UNL     1     -12.751  14.082  29.971  1.00  0.00     0.000 C 
HETATM   26  C18 UNL     1     -13.082  12.610  29.940  1.00  0.00     0.000 C 
HETATM   27  C19 UNL     1     -12.399  12.019  28.732  1.00  0.00     0.000 C 
HETATM   28  C20 UNL     1     -12.061  13.109  27.714  1.00  0.00     0.005 C 
ENDBRANCH  22  23
ENDBRANCH   6  22
BRANCH   1  29
HETATM   29  C2  UNL     1      -5.170  17.410  27.977  1.00  0.00     0.098 C 
HETATM   30  C1  UNL     1      -4.227  16.758  27.015  1.00  0.00     0.014 C 
ENDBRANCH   1  29
TORSDOF 8
ENDMDL
