MODEL 1
REMARK VINA RESULT: -8.371464356      0.000      0.000
REMARK  8 active torsions:
REMARK  status: ('A' for Active; 'I' for Inactive)
REMARK    1  A    between atoms: C2_2  and  C4_4 
REMARK    2  A    between atoms: C4_4  and  C5_5 
REMARK    3  A    between atoms: C5_5  and  N1_6 
REMARK    4  A    between atoms: C5_5  and  C21_29 
REMARK       I    between atoms: N1_6  and  C6_8 
REMARK    5  A    between atoms: C6_8  and  C7_10 
REMARK       I    between atoms: N2_14  and  C11_15 
REMARK    6  A    between atoms: C11_15  and  C12_17 
REMARK    7  A    between atoms: C12_17  and  N3_19 
REMARK       I    between atoms: N3_19  and  C14_21 
REMARK    8  A    between atoms: C14_21  and  C15_23 
ROOT
HETATM    1  C7  UNL     1     -11.194  14.580  28.591  1.00  0.00     0.179 C 
HETATM    2  C8  UNL     1     -12.591  14.507  27.977  1.00  0.00     0.037 C 
HETATM    3  C9  UNL     1     -13.223  15.792  28.438  1.00  0.00     0.022 C 
HETATM    4  C10 UNL     1     -12.119  16.738  28.770  1.00  0.00     0.127 C 
HETATM    5  N2  UNL     1     -10.890  16.006  28.480  1.00  0.00    -0.337 N 
HETATM    6  C11 UNL     1      -9.660  16.584  28.140  1.00  0.00     0.243 C 
HETATM    7  O2  UNL     1      -9.582  17.863  28.103  1.00  0.00    -0.271 OA
ENDROOT
BRANCH   1   8
HETATM    8  C6  UNL     1     -11.210  14.123  29.995  1.00  0.00     0.241 C 
HETATM    9  N1  UNL     1     -10.860  14.980  31.031  1.00  0.00    -0.354 N 
ATOM     10  H1  UNL     1     -10.593  15.932  30.784  1.00  0.00     0.162 HD
HETATM   11  O1  UNL     1     -11.546  12.945  30.233  1.00  0.00    -0.271 OA
BRANCH   9  12
HETATM   12  C5  UNL     1     -10.844  14.623  32.441  1.00  0.00     0.088 C 
BRANCH  12  13
HETATM   13  C4  UNL     1      -9.505  14.887  33.054  1.00  0.00     0.029 C 
BRANCH  13  14
HETATM   14  C2  UNL     1      -8.944  16.230  32.785  1.00  0.00    -0.021 C 
HETATM   15  C1  UNL     1      -8.858  16.961  34.134  1.00  0.00     0.009 C 
HETATM   16  C3  UNL     1      -7.579  16.259  32.196  1.00  0.00     0.009 C 
ENDBRANCH  13  14
ENDBRANCH  12  13
BRANCH  12  17
HETATM   17  C21 UNL     1     -11.964  15.351  33.150  1.00  0.00     0.000 C 
HETATM   18  C22 UNL     1     -11.993  15.060  34.625  1.00  0.00     0.011 C 
HETATM   19  C23 UNL     1     -13.316  14.971  32.581  1.00  0.00     0.011 C 
ENDBRANCH  12  17
ENDBRANCH   9  12
ENDBRANCH   1   8
BRANCH   6  20
HETATM   20  C12 UNL     1      -8.444  15.788  27.818  1.00  0.00     0.172 C 
HETATM   21  C13 UNL     1      -7.279  16.120  28.717  1.00  0.00     0.042 C 
BRANCH  20  22
HETATM   22  N3  UNL     1      -8.022  16.129  26.451  1.00  0.00    -0.348 N 
HETATM   23  C14 UNL     1      -8.783  15.641  25.371  1.00  0.00     0.222 C 
HETATM   24  O3  UNL     1      -9.806  14.926  25.582  1.00  0.00    -0.273 OA
ATOM     25  H3  UNL     1      -7.197  16.706  26.288  1.00  0.00     0.163 HD
BRANCH  23  26
HETATM   26  C15 UNL     1      -8.442  15.926  23.954  1.00  0.00     0.078 C 
HETATM   27  C16 UNL     1      -7.967  17.360  23.757  1.00  0.00     0.014 C 
HETATM   28  C17 UNL     1      -7.357  17.392  22.352  1.00  0.00     0.001 C 
HETATM   29  C18 UNL     1      -8.417  17.059  21.339  1.00  0.00     0.000 C 
HETATM   30  C19 UNL     1      -9.162  15.793  21.628  1.00  0.00     0.001 C 
HETATM   31  C20 UNL     1      -9.655  15.771  23.053  1.00  0.00     0.014 C 
ENDBRANCH  23  26
ENDBRANCH  20  22
ENDBRANCH   6  20
TORSDOF 8
ENDMDL
MODEL 2
REMARK VINA RESULT: -8.247491453      2.633      8.307
REMARK  8 active torsions:
REMARK  status: ('A' for Active; 'I' for Inactive)
REMARK    1  A    between atoms: C2_2  and  C4_4 
REMARK    2  A    between atoms: C4_4  and  C5_5 
REMARK    3  A    between atoms: C5_5  and  N1_6 
REMARK    4  A    between atoms: C5_5  and  C21_29 
REMARK       I    between atoms: N1_6  and  C6_8 
REMARK    5  A    between atoms: C6_8  and  C7_10 
REMARK       I    between atoms: N2_14  and  C11_15 
REMARK    6  A    between atoms: C11_15  and  C12_17 
REMARK    7  A    between atoms: C12_17  and  N3_19 
REMARK       I    between atoms: N3_19  and  C14_21 
REMARK    8  A    between atoms: C14_21  and  C15_23 
ROOT
HETATM    1  C7  UNL     1      -9.501  15.040  27.494  1.00  0.00     0.179 C 
HETATM    2  C8  UNL     1      -8.085  14.605  27.867  1.00  0.00     0.037 C 
HETATM    3  C9  UNL     1      -7.602  15.747  28.720  1.00  0.00     0.022 C 
HETATM    4  C10 UNL     1      -8.807  16.451  29.246  1.00  0.00     0.127 C 
HETATM    5  N2  UNL     1      -9.945  15.705  28.717  1.00  0.00    -0.337 N 
HETATM    6  C11 UNL     1     -11.216  15.638  29.302  1.00  0.00     0.243 C 
HETATM    7  O2  UNL     1     -11.422  16.304  30.378  1.00  0.00    -0.271 OA
ENDROOT
BRANCH   1   8
HETATM    8  C6  UNL     1      -9.483  15.957  26.337  1.00  0.00     0.241 C 
HETATM    9  N1  UNL     1      -8.489  15.871  25.370  1.00  0.00    -0.354 N 
ATOM     10  H1  UNL     1      -7.776  15.152  25.491  1.00  0.00     0.162 HD
HETATM   11  O1  UNL     1     -10.384  16.816  26.244  1.00  0.00    -0.271 OA
BRANCH   9  12
HETATM   12  C5  UNL     1      -8.386  16.727  24.199  1.00  0.00     0.088 C 
BRANCH  12  13
HETATM   13  C4  UNL     1      -7.097  17.486  24.190  1.00  0.00     0.029 C 
BRANCH  13  14
HETATM   14  C2  UNL     1      -6.329  17.434  25.454  1.00  0.00    -0.021 C 
HETATM   15  C1  UNL     1      -4.850  17.254  25.076  1.00  0.00     0.009 C 
HETATM   16  C3  UNL     1      -6.406  18.644  26.315  1.00  0.00     0.009 C 
ENDBRANCH  13  14
ENDBRANCH  12  13
BRANCH  12  17
HETATM   17  C21 UNL     1      -8.578  15.890  22.954  1.00  0.00     0.000 C 
HETATM   18  C22 UNL     1      -7.953  16.518  21.739  1.00  0.00     0.011 C 
HETATM   19  C23 UNL     1     -10.048  15.676  22.654  1.00  0.00     0.011 C 
ENDBRANCH  12  17
ENDBRANCH   9  12
ENDBRANCH   1   8
BRANCH   6  20
HETATM   20  C12 UNL     1     -12.334  14.832  28.739  1.00  0.00     0.172 C 
HETATM   21  C13 UNL     1     -13.439  15.691  28.174  1.00  0.00     0.042 C 
BRANCH  20  22
HETATM   22  N3  UNL     1     -12.933  14.053  29.832  1.00  0.00    -0.348 N 
HETATM   23  C14 UNL     1     -12.831  12.650  29.791  1.00  0.00     0.222 C 
HETATM   24  O3  UNL     1     -12.235  12.080  28.831  1.00  0.00    -0.273 OA
ATOM     25  H3  UNL     1     -13.412  14.518  30.603  1.00  0.00     0.163 HD
BRANCH  23  26
HETATM   26  C15 UNL     1     -13.403  11.771  30.844  1.00  0.00     0.078 C 
HETATM   27  C16 UNL     1     -12.615  10.476  30.998  1.00  0.00     0.014 C 
HETATM   28  C17 UNL     1     -13.115   9.855  32.306  1.00  0.00     0.001 C 
HETATM   29  C18 UNL     1     -14.583   9.551  32.186  1.00  0.00     0.000 C 
HETATM   30  C19 UNL     1     -15.412  10.712  31.732  1.00  0.00     0.001 C 
HETATM   31  C20 UNL     1     -14.820  11.347  30.498  1.00  0.00     0.014 C 
ENDBRANCH  23  26
ENDBRANCH  20  22
ENDBRANCH   6  20
TORSDOF 8
ENDMDL
MODEL 3
REMARK VINA RESULT: -8.149825978      2.600      9.304
REMARK  8 active torsions:
REMARK  status: ('A' for Active; 'I' for Inactive)
REMARK    1  A    between atoms: C2_2  and  C4_4 
REMARK    2  A    between atoms: C4_4  and  C5_5 
REMARK    3  A    between atoms: C5_5  and  N1_6 
REMARK    4  A    between atoms: C5_5  and  C21_29 
REMARK       I    between atoms: N1_6  and  C6_8 
REMARK    5  A    between atoms: C6_8  and  C7_10 
REMARK       I    between atoms: N2_14  and  C11_15 
REMARK    6  A    between atoms: C11_15  and  C12_17 
REMARK    7  A    between atoms: C12_17  and  N3_19 
REMARK       I    between atoms: N3_19  and  C14_21 
REMARK    8  A    between atoms: C14_21  and  C15_23 
ROOT
HETATM    1  C7  UNL     1      -6.360  17.262  25.285  1.00  0.00     0.179 C 
HETATM    2  C8  UNL     1      -4.894  16.833  25.277  1.00  0.00     0.037 C 
HETATM    3  C9  UNL     1      -4.163  18.148  25.318  1.00  0.00     0.022 C 
HETATM    4  C10 UNL     1      -5.102  19.162  25.879  1.00  0.00     0.127 C 
HETATM    5  N2  UNL     1      -6.329  18.426  26.169  1.00  0.00    -0.337 N 
HETATM    6  C11 UNL     1      -7.279  18.779  27.136  1.00  0.00     0.243 C 
HETATM    7  O2  UNL     1      -7.085  19.849  27.813  1.00  0.00    -0.271 OA
ENDROOT
BRANCH   1   8
HETATM    8  C6  UNL     1      -6.815  17.610  23.924  1.00  0.00     0.241 C 
HETATM    9  N1  UNL     1      -7.167  16.623  23.012  1.00  0.00    -0.354 N 
ATOM     10  H1  UNL     1      -7.098  15.654  23.319  1.00  0.00     0.162 HD
HETATM   11  O1  UNL     1      -6.878  18.816  23.607  1.00  0.00    -0.271 OA
BRANCH   9  12
HETATM   12  C5  UNL     1      -7.624  16.865  21.653  1.00  0.00     0.088 C 
BRANCH  12  13
HETATM   13  C4  UNL     1      -6.759  16.164  20.654  1.00  0.00     0.029 C 
BRANCH  13  14
HETATM   14  C2  UNL     1      -5.361  16.645  20.586  1.00  0.00    -0.021 C 
HETATM   15  C1  UNL     1      -4.790  16.184  19.236  1.00  0.00     0.009 C 
HETATM   16  C3  UNL     1      -5.175  18.120  20.646  1.00  0.00     0.009 C 
ENDBRANCH  13  14
ENDBRANCH  12  13
BRANCH  12  17
HETATM   17  C21 UNL     1      -9.080  16.472  21.542  1.00  0.00     0.000 C 
HETATM   18  C22 UNL     1      -9.565  15.718  22.749  1.00  0.00     0.011 C 
HETATM   19  C23 UNL     1      -9.325  15.599  20.328  1.00  0.00     0.011 C 
ENDBRANCH  12  17
ENDBRANCH   9  12
ENDBRANCH   1   8
BRANCH   6  20
HETATM   20  C12 UNL     1      -8.499  17.971  27.416  1.00  0.00     0.172 C 
HETATM   21  C13 UNL     1      -9.747  18.587  26.832  1.00  0.00     0.042 C 
BRANCH  20  22
HETATM   22  N3  UNL     1      -8.698  17.933  28.872  1.00  0.00    -0.348 N 
HETATM   23  C14 UNL     1      -9.021  16.702  29.474  1.00  0.00     0.222 C 
HETATM   24  O3  UNL     1      -9.136  15.657  28.770  1.00  0.00    -0.273 OA
ATOM     25  H3  UNL     1      -8.605  18.779  29.434  1.00  0.00     0.163 HD
BRANCH  23  26
HETATM   26  C15 UNL     1      -9.245  16.556  30.935  1.00  0.00     0.078 C 
HETATM   27  C16 UNL     1      -8.007  16.034  31.654  1.00  0.00     0.014 C 
HETATM   28  C17 UNL     1      -8.286  16.252  33.144  1.00  0.00     0.001 C 
HETATM   29  C18 UNL     1      -9.491  15.449  33.550  1.00  0.00     0.000 C 
HETATM   30  C19 UNL     1     -10.694  15.675  32.688  1.00  0.00     0.001 C 
HETATM   31  C20 UNL     1     -10.342  15.546  31.227  1.00  0.00     0.014 C 
ENDBRANCH  23  26
ENDBRANCH  20  22
ENDBRANCH   6  20
TORSDOF 8
ENDMDL
MODEL 4
REMARK VINA RESULT: -8.109738023      3.346      8.697
REMARK  8 active torsions:
REMARK  status: ('A' for Active; 'I' for Inactive)
REMARK    1  A    between atoms: C2_2  and  C4_4 
REMARK    2  A    between atoms: C4_4  and  C5_5 
REMARK    3  A    between atoms: C5_5  and  N1_6 
REMARK    4  A    between atoms: C5_5  and  C21_29 
REMARK       I    between atoms: N1_6  and  C6_8 
REMARK    5  A    between atoms: C6_8  and  C7_10 
REMARK       I    between atoms: N2_14  and  C11_15 
REMARK    6  A    between atoms: C11_15  and  C12_17 
REMARK    7  A    between atoms: C12_17  and  N3_19 
REMARK       I    between atoms: N3_19  and  C14_21 
REMARK    8  A    between atoms: C14_21  and  C15_23 
ROOT
HETATM    1  C7  UNL     1      -6.566  16.719  26.140  1.00  0.00     0.179 C 
HETATM    2  C8  UNL     1      -5.593  17.042  27.272  1.00  0.00     0.037 C 
HETATM    3  C9  UNL     1      -5.871  18.496  27.543  1.00  0.00     0.022 C 
HETATM    4  C10 UNL     1      -7.241  18.791  27.033  1.00  0.00     0.127 C 
HETATM    5  N2  UNL     1      -7.732  17.521  26.506  1.00  0.00    -0.337 N 
HETATM    6  C11 UNL     1      -9.080  17.152  26.398  1.00  0.00     0.243 C 
HETATM    7  O2  UNL     1      -9.969  17.999  26.763  1.00  0.00    -0.271 OA
ENDROOT
BRANCH   1   8
HETATM    8  C6  UNL     1      -6.006  17.117  24.833  1.00  0.00     0.241 C 
HETATM    9  N1  UNL     1      -4.637  17.087  24.601  1.00  0.00    -0.354 N 
ATOM     10  H1  UNL     1      -4.037  16.780  25.367  1.00  0.00     0.162 HD
HETATM   11  O1  UNL     1      -6.792  17.483  23.935  1.00  0.00    -0.271 OA
BRANCH   9  12
HETATM   12  C5  UNL     1      -3.991  17.459  23.353  1.00  0.00     0.088 C 
BRANCH  12  13
HETATM   13  C4  UNL     1      -3.583  18.898  23.358  1.00  0.00     0.029 C 
BRANCH  13  14
HETATM   14  C2  UNL     1      -3.367  19.485  24.700  1.00  0.00    -0.021 C 
HETATM   15  C1  UNL     1      -1.947  20.074  24.712  1.00  0.00     0.009 C 
HETATM   16  C3  UNL     1      -4.289  20.586  25.086  1.00  0.00     0.009 C 
ENDBRANCH  13  14
ENDBRANCH  12  13
BRANCH  12  17
HETATM   17  C21 UNL     1      -2.831  16.524  23.095  1.00  0.00     0.000 C 
HETATM   18  C22 UNL     1      -2.173  16.063  24.366  1.00  0.00     0.011 C 
HETATM   19  C23 UNL     1      -1.768  17.187  22.242  1.00  0.00     0.011 C 
ENDBRANCH  12  17
ENDBRANCH   9  12
ENDBRANCH   1   8
BRANCH   6  20
HETATM   20  C12 UNL     1      -9.526  15.827  25.885  1.00  0.00     0.172 C 
HETATM   21  C13 UNL     1     -10.165  15.920  24.521  1.00  0.00     0.042 C 
BRANCH  20  22
HETATM   22  N3  UNL     1     -10.561  15.310  26.793  1.00  0.00    -0.348 N 
HETATM   23  C14 UNL     1     -10.169  14.457  27.841  1.00  0.00     0.222 C 
HETATM   24  O3  UNL     1      -8.952  14.146  27.992  1.00  0.00    -0.273 OA
ATOM     25  H3  UNL     1     -11.541  15.564  26.666  1.00  0.00     0.163 HD
BRANCH  23  26
HETATM   26  C15 UNL     1     -11.135  13.879  28.811  1.00  0.00     0.078 C 
HETATM   27  C16 UNL     1     -11.955  12.751  28.199  1.00  0.00     0.014 C 
HETATM   28  C17 UNL     1     -12.641  12.063  29.383  1.00  0.00     0.001 C 
HETATM   29  C18 UNL     1     -13.551  13.043  30.072  1.00  0.00     0.000 C 
HETATM   30  C19 UNL     1     -12.889  14.333  30.443  1.00  0.00     0.001 C 
HETATM   31  C20 UNL     1     -12.146  14.917  29.267  1.00  0.00     0.014 C 
ENDBRANCH  23  26
ENDBRANCH  20  22
ENDBRANCH   6  20
TORSDOF 8
ENDMDL
MODEL 5
REMARK VINA RESULT: -8.101437063      1.442      2.306
REMARK  8 active torsions:
REMARK  status: ('A' for Active; 'I' for Inactive)
REMARK    1  A    between atoms: C2_2  and  C4_4 
REMARK    2  A    between atoms: C4_4  and  C5_5 
REMARK    3  A    between atoms: C5_5  and  N1_6 
REMARK    4  A    between atoms: C5_5  and  C21_29 
REMARK       I    between atoms: N1_6  and  C6_8 
REMARK    5  A    between atoms: C6_8  and  C7_10 
REMARK       I    between atoms: N2_14  and  C11_15 
REMARK    6  A    between atoms: C11_15  and  C12_17 
REMARK    7  A    between atoms: C12_17  and  N3_19 
REMARK       I    between atoms: N3_19  and  C14_21 
REMARK    8  A    between atoms: C14_21  and  C15_23 
ROOT
HETATM    1  C7  UNL     1     -10.290  15.646  28.177  1.00  0.00     0.179 C 
HETATM    2  C8  UNL     1     -11.701  16.060  27.761  1.00  0.00     0.037 C 
HETATM    3  C9  UNL     1     -11.940  17.296  28.585  1.00  0.00     0.022 C 
HETATM    4  C10 UNL     1     -10.605  17.841  28.969  1.00  0.00     0.127 C 
HETATM    5  N2  UNL     1      -9.635  16.941  28.353  1.00  0.00    -0.337 N 
HETATM    6  C11 UNL     1      -8.326  17.283  27.988  1.00  0.00     0.243 C 
HETATM    7  O2  UNL     1      -7.922  18.474  28.233  1.00  0.00    -0.271 OA
ENDROOT
BRANCH   1   8
HETATM    8  C6  UNL     1     -10.318  14.862  29.428  1.00  0.00     0.241 C 
HETATM    9  N1  UNL     1     -11.514  14.390  29.951  1.00  0.00    -0.354 N 
ATOM     10  H1  UNL     1     -12.369  14.605  29.438  1.00  0.00     0.162 HD
HETATM   11  O1  UNL     1      -9.238  14.630  30.009  1.00  0.00    -0.271 OA
BRANCH   9  12
HETATM   12  C5  UNL     1     -11.644  13.612  31.173  1.00  0.00     0.088 C 
BRANCH  12  13
HETATM   13  C4  UNL     1     -12.228  14.431  32.280  1.00  0.00     0.029 C 
BRANCH  13  14
HETATM   14  C2  UNL     1     -11.383  14.545  33.490  1.00  0.00    -0.021 C 
HETATM   15  C1  UNL     1     -10.380  15.681  33.235  1.00  0.00     0.009 C 
HETATM   16  C3  UNL     1     -12.095  14.880  34.752  1.00  0.00     0.009 C 
ENDBRANCH  13  14
ENDBRANCH  12  13
BRANCH  12  17
HETATM   17  C21 UNL     1     -12.446  12.363  30.884  1.00  0.00     0.000 C 
HETATM   18  C22 UNL     1     -12.474  12.025  29.419  1.00  0.00     0.011 C 
HETATM   19  C23 UNL     1     -13.881  12.510  31.348  1.00  0.00     0.011 C 
ENDBRANCH  12  17
ENDBRANCH   9  12
ENDBRANCH   1   8
BRANCH   6  20
HETATM   20  C12 UNL     1      -7.387  16.334  27.328  1.00  0.00     0.172 C 
HETATM   21  C13 UNL     1      -5.963  16.510  27.795  1.00  0.00     0.042 C 
BRANCH  20  22
HETATM   22  N3  UNL     1      -7.388  16.618  25.885  1.00  0.00    -0.348 N 
HETATM   23  C14 UNL     1      -8.151  15.792  25.038  1.00  0.00     0.222 C 
HETATM   24  O3  UNL     1      -8.818  14.829  25.516  1.00  0.00    -0.273 OA
ATOM     25  H3  UNL     1      -6.848  17.396  25.506  1.00  0.00     0.163 HD
BRANCH  23  26
HETATM   26  C15 UNL     1      -8.217  15.992  23.567  1.00  0.00     0.078 C 
HETATM   27  C16 UNL     1      -7.806  17.401  23.162  1.00  0.00     0.014 C 
HETATM   28  C17 UNL     1      -7.612  17.343  21.644  1.00  0.00     0.001 C 
HETATM   29  C18 UNL     1      -8.916  16.980  20.988  1.00  0.00     0.000 C 
HETATM   30  C19 UNL     1      -9.560  15.750  21.546  1.00  0.00     0.001 C 
HETATM   31  C20 UNL     1      -9.635  15.816  23.051  1.00  0.00     0.014 C 
ENDBRANCH  23  26
ENDBRANCH  20  22
ENDBRANCH   6  20
TORSDOF 8
ENDMDL
