MODEL 1
REMARK VINA RESULT: -8.487163295      0.000      0.000
REMARK  10 active torsions:
REMARK  status: ('A' for Active; 'I' for Inactive)
REMARK    1  A    between atoms: C2_2  and  C3_3 
REMARK    2  A    between atoms: C3_3  and  C4_4 
REMARK       I    between atoms: C4_4  and  N1_6 
REMARK    3  A    between atoms: N1_6  and  C5_7 
REMARK    4  A    between atoms: N1_6  and  C12_17 
REMARK    5  A    between atoms: C5_7  and  C6_8 
REMARK    6  A    between atoms: C12_17  and  C13_18 
REMARK    7  A    between atoms: C12_17  and  C19_28 
REMARK    8  A    between atoms: C13_18  and  O3_19 
REMARK    9  A    between atoms: C13_18  and  N3_21 
REMARK   10  A    between atoms: N3_21  and  C14_23 
ROOT
HETATM    1  C4  UNL     1      -6.974  17.153  27.597  1.00  0.00     0.224 C 
HETATM    2  O1  UNL     1      -6.698  16.689  28.762  1.00  0.00    -0.273 OA
HETATM    3  N1  UNL     1      -8.269  17.017  27.049  1.00  0.00    -0.318 N 
ENDROOT
BRANCH   3   4
HETATM    4  C5  UNL     1      -8.622  17.452  25.777  1.00  0.00     0.084 C 
BRANCH   4   5
HETATM    5  C6  UNL     1      -8.061  16.836  24.535  1.00  0.00     0.092 C 
HETATM    6  C7  UNL     1      -7.420  17.808  23.548  1.00  0.00     0.041 C 
HETATM    7  C8  UNL     1      -7.194  17.204  22.181  1.00  0.00     0.124 C 
HETATM    8  N2  UNL     1      -8.304  16.899  21.340  1.00  0.00    -0.360 N 
HETATM    9  C9  UNL     1      -9.539  16.171  21.500  1.00  0.00     0.227 C 
ATOM     10  H2  UNL     1      -8.200  17.286  20.402  1.00  0.00     0.162 HD
HETATM   11  O2  UNL     1     -10.293  16.023  20.536  1.00  0.00    -0.273 OA
HETATM   12  C10 UNL     1      -9.936  15.572  22.845  1.00  0.00     0.183 C 
HETATM   13  C11 UNL     1      -9.074  16.085  23.857  1.00  0.00    -0.164 C 
ENDBRANCH   4   5
ENDBRANCH   3   4
BRANCH   3  14
HETATM   14  C12 UNL     1      -9.266  16.433  28.012  1.00  0.00     0.170 C 
BRANCH  14  15
HETATM   15  C13 UNL     1      -9.626  17.539  28.935  1.00  0.00     0.136 C 
BRANCH  15  16
HETATM   16  O3  UNL     1     -10.263  18.552  28.377  1.00  0.00    -0.348 OA
ATOM     17  H3  UNL     1     -11.134  18.718  28.717  1.00  0.00     0.219 HD
ENDBRANCH  15  16
BRANCH  15  18
HETATM   18  N3  UNL     1      -9.417  17.714  30.300  1.00  0.00    -0.368 N 
ATOM     19  H3  UNL     1      -9.422  18.650  30.706  1.00  0.00     0.161 HD
BRANCH  18  20
HETATM   20  C14 UNL     1      -9.191  16.536  31.150  1.00  0.00     0.083 C 
HETATM   21  C15 UNL     1     -10.448  15.880  31.598  1.00  0.00     0.025 C 
HETATM   22  C16 UNL     1      -9.989  15.022  32.772  1.00  0.00     0.002 C 
HETATM   23  C17 UNL     1      -8.619  15.558  33.178  1.00  0.00     0.002 C 
HETATM   24  C18 UNL     1      -8.494  16.896  32.439  1.00  0.00     0.025 C 
ENDBRANCH  18  20
ENDBRANCH  15  18
ENDBRANCH  14  15
BRANCH  14  25
HETATM   25  C19 UNL     1     -10.365  15.696  27.389  1.00  0.00     0.017 C 
HETATM   26  C20 UNL     1     -11.678  16.092  28.080  1.00  0.00     0.007 C 
HETATM   27  C21 UNL     1     -12.319  14.794  28.559  1.00  0.00     0.000 C 
HETATM   28  C22 UNL     1     -11.719  13.717  27.669  1.00  0.00     0.000 C 
HETATM   29  C23 UNL     1     -10.284  14.228  27.614  1.00  0.00     0.007 C 
ENDBRANCH  14  25
ENDBRANCH   3  14
BRANCH   1  30
HETATM   30  C3  UNL     1      -5.840  17.821  26.928  1.00  0.00     0.103 C 
BRANCH  30  31
HETATM   31  C2  UNL     1      -4.637  16.878  26.838  1.00  0.00     0.005 C 
HETATM   32  C1  UNL     1      -4.158  16.844  25.401  1.00  0.00     0.005 C 
ENDBRANCH  30  31
ENDBRANCH   1  30
TORSDOF 10
ENDMDL
MODEL 2
REMARK VINA RESULT: -8.321408483      2.006      5.532
REMARK  10 active torsions:
REMARK  status: ('A' for Active; 'I' for Inactive)
REMARK    1  A    between atoms: C2_2  and  C3_3 
REMARK    2  A    between atoms: C3_3  and  C4_4 
REMARK       I    between atoms: C4_4  and  N1_6 
REMARK    3  A    between atoms: N1_6  and  C5_7 
REMARK    4  A    between atoms: N1_6  and  C12_17 
REMARK    5  A    between atoms: C5_7  and  C6_8 
REMARK    6  A    between atoms: C12_17  and  C13_18 
REMARK    7  A    between atoms: C12_17  and  C19_28 
REMARK    8  A    between atoms: C13_18  and  O3_19 
REMARK    9  A    between atoms: C13_18  and  N3_21 
REMARK   10  A    between atoms: N3_21  and  C14_23 
ROOT
HETATM    1  C4  UNL     1      -9.338  16.694  25.556  1.00  0.00     0.224 C 
HETATM    2  O1  UNL     1      -8.853  17.739  24.987  1.00  0.00    -0.273 OA
HETATM    3  N1  UNL     1      -9.234  16.513  26.953  1.00  0.00    -0.318 N 
ENDROOT
BRANCH   3   4
HETATM    4  C5  UNL     1      -9.692  15.386  27.624  1.00  0.00     0.084 C 
BRANCH   4   5
HETATM    5  C6  UNL     1     -11.127  14.965  27.599  1.00  0.00     0.092 C 
HETATM    6  C7  UNL     1     -12.140  16.050  27.958  1.00  0.00     0.041 C 
HETATM    7  C8  UNL     1     -13.515  15.502  28.261  1.00  0.00     0.124 C 
HETATM    8  N2  UNL     1     -13.738  14.737  29.444  1.00  0.00    -0.360 N 
HETATM    9  C9  UNL     1     -13.104  13.596  30.059  1.00  0.00     0.227 C 
ATOM     10  H2  UNL     1     -14.533  15.078  29.984  1.00  0.00     0.162 HD
HETATM   11  O2  UNL     1     -13.583  13.109  31.086  1.00  0.00    -0.273 OA
HETATM   12  C10 UNL     1     -11.848  12.972  29.463  1.00  0.00     0.183 C 
HETATM   13  C11 UNL     1     -11.325  13.840  28.461  1.00  0.00    -0.164 C 
ENDBRANCH   4   5
ENDBRANCH   3   4
BRANCH   3  14
HETATM   14  C12 UNL     1      -8.657  17.704  27.668  1.00  0.00     0.170 C 
BRANCH  14  15
HETATM   15  C13 UNL     1      -9.635  18.045  28.731  1.00  0.00     0.136 C 
BRANCH  15  16
HETATM   16  O3  UNL     1     -10.781  18.543  28.302  1.00  0.00    -0.348 OA
ATOM     17  H3  UNL     1     -10.809  19.489  28.228  1.00  0.00     0.219 HD
ENDBRANCH  15  16
BRANCH  15  18
HETATM   18  N3  UNL     1      -9.575  17.938  30.117  1.00  0.00    -0.368 N 
ATOM     19  H3  UNL     1      -9.588  18.774  30.700  1.00  0.00     0.161 HD
BRANCH  18  20
HETATM   20  C14 UNL     1      -9.492  16.605  30.732  1.00  0.00     0.083 C 
HETATM   21  C15 UNL     1     -10.789  16.123  31.277  1.00  0.00     0.025 C 
HETATM   22  C16 UNL     1     -10.370  14.998  32.217  1.00  0.00     0.002 C 
HETATM   23  C17 UNL     1      -8.878  15.189  32.469  1.00  0.00     0.002 C 
HETATM   24  C18 UNL     1      -8.572  16.591  31.928  1.00  0.00     0.025 C 
ENDBRANCH  18  20
ENDBRANCH  15  18
ENDBRANCH  14  15
BRANCH  14  25
HETATM   25  C19 UNL     1      -7.256  17.565  28.065  1.00  0.00     0.017 C 
HETATM   26  C20 UNL     1      -6.457  18.732  27.469  1.00  0.00     0.007 C 
HETATM   27  C21 UNL     1      -5.319  18.108  26.668  1.00  0.00     0.000 C 
HETATM   28  C22 UNL     1      -5.136  16.725  27.272  1.00  0.00     0.000 C 
HETATM   29  C23 UNL     1      -6.602  16.363  27.482  1.00  0.00     0.007 C 
ENDBRANCH  14  25
ENDBRANCH   3  14
BRANCH   1  30
HETATM   30  C3  UNL     1      -9.993  15.750  24.629  1.00  0.00     0.103 C 
BRANCH  30  31
HETATM   31  C2  UNL     1      -9.103  15.488  23.410  1.00  0.00     0.005 C 
HETATM   32  C1  UNL     1      -9.885  15.833  22.160  1.00  0.00     0.005 C 
ENDBRANCH  30  31
ENDBRANCH   1  30
TORSDOF 10
ENDMDL
MODEL 3
REMARK VINA RESULT: -8.230406622      2.077      8.080
REMARK  10 active torsions:
REMARK  status: ('A' for Active; 'I' for Inactive)
REMARK    1  A    between atoms: C2_2  and  C3_3 
REMARK    2  A    between atoms: C3_3  and  C4_4 
REMARK       I    between atoms: C4_4  and  N1_6 
REMARK    3  A    between atoms: N1_6  and  C5_7 
REMARK    4  A    between atoms: N1_6  and  C12_17 
REMARK    5  A    between atoms: C5_7  and  C6_8 
REMARK    6  A    between atoms: C12_17  and  C13_18 
REMARK    7  A    between atoms: C12_17  and  C19_28 
REMARK    8  A    between atoms: C13_18  and  O3_19 
REMARK    9  A    between atoms: C13_18  and  N3_21 
REMARK   10  A    between atoms: N3_21  and  C14_23 
ROOT
HETATM    1  C4  UNL     1     -10.903  14.928  27.649  1.00  0.00     0.224 C 
HETATM    2  O1  UNL     1     -10.608  14.436  26.500  1.00  0.00    -0.273 OA
HETATM    3  N1  UNL     1     -10.146  15.983  28.203  1.00  0.00    -0.318 N 
ENDROOT
BRANCH   3   4
HETATM    4  C5  UNL     1     -10.380  16.528  29.460  1.00  0.00     0.084 C 
BRANCH   4   5
HETATM    5  C6  UNL     1     -10.249  15.729  30.717  1.00  0.00     0.092 C 
HETATM    6  C7  UNL     1     -11.478  15.717  31.623  1.00  0.00     0.041 C 
HETATM    7  C8  UNL     1     -11.186  15.207  33.015  1.00  0.00     0.124 C 
HETATM    8  N2  UNL     1     -10.388  15.980  33.909  1.00  0.00    -0.360 N 
HETATM    9  C9  UNL     1      -9.101  16.626  33.833  1.00  0.00     0.227 C 
ATOM     10  H2  UNL     1     -10.833  16.105  34.818  1.00  0.00     0.162 HD
HETATM   11  O2  UNL     1      -8.636  17.185  34.830  1.00  0.00    -0.273 OA
HETATM   12  C10 UNL     1      -8.293  16.632  32.541  1.00  0.00     0.183 C 
HETATM   13  C11 UNL     1      -9.119  16.179  31.472  1.00  0.00    -0.164 C 
ENDBRANCH   4   5
ENDBRANCH   3   4
BRANCH   3  14
HETATM   14  C12 UNL     1      -9.109  16.533  27.261  1.00  0.00     0.170 C 
BRANCH  14  15
HETATM   15  C13 UNL     1      -9.853  17.378  26.295  1.00  0.00     0.136 C 
BRANCH  15  16
HETATM   16  O3  UNL     1     -10.211  18.566  26.746  1.00  0.00    -0.348 OA
ATOM     17  H3  UNL     1     -10.119  19.279  26.126  1.00  0.00     0.219 HD
ENDBRANCH  15  16
BRANCH  15  18
HETATM   18  N3  UNL     1     -10.252  17.154  24.980  1.00  0.00    -0.368 N 
ATOM     19  H3  UNL     1     -11.114  17.567  24.626  1.00  0.00     0.161 HD
BRANCH  18  20
HETATM   20  C14 UNL     1      -9.415  16.317  24.108  1.00  0.00     0.083 C 
HETATM   21  C15 UNL     1      -8.311  17.066  23.451  1.00  0.00     0.025 C 
HETATM   22  C16 UNL     1      -7.901  16.142  22.309  1.00  0.00     0.002 C 
HETATM   23  C17 UNL     1      -9.048  15.153  22.131  1.00  0.00     0.002 C 
HETATM   24  C18 UNL     1     -10.200  15.746  22.952  1.00  0.00     0.025 C 
ENDBRANCH  18  20
ENDBRANCH  15  18
ENDBRANCH  14  15
BRANCH  14  25
HETATM   25  C19 UNL     1      -7.941  17.127  27.911  1.00  0.00     0.017 C 
HETATM   26  C20 UNL     1      -7.265  18.090  26.924  1.00  0.00     0.007 C 
HETATM   27  C21 UNL     1      -5.812  17.644  26.816  1.00  0.00     0.000 C 
HETATM   28  C22 UNL     1      -5.547  16.877  28.103  1.00  0.00     0.000 C 
HETATM   29  C23 UNL     1      -6.874  16.135  28.214  1.00  0.00     0.007 C 
ENDBRANCH  14  25
ENDBRANCH   3  14
BRANCH   1  30
HETATM   30  C3  UNL     1     -12.072  14.299  28.293  1.00  0.00     0.103 C 
BRANCH  30  31
HETATM   31  C2  UNL     1     -11.944  12.773  28.271  1.00  0.00     0.005 C 
HETATM   32  C1  UNL     1     -12.414  12.230  29.604  1.00  0.00     0.005 C 
ENDBRANCH  30  31
ENDBRANCH   1  30
TORSDOF 10
ENDMDL
MODEL 4
REMARK VINA RESULT: -8.126614540      2.263      5.388
REMARK  10 active torsions:
REMARK  status: ('A' for Active; 'I' for Inactive)
REMARK    1  A    between atoms: C2_2  and  C3_3 
REMARK    2  A    between atoms: C3_3  and  C4_4 
REMARK       I    between atoms: C4_4  and  N1_6 
REMARK    3  A    between atoms: N1_6  and  C5_7 
REMARK    4  A    between atoms: N1_6  and  C12_17 
REMARK    5  A    between atoms: C5_7  and  C6_8 
REMARK    6  A    between atoms: C12_17  and  C13_18 
REMARK    7  A    between atoms: C12_17  and  C19_28 
REMARK    8  A    between atoms: C13_18  and  O3_19 
REMARK    9  A    between atoms: C13_18  and  N3_21 
REMARK   10  A    between atoms: N3_21  and  C14_23 
ROOT
HETATM    1  C4  UNL     1      -9.309  16.266  30.310  1.00  0.00     0.224 C 
HETATM    2  O1  UNL     1     -10.418  16.353  30.950  1.00  0.00    -0.273 OA
HETATM    3  N1  UNL     1      -9.288  16.182  28.900  1.00  0.00    -0.318 N 
ENDROOT
BRANCH   3   4
HETATM    4  C5  UNL     1      -8.129  16.037  28.149  1.00  0.00     0.084 C 
BRANCH   4   5
HETATM    5  C6  UNL     1      -7.039  17.062  28.149  1.00  0.00     0.092 C 
HETATM    6  C7  UNL     1      -7.478  18.492  27.850  1.00  0.00     0.041 C 
HETATM    7  C8  UNL     1      -6.325  19.410  27.515  1.00  0.00     0.124 C 
HETATM    8  N2  UNL     1      -5.611  19.248  26.291  1.00  0.00    -0.360 N 
HETATM    9  C9  UNL     1      -4.978  18.142  25.615  1.00  0.00     0.227 C 
ATOM     10  H2  UNL     1      -5.528  20.121  25.770  1.00  0.00     0.162 HD
HETATM   11  O2  UNL     1      -4.366  18.336  24.563  1.00  0.00    -0.273 OA
HETATM   12  C10 UNL     1      -5.047  16.726  26.177  1.00  0.00     0.183 C 
HETATM   13  C11 UNL     1      -6.011  16.687  27.226  1.00  0.00    -0.164 C 
ENDBRANCH   4   5
ENDBRANCH   3   4
BRANCH   3  14
HETATM   14  C12 UNL     1     -10.644  16.358  28.272  1.00  0.00     0.170 C 
BRANCH  14  15
HETATM   15  C13 UNL     1     -10.503  17.492  27.325  1.00  0.00     0.136 C 
BRANCH  15  16
HETATM   16  O3  UNL     1     -10.461  18.689  27.883  1.00  0.00    -0.348 OA
ATOM     17  H3  UNL     1     -10.211  18.699  28.799  1.00  0.00     0.219 HD
ENDBRANCH  15  16
BRANCH  15  18
HETATM   18  N3  UNL     1     -10.402  17.536  25.938  1.00  0.00    -0.368 N 
ATOM     19  H3  UNL     1     -11.038  18.118  25.393  1.00  0.00     0.161 HD
BRANCH  18  20
HETATM   20  C14 UNL     1      -9.369  16.734  25.266  1.00  0.00     0.083 C 
HETATM   21  C15 UNL     1      -8.389  17.553  24.503  1.00  0.00     0.025 C 
HETATM   22  C16 UNL     1      -7.741  16.533  23.573  1.00  0.00     0.002 C 
HETATM   23  C17 UNL     1      -8.665  15.320  23.563  1.00  0.00     0.002 C 
HETATM   24  C18 UNL     1      -9.957  15.814  24.224  1.00  0.00     0.025 C 
ENDBRANCH  18  20
ENDBRANCH  15  18
ENDBRANCH  14  15
BRANCH  14  25
HETATM   25  C19 UNL     1     -11.250  15.128  27.761  1.00  0.00     0.017 C 
HETATM   26  C20 UNL     1     -12.721  15.085  28.196  1.00  0.00     0.007 C 
HETATM   27  C21 UNL     1     -12.911  13.764  28.933  1.00  0.00     0.000 C 
HETATM   28  C22 UNL     1     -11.796  12.870  28.416  1.00  0.00     0.000 C 
HETATM   29  C23 UNL     1     -10.672  13.899  28.366  1.00  0.00     0.007 C 
ENDBRANCH  14  25
ENDBRANCH   3  14
BRANCH   1  30
HETATM   30  C3  UNL     1      -8.111  16.269  31.173  1.00  0.00     0.103 C 
BRANCH  30  31
HETATM   31  C2  UNL     1      -8.481  16.658  32.607  1.00  0.00     0.005 C 
HETATM   32  C1  UNL     1      -7.985  15.575  33.543  1.00  0.00     0.005 C 
ENDBRANCH  30  31
ENDBRANCH   1  30
TORSDOF 10
ENDMDL
MODEL 5
REMARK VINA RESULT: -7.982532588      2.339      8.098
REMARK  10 active torsions:
REMARK  status: ('A' for Active; 'I' for Inactive)
REMARK    1  A    between atoms: C2_2  and  C3_3 
REMARK    2  A    between atoms: C3_3  and  C4_4 
REMARK       I    between atoms: C4_4  and  N1_6 
REMARK    3  A    between atoms: N1_6  and  C5_7 
REMARK    4  A    between atoms: N1_6  and  C12_17 
REMARK    5  A    between atoms: C5_7  and  C6_8 
REMARK    6  A    between atoms: C12_17  and  C13_18 
REMARK    7  A    between atoms: C12_17  and  C19_28 
REMARK    8  A    between atoms: C13_18  and  O3_19 
REMARK    9  A    between atoms: C13_18  and  N3_21 
REMARK   10  A    between atoms: N3_21  and  C14_23 
ROOT
HETATM    1  C4  UNL     1     -10.830  14.082  28.395  1.00  0.00     0.224 C 
HETATM    2  O1  UNL     1     -11.117  14.133  27.144  1.00  0.00    -0.273 OA
HETATM    3  N1  UNL     1      -9.702  14.759  28.909  1.00  0.00    -0.318 N 
ENDROOT
BRANCH   3   4
HETATM    4  C5  UNL     1      -9.308  14.706  30.240  1.00  0.00     0.084 C 
BRANCH   4   5
HETATM    5  C6  UNL     1      -9.529  15.841  31.189  1.00  0.00     0.092 C 
HETATM    6  C7  UNL     1      -8.433  16.055  32.230  1.00  0.00     0.041 C 
HETATM    7  C8  UNL     1      -8.857  16.961  33.362  1.00  0.00     0.124 C 
HETATM    8  N2  UNL     1      -9.831  16.522  34.306  1.00  0.00    -0.360 N 
HETATM    9  C9  UNL     1     -11.150  15.946  34.221  1.00  0.00     0.227 C 
ATOM     10  H2  UNL     1      -9.521  16.644  35.270  1.00  0.00     0.162 HD
HETATM   11  O2  UNL     1     -11.790  15.724  35.252  1.00  0.00    -0.273 OA
HETATM   12  C10 UNL     1     -11.780  15.604  32.875  1.00  0.00     0.183 C 
HETATM   13  C11 UNL     1     -10.784  15.686  31.860  1.00  0.00    -0.164 C 
ENDBRANCH   4   5
ENDBRANCH   3   4
BRANCH   3  14
HETATM   14  C12 UNL     1      -9.011  15.626  27.893  1.00  0.00     0.170 C 
BRANCH  14  15
HETATM   15  C13 UNL     1     -10.082  16.438  27.265  1.00  0.00     0.136 C 
BRANCH  15  16
HETATM   16  O3  UNL     1     -10.943  16.982  28.106  1.00  0.00    -0.348 OA
ATOM     17  H3  UNL     1     -10.958  17.931  28.112  1.00  0.00     0.219 HD
ENDBRANCH  15  16
BRANCH  15  18
HETATM   18  N3  UNL     1     -10.358  16.743  25.935  1.00  0.00    -0.368 N 
ATOM     19  H3  UNL     1     -11.162  17.323  25.695  1.00  0.00     0.161 HD
BRANCH  18  20
HETATM   20  C14 UNL     1      -9.476  16.222  24.880  1.00  0.00     0.083 C 
HETATM   21  C15 UNL     1      -8.475  17.213  24.403  1.00  0.00     0.025 C 
HETATM   22  C16 UNL     1      -8.018  16.627  23.072  1.00  0.00     0.002 C 
HETATM   23  C17 UNL     1      -9.070  15.593  22.681  1.00  0.00     0.002 C 
HETATM   24  C18 UNL     1     -10.243  15.858  23.632  1.00  0.00     0.025 C 
ENDBRANCH  18  20
ENDBRANCH  15  18
ENDBRANCH  14  15
BRANCH  14  25
HETATM   25  C19 UNL     1      -7.834  16.339  28.390  1.00  0.00     0.017 C 
HETATM   26  C20 UNL     1      -8.128  17.845  28.376  1.00  0.00     0.007 C 
HETATM   27  C21 UNL     1      -7.016  18.492  27.557  1.00  0.00     0.000 C 
HETATM   28  C22 UNL     1      -5.862  17.504  27.627  1.00  0.00     0.000 C 
HETATM   29  C23 UNL     1      -6.652  16.207  27.496  1.00  0.00     0.007 C 
ENDBRANCH  14  25
ENDBRANCH   3  14
BRANCH   1  30
HETATM   30  C3  UNL     1     -11.772  13.279  29.198  1.00  0.00     0.103 C 
BRANCH  30  31
HETATM   31  C2  UNL     1     -13.066  14.058  29.449  1.00  0.00     0.005 C 
HETATM   32  C1  UNL     1     -13.828  13.379  30.568  1.00  0.00     0.005 C 
ENDBRANCH  30  31
ENDBRANCH   1  30
TORSDOF 10
ENDMDL
