MODEL 1
REMARK VINA RESULT: -6.391980239      0.000      0.000
REMARK  1 active torsions:
REMARK  status: ('A' for Active; 'I' for Inactive)
REMARK    1  A    between atoms: C3_3  and  N1_4 
ROOT
HETATM    1  C1  UNL     1      27.859  67.382   5.922  1.00  0.00     0.017 C 
HETATM    2  C2  UNL     1      28.751  66.720   6.394  1.00  0.00    -0.046 C 
HETATM    3  C3  UNL     1      29.846  65.922   6.996  1.00  0.00     0.343 C 
HETATM    4  N2  UNL     1      29.367  65.382   8.216  1.00  0.00    -0.292 N 
ATOM      5  H2  UNL     1      28.376  65.141   8.171  1.00  0.00     0.168 HD
HETATM    6  C4  UNL     1      29.934  65.096   9.486  1.00  0.00     0.327 C 
HETATM    7  O1  UNL     1      29.246  64.401  10.258  1.00  0.00    -0.247 OA
HETATM    8  N3  UNL     1      31.191  65.520   9.954  1.00  0.00    -0.261 N 
ATOM      9  H3  UNL     1      31.445  65.202  10.889  1.00  0.00     0.175 HD
HETATM   10  C5  UNL     1      32.151  66.333   9.296  1.00  0.00     0.330 C 
HETATM   11  O2  UNL     1      33.212  66.583   9.918  1.00  0.00    -0.246 OA
HETATM   12  N4  UNL     1      32.091  66.922   8.009  1.00  0.00    -0.274 N 
ATOM     13  H4  UNL     1      32.886  67.491   7.717  1.00  0.00     0.173 HD
HETATM   14  C6  UNL     1      31.016  66.784   7.091  1.00  0.00     0.295 C 
HETATM   15  O3  UNL     1      31.106  67.613   6.129  1.00  0.00    -0.267 OA
ENDROOT
BRANCH   3  16
HETATM   16  N1  UNL     1      30.102  64.818   6.079  1.00  0.00    -0.032 N 
ATOM     17  H13 UNL     1      29.312  64.180   5.983  1.00  0.00     0.279 HD
ATOM     18  H12 UNL     1      30.149  65.107   5.102  1.00  0.00     0.279 HD
ATOM     19  H11 UNL     1      30.952  64.362   6.409  1.00  0.00     0.279 HD
ENDBRANCH   3  16
TORSDOF 1
ENDMDL
MODEL 2
REMARK VINA RESULT: -6.054684454      1.919      3.637
REMARK  1 active torsions:
REMARK  status: ('A' for Active; 'I' for Inactive)
REMARK    1  A    between atoms: C3_3  and  N1_4 
ROOT
HETATM    1  C1  UNL     1      26.192  65.201   9.187  1.00  0.00     0.017 C 
HETATM    2  C2  UNL     1      27.208  65.832   9.347  1.00  0.00    -0.046 C 
HETATM    3  C3  UNL     1      28.469  66.590   9.529  1.00  0.00     0.343 C 
HETATM    4  N2  UNL     1      28.939  66.963   8.245  1.00  0.00    -0.292 N 
ATOM      5  H2  UNL     1      28.177  67.173   7.600  1.00  0.00     0.168 HD
HETATM    6  C4  UNL     1      30.215  67.114   7.640  1.00  0.00     0.327 C 
HETATM    7  O1  UNL     1      30.240  67.688   6.534  1.00  0.00    -0.247 OA
HETATM    8  N3  UNL     1      31.445  66.681   8.166  1.00  0.00    -0.261 N 
ATOM      9  H3  UNL     1      32.267  66.894   7.601  1.00  0.00     0.175 HD
HETATM   10  C5  UNL     1      31.692  65.987   9.380  1.00  0.00     0.330 C 
HETATM   11  O2  UNL     1      32.886  65.702   9.642  1.00  0.00    -0.246 OA
HETATM   12  N4  UNL     1      30.771  65.555  10.365  1.00  0.00    -0.274 N 
ATOM     13  H4  UNL     1      31.148  65.052  11.169  1.00  0.00     0.173 HD
HETATM   14  C6  UNL     1      29.367  65.764  10.326  1.00  0.00     0.295 C 
HETATM   15  O3  UNL     1      28.759  65.059  11.194  1.00  0.00    -0.267 OA
ENDROOT
BRANCH   3  16
HETATM   16  N1  UNL     1      28.118  67.803  10.256  1.00  0.00    -0.032 N 
ATOM     17  H13 UNL     1      27.504  67.635  11.053  1.00  0.00     0.279 HD
ATOM     18  H12 UNL     1      28.897  68.201  10.780  1.00  0.00     0.279 HD
ATOM     19  H11 UNL     1      27.722  68.445   9.569  1.00  0.00     0.279 HD
ENDBRANCH   3  16
TORSDOF 1
ENDMDL
MODEL 3
REMARK VINA RESULT: -5.968555920      2.270      4.383
REMARK  1 active torsions:
REMARK  status: ('A' for Active; 'I' for Inactive)
REMARK    1  A    between atoms: C3_3  and  N1_4 
ROOT
HETATM    1  C1  UNL     1      28.595  68.321  12.292  1.00  0.00     0.017 C 
HETATM    2  C2  UNL     1      28.939  67.428  11.557  1.00  0.00    -0.046 C 
HETATM    3  C3  UNL     1      29.364  66.348  10.634  1.00  0.00     0.343 C 
HETATM    4  N2  UNL     1      30.671  66.657  10.181  1.00  0.00    -0.292 N 
ATOM      5  H2  UNL     1      31.232  67.116  10.899  1.00  0.00     0.168 HD
HETATM    6  C4  UNL     1      31.387  66.482   8.967  1.00  0.00     0.327 C 
HETATM    7  O1  UNL     1      32.617  66.680   9.015  1.00  0.00    -0.247 OA
HETATM    8  N3  UNL     1      30.846  66.110   7.724  1.00  0.00    -0.261 N 
ATOM      9  H3  UNL     1      31.516  66.011   6.961  1.00  0.00     0.175 HD
HETATM   10  C5  UNL     1      29.490  65.853   7.391  1.00  0.00     0.330 C 
HETATM   11  O2  UNL     1      29.243  65.533   6.203  1.00  0.00    -0.246 OA
HETATM   12  N4  UNL     1      28.342  65.906   8.220  1.00  0.00    -0.274 N 
ATOM     13  H4  UNL     1      27.442  65.700   7.786  1.00  0.00     0.173 HD
HETATM   14  C6  UNL     1      28.341  66.222   9.604  1.00  0.00     0.295 C 
HETATM   15  O3  UNL     1      27.166  66.446  10.038  1.00  0.00    -0.267 OA
ENDROOT
BRANCH   3  16
HETATM   16  N1  UNL     1      29.435  65.130  11.431  1.00  0.00    -0.032 N 
ATOM     17  H13 UNL     1      29.611  65.303  12.420  1.00  0.00     0.279 HD
ATOM     18  H12 UNL     1      28.533  64.668  11.543  1.00  0.00     0.279 HD
ATOM     19  H11 UNL     1      30.141  64.540  10.992  1.00  0.00     0.279 HD
ENDBRANCH   3  16
TORSDOF 1
ENDMDL
MODEL 4
REMARK VINA RESULT: -5.728360999      2.899      4.363
REMARK  1 active torsions:
REMARK  status: ('A' for Active; 'I' for Inactive)
REMARK    1  A    between atoms: C3_3  and  N1_4 
ROOT
HETATM    1  C1  UNL     1      24.345  64.431   8.177  1.00  0.00     0.017 C 
HETATM    2  C2  UNL     1      25.291  65.120   8.470  1.00  0.00    -0.046 C 
HETATM    3  C3  UNL     1      26.470  65.949   8.819  1.00  0.00     0.343 C 
HETATM    4  N2  UNL     1      27.171  66.231   7.620  1.00  0.00    -0.292 N 
ATOM      5  H2  UNL     1      26.544  66.349   6.823  1.00  0.00     0.168 HD
HETATM    6  C4  UNL     1      28.536  66.389   7.260  1.00  0.00     0.327 C 
HETATM    7  O1  UNL     1      28.760  66.865   6.131  1.00  0.00    -0.247 OA
HETATM    8  N3  UNL     1      29.651  66.060   8.051  1.00  0.00    -0.261 N 
ATOM      9  H3  UNL     1      30.561  66.262   7.637  1.00  0.00     0.175 HD
HETATM   10  C5  UNL     1      29.676  65.485   9.349  1.00  0.00     0.330 C 
HETATM   11  O2  UNL     1      30.803  65.280   9.862  1.00  0.00    -0.246 OA
HETATM   12  N4  UNL     1      28.593  65.098  10.175  1.00  0.00    -0.274 N 
ATOM     13  H4  UNL     1      28.819  64.684  11.080  1.00  0.00     0.173 HD
HETATM   14  C6  UNL     1      27.218  65.237   9.847  1.00  0.00     0.295 C 
HETATM   15  O3  UNL     1      26.472  64.583  10.644  1.00  0.00    -0.267 OA
ENDROOT
BRANCH   3  16
HETATM   16  N1  UNL     1      25.948  67.203   9.348  1.00  0.00    -0.032 N 
ATOM     17  H13 UNL     1      26.678  67.857   9.633  1.00  0.00     0.279 HD
ATOM     18  H12 UNL     1      25.520  67.795   8.636  1.00  0.00     0.279 HD
ATOM     19  H11 UNL     1      25.311  66.953  10.104  1.00  0.00     0.279 HD
ENDBRANCH   3  16
TORSDOF 1
ENDMDL
MODEL 5
REMARK VINA RESULT: -5.636242719      6.367      7.486
REMARK  1 active torsions:
REMARK  status: ('A' for Active; 'I' for Inactive)
REMARK    1  A    between atoms: C3_3  and  N1_4 
ROOT
HETATM    1  C1  UNL     1      28.659  64.009  12.855  1.00  0.00     0.017 C 
HETATM    2  C2  UNL     1      27.486  63.927  12.585  1.00  0.00    -0.046 C 
HETATM    3  C3  UNL     1      26.049  63.836  12.229  1.00  0.00     0.343 C 
HETATM    4  N2  UNL     1      25.937  62.986  11.100  1.00  0.00    -0.292 N 
ATOM      5  H2  UNL     1      26.621  62.229  11.115  1.00  0.00     0.168 HD
HETATM    6  C4  UNL     1      25.100  62.934   9.954  1.00  0.00     0.327 C 
HETATM    7  O1  UNL     1      25.150  61.889   9.278  1.00  0.00    -0.247 OA
HETATM    8  N3  UNL     1      24.228  63.943   9.510  1.00  0.00    -0.261 N 
ATOM      9  H3  UNL     1      23.686  63.724   8.674  1.00  0.00     0.175 HD
HETATM   10  C5  UNL     1      24.002  65.227  10.074  1.00  0.00     0.330 C 
HETATM   11  O2  UNL     1      23.167  65.966   9.498  1.00  0.00    -0.246 OA
HETATM   12  N4  UNL     1      24.593  65.817  11.218  1.00  0.00    -0.274 N 
ATOM     13  H4  UNL     1      24.306  66.767  11.456  1.00  0.00     0.173 HD
HETATM   14  C6  UNL     1      25.551  65.195  12.061  1.00  0.00     0.295 C 
HETATM   15  O3  UNL     1      26.097  66.028  12.853  1.00  0.00    -0.267 OA
ENDROOT
BRANCH   3  16
HETATM   16  N1  UNL     1      25.388  63.188  13.355  1.00  0.00    -0.032 N 
ATOM     17  H13 UNL     1      25.491  62.173  13.356  1.00  0.00     0.279 HD
ATOM     18  H12 UNL     1      25.847  63.362  14.249  1.00  0.00     0.279 HD
ATOM     19  H11 UNL     1      24.415  63.496  13.332  1.00  0.00     0.279 HD
ENDBRANCH   3  16
TORSDOF 1
ENDMDL
