MODEL 1
REMARK VINA RESULT: -6.026062934      0.000      0.000
REMARK  1 active torsions:
REMARK  status: ('A' for Active; 'I' for Inactive)
REMARK    1  A    between atoms: C2_2  and  N1_3 
REMARK       I    between atoms: N1_3  and  C3_5 
ROOT
HETATM    1  C1  UNL     1      29.139  65.650   6.436  1.00  0.00     0.074 C 
HETATM    2  C2  UNL     1      29.836  66.283   7.616  1.00  0.00     0.189 C 
HETATM    3  N4  UNL     1      30.422  65.316   8.508  1.00  0.00    -0.308 N 
ATOM      4  H4  UNL     1      30.055  64.395   8.749  1.00  0.00     0.167 HD
HETATM    5  C4  UNL     1      31.621  65.919   8.983  1.00  0.00     0.325 C 
HETATM    6  O1  UNL     1      32.269  65.577  10.026  1.00  0.00    -0.247 OA
HETATM    7  N5  UNL     1      32.003  66.978   8.118  1.00  0.00    -0.276 N 
ATOM      8  H5  UNL     1      32.818  67.586   8.208  1.00  0.00     0.173 HD
HETATM    9  C5  UNL     1      31.012  67.011   7.101  1.00  0.00     0.274 C 
HETATM   10  O2  UNL     1      31.086  67.549   5.966  1.00  0.00    -0.268 OA
ENDROOT
BRANCH   2  11
HETATM   11  N1  UNL     1      28.991  67.163   8.356  1.00  0.00    -0.331 N 
HETATM   12  C3  UNL     1      28.204  66.666   9.448  1.00  0.00     0.184 C 
HETATM   13  N2  UNL     1      27.977  67.350  10.512  1.00  0.00    -0.374 N 
HETATM   14  N3  UNL     1      27.650  65.374   9.360  1.00  0.00    -0.064 NA
ATOM     15  H22 UNL     1      28.378  68.285  10.575  1.00  0.00     0.158 HD
ATOM     16  H21 UNL     1      27.417  66.996  11.288  1.00  0.00     0.158 HD
ATOM     17  H1  UNL     1      28.947  68.151   8.109  1.00  0.00     0.165 HD
ENDBRANCH   2  11
TORSDOF 1
ENDMDL
MODEL 2
REMARK VINA RESULT: -5.581645412      1.172      1.200
REMARK  1 active torsions:
REMARK  status: ('A' for Active; 'I' for Inactive)
REMARK    1  A    between atoms: C2_2  and  N1_3 
REMARK       I    between atoms: N1_3  and  C3_5 
ROOT
HETATM    1  C1  UNL     1      29.145  65.741   5.806  1.00  0.00     0.074 C 
HETATM    2  C2  UNL     1      29.384  66.214   7.219  1.00  0.00     0.189 C 
HETATM    3  N4  UNL     1      29.711  65.141   8.123  1.00  0.00    -0.308 N 
ATOM      4  H4  UNL     1      29.344  64.189   8.112  1.00  0.00     0.167 HD
HETATM    5  C4  UNL     1      30.654  65.693   9.036  1.00  0.00     0.325 C 
HETATM    6  O1  UNL     1      30.953  65.219  10.182  1.00  0.00    -0.247 OA
HETATM    7  N5  UNL     1      31.228  66.868   8.486  1.00  0.00    -0.276 N 
ATOM      8  H5  UNL     1      31.930  67.472   8.914  1.00  0.00     0.173 HD
HETATM    9  C5  UNL     1      30.616  67.027   7.214  1.00  0.00     0.274 C 
HETATM   10  O2  UNL     1      31.018  67.721   6.244  1.00  0.00    -0.268 OA
ENDROOT
BRANCH   2  11
HETATM   11  N1  UNL     1      28.293  66.966   7.748  1.00  0.00    -0.331 N 
HETATM   12  C3  UNL     1      27.127  66.298   8.250  1.00  0.00     0.184 C 
HETATM   13  N2  UNL     1      26.462  66.724   9.265  1.00  0.00    -0.374 N 
HETATM   14  N3  UNL     1      26.681  65.125   7.611  1.00  0.00    -0.064 NA
ATOM     15  H22 UNL     1      26.785  67.573   9.728  1.00  0.00     0.158 HD
ATOM     16  H21 UNL     1      25.633  66.248   9.622  1.00  0.00     0.158 HD
ATOM     17  H1  UNL     1      28.343  67.985   7.770  1.00  0.00     0.165 HD
ENDBRANCH   2  11
TORSDOF 1
ENDMDL
MODEL 3
REMARK VINA RESULT: -5.249174715      2.557      3.983
REMARK  1 active torsions:
REMARK  status: ('A' for Active; 'I' for Inactive)
REMARK    1  A    between atoms: C2_2  and  N1_3 
REMARK       I    between atoms: N1_3  and  C3_5 
ROOT
HETATM    1  C1  UNL     1      28.263  66.179   7.434  1.00  0.00     0.074 C 
HETATM    2  C2  UNL     1      28.650  66.133   8.892  1.00  0.00     0.189 C 
HETATM    3  N4  UNL     1      28.855  67.441   9.460  1.00  0.00    -0.308 N 
ATOM      4  H4  UNL     1      29.254  68.260   9.000  1.00  0.00     0.167 HD
HETATM    5  C4  UNL     1      28.385  67.348  10.800  1.00  0.00     0.325 C 
HETATM    6  O1  UNL     1      28.676  68.144  11.753  1.00  0.00    -0.247 OA
HETATM    7  N5  UNL     1      27.531  66.222  10.935  1.00  0.00    -0.276 N 
ATOM      8  H5  UNL     1      27.051  65.908  11.778  1.00  0.00     0.173 HD
HETATM    9  C5  UNL     1      27.486  65.626   9.646  1.00  0.00     0.274 C 
HETATM   10  O2  UNL     1      26.635  64.815   9.197  1.00  0.00    -0.268 OA
ENDROOT
BRANCH   2  11
HETATM   11  N1  UNL     1      29.796  65.322   9.140  1.00  0.00    -0.331 N 
HETATM   12  C3  UNL     1      31.112  65.892   9.100  1.00  0.00     0.184 C 
HETATM   13  N2  UNL     1      32.058  65.520   9.888  1.00  0.00    -0.374 N 
HETATM   14  N3  UNL     1      31.392  66.904   8.161  1.00  0.00    -0.064 NA
ATOM     15  H22 UNL     1      31.855  64.787  10.567  1.00  0.00     0.158 HD
ATOM     16  H21 UNL     1      32.993  65.926   9.859  1.00  0.00     0.158 HD
ATOM     17  H1  UNL     1      29.680  64.330   9.347  1.00  0.00     0.165 HD
ENDBRANCH   2  11
TORSDOF 1
ENDMDL
MODEL 4
REMARK VINA RESULT: -5.017014618      3.472      4.931
REMARK  1 active torsions:
REMARK  status: ('A' for Active; 'I' for Inactive)
REMARK    1  A    between atoms: C2_2  and  N1_3 
REMARK       I    between atoms: N1_3  and  C3_5 
ROOT
HETATM    1  C1  UNL     1      27.042  65.202   9.809  1.00  0.00     0.074 C 
HETATM    2  C2  UNL     1      28.130  64.805  10.778  1.00  0.00     0.189 C 
HETATM    3  N4  UNL     1      28.305  65.755  11.847  1.00  0.00    -0.308 N 
ATOM      4  H4  UNL     1      28.213  66.770  11.793  1.00  0.00     0.167 HD
HETATM    5  C4  UNL     1      28.634  64.977  12.992  1.00  0.00     0.325 C 
HETATM    6  O1  UNL     1      29.192  65.408  14.055  1.00  0.00    -0.247 OA
HETATM    7  N5  UNL     1      28.248  63.627  12.786  1.00  0.00    -0.276 N 
ATOM      8  H5  UNL     1      28.360  62.846  13.433  1.00  0.00     0.173 HD
HETATM    9  C5  UNL     1      27.674  63.593  11.487  1.00  0.00     0.274 C 
HETATM   10  O2  UNL     1      26.918  62.714  10.998  1.00  0.00    -0.268 OA
ENDROOT
BRANCH   2  11
HETATM   11  N1  UNL     1      29.385  64.568  10.142  1.00  0.00    -0.331 N 
HETATM   12  C3  UNL     1      30.252  65.663   9.816  1.00  0.00     0.184 C 
HETATM   13  N2  UNL     1      31.533  65.584   9.887  1.00  0.00    -0.374 N 
HETATM   14  N3  UNL     1      29.686  66.884   9.398  1.00  0.00    -0.064 NA
ATOM     15  H22 UNL     1      31.942  64.700  10.189  1.00  0.00     0.158 HD
ATOM     16  H21 UNL     1      32.149  66.363   9.655  1.00  0.00     0.158 HD
ATOM     17  H1  UNL     1      29.667  63.614   9.919  1.00  0.00     0.165 HD
ENDBRANCH   2  11
TORSDOF 1
ENDMDL
MODEL 5
REMARK VINA RESULT: -5.005280010      1.587      3.365
REMARK  1 active torsions:
REMARK  status: ('A' for Active; 'I' for Inactive)
REMARK    1  A    between atoms: C2_2  and  N1_3 
REMARK       I    between atoms: N1_3  and  C3_5 
ROOT
HETATM    1  C1  UNL     1      28.961  67.035  10.597  1.00  0.00     0.074 C 
HETATM    2  C2  UNL     1      28.755  66.217   9.345  1.00  0.00     0.189 C 
HETATM    3  N4  UNL     1      28.547  67.028   8.172  1.00  0.00    -0.308 N 
ATOM      4  H4  UNL     1      28.052  67.919   8.116  1.00  0.00     0.167 HD
HETATM    5  C4  UNL     1      29.179  66.323   7.110  1.00  0.00     0.325 C 
HETATM    6  O1  UNL     1      28.962  66.492   5.865  1.00  0.00    -0.247 OA
HETATM    7  N5  UNL     1      30.104  65.384   7.637  1.00  0.00    -0.276 N 
ATOM      8  H5  UNL     1      30.698  64.741   7.113  1.00  0.00     0.173 HD
HETATM    9  C5  UNL     1      30.026  65.529   9.048  1.00  0.00     0.274 C 
HETATM   10  O2  UNL     1      30.861  65.153   9.911  1.00  0.00    -0.268 OA
ENDROOT
BRANCH   2  11
HETATM   11  N1  UNL     1      27.693  65.272   9.463  1.00  0.00    -0.331 N 
HETATM   12  C3  UNL     1      26.340  65.662   9.186  1.00  0.00     0.184 C 
HETATM   13  N2  UNL     1      25.488  64.876   8.630  1.00  0.00    -0.374 N 
HETATM   14  N3  UNL     1      25.916  66.959   9.534  1.00  0.00    -0.064 NA
ATOM     15  H22 UNL     1      25.795  63.937   8.379  1.00  0.00     0.158 HD
ATOM     16  H21 UNL     1      24.526  65.154   8.433  1.00  0.00     0.158 HD
ATOM     17  H1  UNL     1      27.896  64.314   9.747  1.00  0.00     0.165 HD
ENDBRANCH   2  11
TORSDOF 1
ENDMDL
