MODEL 1
REMARK VINA RESULT: -5.984920884      0.000      0.000
REMARK  2 active torsions:
REMARK  status: ('A' for Active; 'I' for Inactive)
REMARK    1  A    between atoms: C1_2  and  N2_4 
REMARK    2  A    between atoms: N2_4  and  C2_6 
ROOT
HETATM    1  C2  UNL     1      30.556  66.411   8.328  1.00  0.00     0.191 A 
HETATM    2  N3  UNL     1      31.466  66.056   9.253  1.00  0.00    -0.280 N 
ATOM      3  H3  UNL     1      31.159  65.561  10.090  1.00  0.00     0.188 HD
HETATM    4  N4  UNL     1      32.762  66.338   9.100  1.00  0.00    -0.294 N 
ATOM      5  H4  UNL     1      33.443  66.064   9.808  1.00  0.00     0.187 HD
HETATM    6  C3  UNL     1      33.147  66.992   7.990  1.00  0.00     0.200 A 
HETATM    7  N5  UNL     1      32.276  67.371   7.032  1.00  0.00    -0.315 N 
ATOM      8  H5  UNL     1      32.602  67.865   6.201  1.00  0.00     0.170 HD
HETATM    9  C4  UNL     1      30.959  67.082   7.193  1.00  0.00     0.291 A 
HETATM   10  O1  UNL     1      30.094  67.394   6.358  1.00  0.00    -0.264 OA
ENDROOT
BRANCH   1  11
HETATM   11  N2  UNL     1      29.307  66.135   8.485  1.00  0.00    -0.316 N 
ATOM     12  H2  UNL     1      28.670  66.230   7.694  1.00  0.00     0.169 HD
BRANCH  11  13
HETATM   13  C1  UNL     1      28.801  65.701   9.741  1.00  0.00     0.186 C 
HETATM   14  N1  UNL     1      28.995  64.382  10.234  1.00  0.00    -0.070 NA
HETATM   15  S1  UNL     1      27.970  66.793  10.622  1.00  0.00    -0.044 SA
ENDBRANCH  11  13
ENDBRANCH   1  11
TORSDOF 2
ENDMDL
MODEL 2
REMARK VINA RESULT: -5.931157561      1.735      1.923
REMARK  2 active torsions:
REMARK  status: ('A' for Active; 'I' for Inactive)
REMARK    1  A    between atoms: C1_2  and  N2_4 
REMARK    2  A    between atoms: N2_4  and  C2_6 
ROOT
HETATM    1  C2  UNL     1      30.424  66.950   7.829  1.00  0.00     0.191 A 
HETATM    2  N3  UNL     1      30.675  66.512   9.076  1.00  0.00    -0.280 N 
ATOM      3  H3  UNL     1      29.894  66.303   9.698  1.00  0.00     0.188 HD
HETATM    4  N4  UNL     1      31.924  66.342   9.517  1.00  0.00    -0.294 N 
ATOM      5  H4  UNL     1      32.102  66.010  10.465  1.00  0.00     0.187 HD
HETATM    6  C3  UNL     1      32.940  66.622   8.683  1.00  0.00     0.200 A 
HETATM    7  N5  UNL     1      32.745  67.064   7.424  1.00  0.00    -0.315 N 
ATOM      8  H5  UNL     1      33.538  67.266   6.816  1.00  0.00     0.170 HD
HETATM    9  C4  UNL     1      31.472  67.235   6.980  1.00  0.00     0.291 A 
HETATM   10  O1  UNL     1      31.207  67.637   5.835  1.00  0.00    -0.264 OA
ENDROOT
BRANCH   1  11
HETATM   11  N2  UNL     1      29.216  67.111   7.411  1.00  0.00    -0.316 N 
ATOM     12  H2  UNL     1      28.846  68.054   7.300  1.00  0.00     0.169 HD
BRANCH  11  13
HETATM   13  C1  UNL     1      28.390  65.995   7.104  1.00  0.00     0.186 C 
HETATM   14  N1  UNL     1      28.832  64.907   6.303  1.00  0.00    -0.070 NA
HETATM   15  S1  UNL     1      26.877  66.003   7.715  1.00  0.00    -0.044 SA
ENDBRANCH  11  13
ENDBRANCH   1  11
TORSDOF 2
ENDMDL
MODEL 3
REMARK VINA RESULT: -5.786670262      1.025      1.080
REMARK  2 active torsions:
REMARK  status: ('A' for Active; 'I' for Inactive)
REMARK    1  A    between atoms: C1_2  and  N2_4 
REMARK    2  A    between atoms: N2_4  and  C2_6 
ROOT
HETATM    1  C2  UNL     1      30.485  65.823   9.225  1.00  0.00     0.191 A 
HETATM    2  N3  UNL     1      31.579  65.504   9.941  1.00  0.00    -0.280 N 
ATOM      3  H3  UNL     1      31.484  64.888  10.748  1.00  0.00     0.188 HD
HETATM    4  N4  UNL     1      32.785  65.977   9.619  1.00  0.00    -0.294 N 
ATOM      5  H4  UNL     1      33.607  65.729  10.169  1.00  0.00     0.187 HD
HETATM    6  C3  UNL     1      32.890  66.789   8.552  1.00  0.00     0.200 A 
HETATM    7  N5  UNL     1      31.826  67.139   7.800  1.00  0.00    -0.315 N 
ATOM      8  H5  UNL     1      31.940  67.756   6.996  1.00  0.00     0.170 HD
HETATM    9  C4  UNL     1      30.601  66.655   8.133  1.00  0.00     0.291 A 
HETATM   10  O1  UNL     1      29.573  66.930   7.492  1.00  0.00    -0.264 OA
ENDROOT
BRANCH   1  11
HETATM   11  N2  UNL     1      29.325  65.362   9.544  1.00  0.00    -0.316 N 
ATOM     12  H2  UNL     1      28.749  64.917   8.830  1.00  0.00     0.169 HD
BRANCH  11  13
HETATM   13  C1  UNL     1      28.833  65.464  10.874  1.00  0.00     0.186 C 
HETATM   14  N1  UNL     1      29.183  64.541  11.897  1.00  0.00    -0.070 NA
HETATM   15  S1  UNL     1      27.828  66.707  11.199  1.00  0.00    -0.044 SA
ENDBRANCH  11  13
ENDBRANCH   1  11
TORSDOF 2
ENDMDL
MODEL 4
REMARK VINA RESULT: -5.777175459      2.099      2.576
REMARK  2 active torsions:
REMARK  status: ('A' for Active; 'I' for Inactive)
REMARK    1  A    between atoms: C1_2  and  N2_4 
REMARK    2  A    between atoms: N2_4  and  C2_6 
ROOT
HETATM    1  C2  UNL     1      30.272  67.010   7.909  1.00  0.00     0.191 A 
HETATM    2  N3  UNL     1      30.950  67.417   6.820  1.00  0.00    -0.280 N 
ATOM      3  H3  UNL     1      30.433  67.755   6.008  1.00  0.00     0.188 HD
HETATM    4  N4  UNL     1      32.284  67.388   6.779  1.00  0.00    -0.294 N 
ATOM      5  H4  UNL     1      32.788  67.699   5.948  1.00  0.00     0.187 HD
HETATM    6  C3  UNL     1      32.948  66.939   7.859  1.00  0.00     0.200 A 
HETATM    7  N5  UNL     1      32.318  66.520   8.975  1.00  0.00    -0.315 N 
ATOM      8  H5  UNL     1      32.851  66.186   9.778  1.00  0.00     0.170 HD
HETATM    9  C4  UNL     1      30.960  66.551   9.011  1.00  0.00     0.291 A 
HETATM   10  O1  UNL     1      30.305  66.183  10.001  1.00  0.00    -0.264 OA
ENDROOT
BRANCH   1  11
HETATM   11  N2  UNL     1      28.984  67.041   7.940  1.00  0.00    -0.316 N 
ATOM     12  H2  UNL     1      28.513  67.794   8.440  1.00  0.00     0.169 HD
BRANCH  11  13
HETATM   13  C1  UNL     1      28.209  66.043   7.287  1.00  0.00     0.186 C 
HETATM   14  N1  UNL     1      28.760  65.134   6.344  1.00  0.00    -0.070 NA
HETATM   15  S1  UNL     1      26.624  65.973   7.666  1.00  0.00    -0.044 SA
ENDBRANCH  11  13
ENDBRANCH   1  11
TORSDOF 2
ENDMDL
MODEL 5
REMARK VINA RESULT: -5.758103302      1.638      2.216
REMARK  2 active torsions:
REMARK  status: ('A' for Active; 'I' for Inactive)
REMARK    1  A    between atoms: C1_2  and  N2_4 
REMARK    2  A    between atoms: N2_4  and  C2_6 
ROOT
HETATM    1  C2  UNL     1      30.842  66.786   8.696  1.00  0.00     0.191 A 
HETATM    2  N3  UNL     1      29.778  67.072   7.924  1.00  0.00    -0.280 N 
ATOM      3  H3  UNL     1      28.842  67.024   8.326  1.00  0.00     0.188 HD
HETATM    4  N4  UNL     1      29.920  67.417   6.642  1.00  0.00    -0.294 N 
ATOM      5  H4  UNL     1      29.106  67.632   6.066  1.00  0.00     0.187 HD
HETATM    6  C3  UNL     1      31.162  67.475   6.129  1.00  0.00     0.200 A 
HETATM    7  N5  UNL     1      32.262  67.199   6.859  1.00  0.00    -0.315 N 
ATOM      8  H5  UNL     1      33.190  67.253   6.439  1.00  0.00     0.170 HD
HETATM    9  C4  UNL     1      32.111  66.847   8.162  1.00  0.00     0.291 A 
HETATM   10  O1  UNL     1      33.072  66.578   8.902  1.00  0.00    -0.264 OA
ENDROOT
BRANCH   1  11
HETATM   11  N2  UNL     1      30.695  66.453   9.932  1.00  0.00    -0.316 N 
ATOM     12  H2  UNL     1      31.393  66.746  10.616  1.00  0.00     0.169 HD
BRANCH  11  13
HETATM   13  C1  UNL     1      29.578  65.685  10.359  1.00  0.00     0.186 C 
HETATM   14  N1  UNL     1      29.286  64.395   9.839  1.00  0.00    -0.070 NA
HETATM   15  S1  UNL     1      28.614  66.349  11.496  1.00  0.00    -0.044 SA
ENDBRANCH  11  13
ENDBRANCH   1  11
TORSDOF 2
ENDMDL
