MODEL 1
REMARK VINA RESULT: -6.948726044      0.000      0.000
REMARK  3 active torsions:
REMARK  status: ('A' for Active; 'I' for Inactive)
REMARK    1  A    between atoms: N1_1  and  N2_4 
REMARK       I    between atoms: N2_4  and  C1_5 
REMARK    2  A    between atoms: C1_5  and  C2_7 
REMARK       I    between atoms: C2_7  and  N3_9 
REMARK    3  A    between atoms: N3_9  and  C3_11 
ROOT
HETATM    1  C2  UNL     1      30.143  66.711   6.729  1.00  0.00     0.344 C 
HETATM    2  O2  UNL     1      29.200  67.363   6.215  1.00  0.00    -0.260 OA
HETATM    3  N3  UNL     1      29.903  65.491   7.394  1.00  0.00    -0.149 N 
ATOM      4  H3  UNL     1      29.838  64.615   6.875  1.00  0.00     0.188 HD
ENDROOT
BRANCH   3   5
HETATM    5  C3  UNL     1      29.769  65.513   8.675  1.00  0.00     0.700 A 
HETATM    6  N4  UNL     1      28.913  66.361   9.310  1.00  0.00    -0.185 N 
HETATM    7  C4  UNL     1      28.992  66.159  10.635  1.00  0.00     0.215 A 
ATOM      8  H4  UNL     1      28.307  67.042   8.852  1.00  0.00     0.185 HD
HETATM    9  N5  UNL     1      29.908  65.179  10.790  1.00  0.00    -0.281 N 
HETATM   10  N6  UNL     1      30.383  64.781   9.620  1.00  0.00    -0.131 N 
ATOM     11  H5  UNL     1      30.195  64.796  11.691  1.00  0.00     0.188 HD
ATOM     12  H6  UNL     1      31.083  64.056   9.465  1.00  0.00     0.205 HD
ENDBRANCH   3   5
BRANCH   1  13
HETATM   13  C1  UNL     1      31.533  67.283   6.608  1.00  0.00     0.403 C 
HETATM   14  N2  UNL     1      32.486  66.993   7.505  1.00  0.00    -0.284 NA
HETATM   15  O1  UNL     1      31.616  68.035   5.569  1.00  0.00    -0.244 OA
BRANCH  14  16
HETATM   16  N1  UNL     1      33.436  66.704   8.401  1.00  0.00    -0.276 N 
ATOM     17  H12 UNL     1      32.683  66.899   7.742  1.00  0.00     0.191 HD
ATOM     18  H11 UNL     1      34.161  66.484   9.084  1.00  0.00     0.191 HD
ENDBRANCH  14  16
ENDBRANCH   1  13
TORSDOF 3
ENDMDL
MODEL 2
REMARK VINA RESULT: -6.755598496      2.418      4.521
REMARK  3 active torsions:
REMARK  status: ('A' for Active; 'I' for Inactive)
REMARK    1  A    between atoms: N1_1  and  N2_4 
REMARK       I    between atoms: N2_4  and  C1_5 
REMARK    2  A    between atoms: C1_5  and  C2_7 
REMARK       I    between atoms: C2_7  and  N3_9 
REMARK    3  A    between atoms: N3_9  and  C3_11 
ROOT
HETATM    1  C2  UNL     1      30.024  66.531  10.250  1.00  0.00     0.344 C 
HETATM    2  O2  UNL     1      29.150  67.419  10.413  1.00  0.00    -0.260 OA
HETATM    3  N3  UNL     1      31.324  66.862   9.819  1.00  0.00    -0.149 N 
ATOM      4  H3  UNL     1      32.035  67.165  10.484  1.00  0.00     0.188 HD
ENDROOT
BRANCH   3   5
HETATM    5  C3  UNL     1      31.590  66.771   8.561  1.00  0.00     0.700 A 
HETATM    6  N4  UNL     1      30.621  66.770   7.603  1.00  0.00    -0.185 N 
HETATM    7  C4  UNL     1      31.194  66.660   6.395  1.00  0.00     0.215 A 
ATOM      8  H4  UNL     1      29.618  66.840   7.777  1.00  0.00     0.185 HD
HETATM    9  N5  UNL     1      32.521  66.595   6.635  1.00  0.00    -0.281 N 
HETATM   10  N6  UNL     1      32.773  66.661   7.934  1.00  0.00    -0.131 N 
ATOM     11  H5  UNL     1      33.235  66.507   5.912  1.00  0.00     0.188 HD
ATOM     12  H6  UNL     1      33.692  66.633   8.375  1.00  0.00     0.205 HD
ENDBRANCH   3   5
BRANCH   1  13
HETATM   13  C1  UNL     1      29.626  65.103  10.530  1.00  0.00     0.403 C 
HETATM   14  N2  UNL     1      29.493  64.650  11.784  1.00  0.00    -0.284 NA
HETATM   15  O1  UNL     1      29.456  64.465   9.428  1.00  0.00    -0.244 OA
BRANCH  14  16
HETATM   16  N1  UNL     1      29.361  64.199  13.037  1.00  0.00    -0.276 N 
ATOM     17  H12 UNL     1      29.497  64.567  12.096  1.00  0.00     0.191 HD
ATOM     18  H11 UNL     1      29.259  63.855  13.991  1.00  0.00     0.191 HD
ENDBRANCH  14  16
ENDBRANCH   1  13
TORSDOF 3
ENDMDL
MODEL 3
REMARK VINA RESULT: -6.739876815      2.120      4.171
REMARK  3 active torsions:
REMARK  status: ('A' for Active; 'I' for Inactive)
REMARK    1  A    between atoms: N1_1  and  N2_4 
REMARK       I    between atoms: N2_4  and  C1_5 
REMARK    2  A    between atoms: C1_5  and  C2_7 
REMARK       I    between atoms: C2_7  and  N3_9 
REMARK    3  A    between atoms: N3_9  and  C3_11 
ROOT
HETATM    1  C2  UNL     1      29.192  65.940   7.204  1.00  0.00     0.344 C 
HETATM    2  O2  UNL     1      29.071  65.109   6.269  1.00  0.00    -0.260 OA
HETATM    3  N3  UNL     1      30.096  67.017   7.105  1.00  0.00    -0.149 N 
ATOM      4  H3  UNL     1      29.831  67.881   6.632  1.00  0.00     0.188 HD
ENDROOT
BRANCH   3   5
HETATM    5  C3  UNL     1      31.265  66.881   7.629  1.00  0.00     0.700 A 
HETATM    6  N4  UNL     1      31.451  66.601   8.950  1.00  0.00    -0.185 N 
HETATM    7  C4  UNL     1      32.766  66.522   9.204  1.00  0.00     0.215 A 
ATOM      8  H4  UNL     1      30.707  66.473   9.637  1.00  0.00     0.185 HD
HETATM    9  N5  UNL     1      33.371  66.757   8.020  1.00  0.00    -0.281 N 
HETATM   10  N6  UNL     1      32.481  66.975   7.064  1.00  0.00    -0.131 N 
ATOM     11  H5  UNL     1      34.382  66.766   7.881  1.00  0.00     0.188 HD
ATOM     12  H6  UNL     1      32.679  67.176   6.085  1.00  0.00     0.205 HD
ENDBRANCH   3   5
BRANCH   1  13
HETATM   13  C1  UNL     1      28.338  65.737   8.431  1.00  0.00     0.403 C 
HETATM   14  N2  UNL     1      27.115  66.278   8.525  1.00  0.00    -0.284 NA
HETATM   15  O1  UNL     1      28.959  65.012   9.290  1.00  0.00    -0.244 OA
BRANCH  14  16
HETATM   16  N1  UNL     1      25.894  66.818   8.617  1.00  0.00    -0.276 N 
ATOM     17  H12 UNL     1      26.809  66.378   8.515  1.00  0.00     0.191 HD
ATOM     18  H11 UNL     1      24.964  67.230   8.689  1.00  0.00     0.191 HD
ENDBRANCH  14  16
ENDBRANCH   1  13
TORSDOF 3
ENDMDL
MODEL 4
REMARK VINA RESULT: -6.733148251      1.266      1.683
REMARK  3 active torsions:
REMARK  status: ('A' for Active; 'I' for Inactive)
REMARK    1  A    between atoms: N1_1  and  N2_4 
REMARK       I    between atoms: N2_4  and  C1_5 
REMARK    2  A    between atoms: C1_5  and  C2_7 
REMARK       I    between atoms: C2_7  and  N3_9 
REMARK    3  A    between atoms: N3_9  and  C3_11 
ROOT
HETATM    1  C2  UNL     1      29.922  65.672   7.829  1.00  0.00     0.344 C 
HETATM    2  O2  UNL     1      28.924  65.396   7.118  1.00  0.00    -0.260 OA
HETATM    3  N3  UNL     1      30.191  64.954   9.012  1.00  0.00    -0.149 N 
ATOM      4  H3  UNL     1      30.699  64.071   8.984  1.00  0.00     0.188 HD
ENDROOT
BRANCH   3   5
HETATM    5  C3  UNL     1      29.777  65.446  10.130  1.00  0.00     0.700 A 
HETATM    6  N4  UNL     1      29.015  64.735  11.008  1.00  0.00    -0.185 N 
HETATM    7  C4  UNL     1      28.736  65.504  12.072  1.00  0.00     0.215 A 
ATOM      8  H4  UNL     1      28.706  63.772  10.877  1.00  0.00     0.185 HD
HETATM    9  N5  UNL     1      29.339  66.686  11.825  1.00  0.00    -0.281 N 
HETATM   10  N6  UNL     1      29.969  66.665  10.660  1.00  0.00    -0.131 N 
ATOM     11  H5  UNL     1      29.312  67.490  12.452  1.00  0.00     0.188 HD
ATOM     12  H6  UNL     1      30.498  67.430  10.243  1.00  0.00     0.205 HD
ENDBRANCH   3   5
BRANCH   1  13
HETATM   13  C1  UNL     1      30.815  66.798   7.370  1.00  0.00     0.403 C 
HETATM   14  N2  UNL     1      32.112  66.841   7.707  1.00  0.00    -0.284 NA
HETATM   15  O1  UNL     1      30.146  67.634   6.659  1.00  0.00    -0.244 OA
BRANCH  14  16
HETATM   16  N1  UNL     1      33.405  66.882   8.043  1.00  0.00    -0.276 N 
ATOM     17  H12 UNL     1      32.413  66.889   7.810  1.00  0.00     0.191 HD
ATOM     18  H11 UNL     1      34.392  66.912   8.299  1.00  0.00     0.191 HD
ENDBRANCH  14  16
ENDBRANCH   1  13
TORSDOF 3
ENDMDL
MODEL 5
REMARK VINA RESULT: -6.729071963      2.500      4.189
REMARK  3 active torsions:
REMARK  status: ('A' for Active; 'I' for Inactive)
REMARK    1  A    between atoms: N1_1  and  N2_4 
REMARK       I    between atoms: N2_4  and  C1_5 
REMARK    2  A    between atoms: C1_5  and  C2_7 
REMARK       I    between atoms: C2_7  and  N3_9 
REMARK    3  A    between atoms: N3_9  and  C3_11 
ROOT
HETATM    1  C2  UNL     1      29.269  66.453  10.038  1.00  0.00     0.344 C 
HETATM    2  O2  UNL     1      28.959  67.401  10.802  1.00  0.00    -0.260 OA
HETATM    3  N3  UNL     1      30.531  65.830  10.130  1.00  0.00    -0.149 N 
ATOM      4  H3  UNL     1      30.699  65.085  10.805  1.00  0.00     0.188 HD
ENDROOT
BRANCH   3   5
HETATM    5  C3  UNL     1      31.465  66.228   9.337  1.00  0.00     0.700 A 
HETATM    6  N4  UNL     1      31.214  66.693   8.081  1.00  0.00    -0.185 N 
HETATM    7  C4  UNL     1      32.374  67.028   7.494  1.00  0.00     0.215 A 
ATOM      8  H4  UNL     1      30.291  66.773   7.654  1.00  0.00     0.185 HD
HETATM    9  N5  UNL     1      33.327  66.759   8.412  1.00  0.00    -0.281 N 
HETATM   10  N6  UNL     1      32.794  66.278   9.525  1.00  0.00    -0.131 N 
ATOM     11  H5  UNL     1      34.325  66.908   8.267  1.00  0.00     0.188 HD
ATOM     12  H6  UNL     1      33.298  65.997  10.366  1.00  0.00     0.205 HD
ENDBRANCH   3   5
BRANCH   1  13
HETATM   13  C1  UNL     1      28.244  66.011   9.024  1.00  0.00     0.403 C 
HETATM   14  N2  UNL     1      28.227  66.520   7.783  1.00  0.00    -0.284 NA
HETATM   15  O1  UNL     1      27.460  65.132   9.537  1.00  0.00    -0.244 OA
BRANCH  14  16
HETATM   16  N1  UNL     1      28.212  67.028   6.546  1.00  0.00    -0.276 N 
ATOM     17  H12 UNL     1      28.247  66.677   7.503  1.00  0.00     0.191 HD
ATOM     18  H11 UNL     1      28.199  67.414   5.603  1.00  0.00     0.191 HD
ENDBRANCH  14  16
ENDBRANCH   1  13
TORSDOF 3
ENDMDL
