MODEL 1
REMARK VINA RESULT: -7.017169053      0.000      0.000
REMARK  0 active torsions:
REMARK  status: ('A' for Active; 'I' for Inactive)
ROOT
HETATM    1  C1  UNL     1      26.199  65.621   8.206  1.00  0.00     0.165 C 
HETATM    2  N1  UNL     1      27.040  66.448   7.365  1.00  0.00    -0.229 N 
ATOM      3  H1  UNL     1      26.637  66.967   6.585  1.00  0.00     0.177 HD
HETATM    4  C2  UNL     1      28.294  66.521   7.613  1.00  0.00     0.694 A 
HETATM    5  N2  UNL     1      28.866  65.806   8.692  1.00  0.00    -0.172 N 
ATOM      6  H2  UNL     1      28.262  65.227   9.276  1.00  0.00     0.186 HD
HETATM    7  C3  UNL     1      30.137  65.863   8.962  1.00  0.00     0.169 A 
HETATM    8  N3  UNL     1      30.907  65.294   9.906  1.00  0.00    -0.280 N 
ATOM      9  H3  UNL     1      30.561  64.662  10.627  1.00  0.00     0.188 HD
HETATM   10  N4  UNL     1      32.163  65.657   9.777  1.00  0.00    -0.263 N 
ATOM     11  H4  UNL     1      32.942  65.366  10.366  1.00  0.00     0.190 HD
HETATM   12  C4  UNL     1      32.222  66.488   8.720  1.00  0.00     0.291 A 
HETATM   13  O1  UNL     1      33.260  67.047   8.280  1.00  0.00    -0.264 OA
HETATM   14  C5  UNL     1      30.953  66.647   8.172  1.00  0.00     0.164 A 
HETATM   15  N5  UNL     1      30.508  67.333   7.164  1.00  0.00    -0.278 N 
ATOM     16  H5  UNL     1      31.160  67.894   6.617  1.00  0.00     0.188 HD
HETATM   17  N6  UNL     1      29.140  67.322   6.808  1.00  0.00    -0.132 N 
ATOM     18  H6  UNL     1      28.784  67.860   6.017  1.00  0.00     0.205 HD
ENDROOT
TORSDOF 0
ENDMDL
MODEL 2
REMARK VINA RESULT: -6.923019345      1.773      2.481
REMARK  0 active torsions:
REMARK  status: ('A' for Active; 'I' for Inactive)
ROOT
HETATM    1  C1  UNL     1      28.582  64.511  12.175  1.00  0.00     0.165 C 
HETATM    2  N1  UNL     1      28.127  65.250  11.016  1.00  0.00    -0.229 N 
ATOM      3  H1  UNL     1      27.130  65.389  10.852  1.00  0.00     0.177 HD
HETATM    4  C2  UNL     1      28.991  65.725  10.199  1.00  0.00     0.694 A 
HETATM    5  N2  UNL     1      30.377  65.539  10.414  1.00  0.00    -0.172 N 
ATOM      6  H2  UNL     1      30.683  65.017  11.235  1.00  0.00     0.186 HD
HETATM    7  C3  UNL     1      31.273  66.012   9.598  1.00  0.00     0.169 A 
HETATM    8  N3  UNL     1      32.616  65.972   9.578  1.00  0.00    -0.280 N 
ATOM      9  H3  UNL     1      33.190  65.511  10.284  1.00  0.00     0.188 HD
HETATM   10  N4  UNL     1      33.095  66.605   8.531  1.00  0.00    -0.263 N 
ATOM     11  H4  UNL     1      34.078  66.720   8.287  1.00  0.00     0.190 HD
HETATM   12  C4  UNL     1      32.038  67.075   7.842  1.00  0.00     0.291 A 
HETATM   13  O1  UNL     1      32.090  67.737   6.773  1.00  0.00    -0.264 OA
HETATM   14  C5  UNL     1      30.858  66.718   8.487  1.00  0.00     0.164 A 
HETATM   15  N5  UNL     1      29.606  66.934   8.218  1.00  0.00    -0.278 N 
ATOM     16  H5  UNL     1      29.361  67.463   7.382  1.00  0.00     0.188 HD
HETATM   17  N6  UNL     1      28.575  66.452   9.056  1.00  0.00    -0.132 N 
ATOM     18  H6  UNL     1      27.590  66.618   8.850  1.00  0.00     0.205 HD
ENDROOT
TORSDOF 0
ENDMDL
MODEL 3
REMARK VINA RESULT: -6.912110713      1.860      3.432
REMARK  0 active torsions:
REMARK  status: ('A' for Active; 'I' for Inactive)
ROOT
HETATM    1  C1  UNL     1      28.137  64.540  11.847  1.00  0.00     0.165 C 
HETATM    2  N1  UNL     1      29.505  64.758  11.424  1.00  0.00    -0.229 N 
ATOM      3  H1  UNL     1      30.280  64.470  12.020  1.00  0.00     0.177 HD
HETATM    4  C2  UNL     1      29.729  65.317  10.294  1.00  0.00     0.694 A 
HETATM    5  N2  UNL     1      28.662  65.723   9.458  1.00  0.00    -0.172 N 
ATOM      6  H2  UNL     1      27.703  65.563   9.768  1.00  0.00     0.186 HD
HETATM    7  C3  UNL     1      28.865  66.293   8.306  1.00  0.00     0.169 A 
HETATM    8  N3  UNL     1      28.044  66.761   7.350  1.00  0.00    -0.280 N 
ATOM      9  H3  UNL     1      27.026  66.730   7.399  1.00  0.00     0.188 HD
HETATM   10  N4  UNL     1      28.724  67.261   6.343  1.00  0.00    -0.263 N 
ATOM     11  H4  UNL     1      28.337  67.676   5.496  1.00  0.00     0.190 HD
HETATM   12  C4  UNL     1      30.028  67.121   6.645  1.00  0.00     0.291 A 
HETATM   13  O1  UNL     1      30.993  67.484   5.925  1.00  0.00    -0.264 OA
HETATM   14  C5  UNL     1      30.162  66.509   7.887  1.00  0.00     0.164 A 
HETATM   15  N5  UNL     1      31.196  66.166   8.594  1.00  0.00    -0.278 N 
ATOM     16  H5  UNL     1      32.130  66.352   8.231  1.00  0.00     0.188 HD
HETATM   17  N6  UNL     1      31.057  65.543   9.855  1.00  0.00    -0.132 N 
ATOM     18  H6  UNL     1      31.865  65.272  10.415  1.00  0.00     0.205 HD
ENDROOT
TORSDOF 0
ENDMDL
MODEL 4
REMARK VINA RESULT: -6.593013124      1.516      1.655
REMARK  0 active torsions:
REMARK  status: ('A' for Active; 'I' for Inactive)
ROOT
HETATM    1  C1  UNL     1      26.973  64.651  11.079  1.00  0.00     0.165 C 
HETATM    2  N1  UNL     1      27.011  65.511   9.914  1.00  0.00    -0.229 N 
ATOM      3  H1  UNL     1      26.145  65.824   9.476  1.00  0.00     0.177 HD
HETATM    4  C2  UNL     1      28.144  65.872   9.439  1.00  0.00     0.694 A 
HETATM    5  N2  UNL     1      29.354  65.444  10.036  1.00  0.00    -0.172 N 
ATOM      6  H2  UNL     1      29.313  64.839  10.856  1.00  0.00     0.186 HD
HETATM    7  C3  UNL     1      30.517  65.797   9.572  1.00  0.00     0.169 A 
HETATM    8  N3  UNL     1      31.780  65.531   9.947  1.00  0.00    -0.280 N 
ATOM      9  H3  UNL     1      32.034  64.947  10.743  1.00  0.00     0.188 HD
HETATM   10  N4  UNL     1      32.645  66.124   9.155  1.00  0.00    -0.263 N 
ATOM     11  H4  UNL     1      33.661  66.082   9.226  1.00  0.00     0.190 HD
HETATM   12  C4  UNL     1      31.932  66.797   8.233  1.00  0.00     0.291 A 
HETATM   13  O1  UNL     1      32.408  67.491   7.297  1.00  0.00    -0.264 OA
HETATM   14  C5  UNL     1      30.572  66.616   8.462  1.00  0.00     0.164 A 
HETATM   15  N5  UNL     1      29.510  67.052   7.856  1.00  0.00    -0.278 N 
ATOM     16  H5  UNL     1      29.615  67.655   7.041  1.00  0.00     0.188 HD
HETATM   17  N6  UNL     1      28.212  66.713   8.301  1.00  0.00    -0.132 N 
ATOM     18  H6  UNL     1      27.374  67.052   7.829  1.00  0.00     0.205 HD
ENDROOT
TORSDOF 0
ENDMDL
MODEL 5
REMARK VINA RESULT: -6.580652793      1.208      2.425
REMARK  0 active torsions:
REMARK  status: ('A' for Active; 'I' for Inactive)
ROOT
HETATM    1  C1  UNL     1      26.385  66.154   9.126  1.00  0.00     0.165 C 
HETATM    2  N1  UNL     1      27.540  65.879   9.955  1.00  0.00    -0.229 N 
ATOM      3  H1  UNL     1      27.422  65.497  10.893  1.00  0.00     0.177 HD
HETATM    4  C2  UNL     1      28.711  66.121   9.497  1.00  0.00     0.694 A 
HETATM    5  N2  UNL     1      28.890  66.653   8.198  1.00  0.00    -0.172 N 
ATOM      6  H2  UNL     1      28.068  66.842   7.624  1.00  0.00     0.186 HD
HETATM    7  C3  UNL     1      30.069  66.908   7.711  1.00  0.00     0.169 A 
HETATM    8  N3  UNL     1      30.496  67.403   6.537  1.00  0.00    -0.280 N 
ATOM      9  H3  UNL     1      29.882  67.680   5.771  1.00  0.00     0.188 HD
HETATM   10  N4  UNL     1      31.807  67.482   6.503  1.00  0.00    -0.263 N 
ATOM     11  H4  UNL     1      32.375  67.822   5.727  1.00  0.00     0.190 HD
HETATM   12  C4  UNL     1      32.256  67.028   7.688  1.00  0.00     0.291 A 
HETATM   13  O1  UNL     1      33.462  66.949   8.036  1.00  0.00    -0.264 OA
HETATM   14  C5  UNL     1      31.181  66.652   8.487  1.00  0.00     0.164 A 
HETATM   15  N5  UNL     1      31.104  66.165   9.688  1.00  0.00    -0.278 N 
ATOM     16  H5  UNL     1      31.962  65.998  10.213  1.00  0.00     0.188 HD
HETATM   17  N6  UNL     1      29.860  65.862  10.285  1.00  0.00    -0.132 N 
ATOM     18  H6  UNL     1      29.793  65.479  11.229  1.00  0.00     0.205 HD
ENDROOT
TORSDOF 0
ENDMDL
