MODEL 1
REMARK VINA RESULT: -7.891123542      0.000      0.000
REMARK  16 active torsions:
REMARK  status: ('A' for Active; 'I' for Inactive)
REMARK    1  A    between atoms: C2_2  and  C4_4 
REMARK    2  A    between atoms: C4_4  and  C5_5 
REMARK    3  A    between atoms: C5_5  and  C6_6 
REMARK    4  A    between atoms: C6_6  and  C7_7 
REMARK    5  A    between atoms: C7_7  and  C8_8 
REMARK    6  A    between atoms: C8_8  and  C9_9 
REMARK    7  A    between atoms: C10_12  and  O1_13 
REMARK    8  A    between atoms: C11_15  and  C12_16 
REMARK    9  A    between atoms: C15_21  and  O2_22 
REMARK   10  A    between atoms: C23_34  and  C24_35 
REMARK   11  A    between atoms: C24_35  and  C25_36 
REMARK   12  A    between atoms: C28_39  and  O4_40 
REMARK   13  A    between atoms: C29_44  and  C30_45 
REMARK   14  A    between atoms: C30_45  and  C31_46 
REMARK   15  A    between atoms: C31_46  and  N5_47 
REMARK   16  A    between atoms: C33_52  and  C34_53 
ROOT
HETATM    1  C9  UNL     1      17.147  -5.318  10.224  1.00  0.00     0.102 C 
HETATM    2  N1  UNL     1      18.082  -5.816   9.189  1.00  0.00    -0.331 N 
ATOM      3  H1  UNL     1      18.860  -6.366   9.554  1.00  0.00     0.168 HD
HETATM    4  C10 UNL     1      18.086  -5.665   7.829  1.00  0.00     0.164 C 
HETATM    5  C11 UNL     1      17.956  -4.568   6.892  1.00  0.00     0.065 C 
HETATM    6  N2  UNL     1      17.502  -3.289   7.319  1.00  0.00    -0.340 N 
ATOM      7  H2  UNL     1      16.783  -3.341   8.041  1.00  0.00     0.167 HD
HETATM    8  C15 UNL     1      17.827  -1.975   6.964  1.00  0.00     0.120 C 
HETATM    9  C16 UNL     1      19.026  -1.149   7.177  1.00  0.00     0.073 C 
HETATM   10  C17 UNL     1      19.742  -0.727   5.929  1.00  0.00     0.013 C 
HETATM   11  C18 UNL     1      18.956   0.065   4.951  1.00  0.00     0.001 C 
HETATM   12  C19 UNL     1      18.437   1.300   5.626  1.00  0.00     0.001 C 
HETATM   13  C20 UNL     1      18.846   1.378   7.046  1.00  0.00     0.015 C 
HETATM   14  C21 UNL     1      18.667   0.170   7.892  1.00  0.00     0.090 C 
HETATM   15  C22 UNL     1      19.617   0.362   9.021  1.00  0.00     0.227 C 
HETATM   16  O3  UNL     1      20.825   0.072   8.819  1.00  0.00    -0.273 OA
HETATM   17  N3  UNL     1      19.253   0.851  10.314  1.00  0.00    -0.327 N 
ATOM     18  H3  UNL     1      20.005   1.059  10.970  1.00  0.00     0.168 HD
HETATM   19  C23 UNL     1      17.930   1.067  10.748  1.00  0.00     0.063 C 
HETATM   20  C28 UNL     1      17.135  -0.100  11.204  1.00  0.00     0.163 C 
HETATM   21  N4  UNL     1      17.357  -1.443  11.419  1.00  0.00    -0.337 N 
ATOM     22  H4  UNL     1      17.189  -1.949  10.550  1.00  0.00     0.168 HD
HETATM   23  C29 UNL     1      17.738  -2.373  12.424  1.00  0.00     0.043 C 
HETATM   24  C33 UNL     1      18.923  -3.253  12.188  1.00  0.00     0.096 C 
HETATM   25  N8  UNL     1      18.720  -4.669  12.149  1.00  0.00    -0.318 N 
ATOM     26  H8  UNL     1      19.436  -5.195  12.650  1.00  0.00     0.169 HD
HETATM   27  C35 UNL     1      17.730  -5.492  11.558  1.00  0.00     0.272 C 
HETATM   28  O6  UNL     1      17.394  -6.450  12.361  1.00  0.00    -0.266 OA
ENDROOT
BRANCH   1  29
HETATM   29  C8  UNL     1      15.824  -5.659   9.842  1.00  0.00     0.031 C 
BRANCH  29  30
HETATM   30  C7  UNL     1      15.154  -5.707   8.568  1.00  0.00    -0.024 C 
BRANCH  30  31
HETATM   31  C6  UNL     1      14.753  -6.995   7.927  1.00  0.00     0.027 C 
BRANCH  31  32
HETATM   32  C5  UNL     1      13.392  -7.037   7.306  1.00  0.00     0.004 C 
BRANCH  32  33
HETATM   33  C4  UNL     1      12.482  -6.080   8.038  1.00  0.00     0.004 C 
BRANCH  33  34
HETATM   34  C2  UNL     1      11.661  -6.807   9.094  1.00  0.00    -0.023 C 
HETATM   35  C1  UNL     1      10.514  -5.922   9.540  1.00  0.00     0.009 C 
HETATM   36  C3  UNL     1      11.059  -8.046   8.465  1.00  0.00     0.009 C 
ENDBRANCH  33  34
ENDBRANCH  32  33
ENDBRANCH  31  32
ENDBRANCH  30  31
ENDBRANCH  29  30
ENDBRANCH   1  29
BRANCH   4  37
HETATM   37  O1  UNL     1      18.255  -6.824   7.224  1.00  0.00    -0.345 OA
ATOM     38  H1  UNL     1      19.004  -7.288   7.580  1.00  0.00     0.219 HD
ENDBRANCH   4  37
BRANCH   5  39
HETATM   39  C12 UNL     1      19.111  -4.510   5.887  1.00  0.00     0.032 C 
HETATM   40  C13 UNL     1      20.352  -3.865   6.478  1.00  0.00     0.016 C 
HETATM   41  C14 UNL     1      18.753  -3.621   4.707  1.00  0.00     0.016 C 
ENDBRANCH   5  39
BRANCH  24  42
HETATM   42  C34 UNL     1      19.927  -2.793  11.221  1.00  0.00     0.290 C 
HETATM   43  O5  UNL     1      19.831  -2.950  10.019  1.00  0.00    -0.300 OA
ENDBRANCH  24  42
BRANCH  23  44
HETATM   44  C30 UNL     1      17.646  -1.908  13.864  1.00  0.00     0.079 C 
BRANCH  44  45
HETATM   45  C31 UNL     1      18.918  -1.576  14.544  1.00  0.00     0.128 C 
BRANCH  45  46
HETATM   46  N5  UNL     1      18.856  -0.189  14.997  1.00  0.00    -0.367 N 
HETATM   47  C32 UNL     1      19.483   0.767  14.468  1.00  0.00     0.196 C 
HETATM   48  N6  UNL     1      20.320   0.559  13.361  1.00  0.00    -0.067 NA
HETATM   49  N7  UNL     1      19.337   2.072  14.998  1.00  0.00    -0.067 NA
ATOM     50  H5  UNL     1      18.262   0.021  15.800  1.00  0.00     0.161 HD
ENDBRANCH  45  46
ENDBRANCH  44  45
ENDBRANCH  23  44
BRANCH   8  51
HETATM   51  O2  UNL     1      16.932  -1.284   6.312  1.00  0.00    -0.349 OA
ATOM     52  H2  UNL     1      16.794  -0.381   6.575  1.00  0.00     0.219 HD
ENDBRANCH   8  51
BRANCH  20  53
HETATM   53  O4  UNL     1      15.912   0.344  11.437  1.00  0.00    -0.345 OA
ATOM     54  H4  UNL     1      15.328  -0.396  11.322  1.00  0.00     0.219 HD
ENDBRANCH  20  53
BRANCH  19  55
HETATM   55  C24 UNL     1      17.770   2.267  11.623  1.00  0.00     0.065 C 
BRANCH  55  56
HETATM   56  C25 UNL     1      18.411   3.530  11.158  1.00  0.00    -0.017 C 
HETATM   57  C26 UNL     1      19.319   4.221  12.105  1.00  0.00     0.010 C 
HETATM   58  C27 UNL     1      17.386   4.491  10.556  1.00  0.00     0.010 C 
ENDBRANCH  55  56
ENDBRANCH  19  55
TORSDOF 16
ENDMDL
MODEL 2
REMARK VINA RESULT: -7.680077209      0.932      1.678
REMARK  16 active torsions:
REMARK  status: ('A' for Active; 'I' for Inactive)
REMARK    1  A    between atoms: C2_2  and  C4_4 
REMARK    2  A    between atoms: C4_4  and  C5_5 
REMARK    3  A    between atoms: C5_5  and  C6_6 
REMARK    4  A    between atoms: C6_6  and  C7_7 
REMARK    5  A    between atoms: C7_7  and  C8_8 
REMARK    6  A    between atoms: C8_8  and  C9_9 
REMARK    7  A    between atoms: C10_12  and  O1_13 
REMARK    8  A    between atoms: C11_15  and  C12_16 
REMARK    9  A    between atoms: C15_21  and  O2_22 
REMARK   10  A    between atoms: C23_34  and  C24_35 
REMARK   11  A    between atoms: C24_35  and  C25_36 
REMARK   12  A    between atoms: C28_39  and  O4_40 
REMARK   13  A    between atoms: C29_44  and  C30_45 
REMARK   14  A    between atoms: C30_45  and  C31_46 
REMARK   15  A    between atoms: C31_46  and  N5_47 
REMARK   16  A    between atoms: C33_52  and  C34_53 
ROOT
HETATM    1  C9  UNL     1      17.165  -5.297  10.168  1.00  0.00     0.102 C 
HETATM    2  N1  UNL     1      18.103  -5.781   9.130  1.00  0.00    -0.331 N 
ATOM      3  H1  UNL     1      18.882  -6.333   9.490  1.00  0.00     0.168 HD
HETATM    4  C10 UNL     1      18.107  -5.618   7.771  1.00  0.00     0.164 C 
HETATM    5  C11 UNL     1      17.974  -4.512   6.844  1.00  0.00     0.065 C 
HETATM    6  N2  UNL     1      17.516  -3.239   7.283  1.00  0.00    -0.340 N 
ATOM      7  H2  UNL     1      16.796  -3.301   8.004  1.00  0.00     0.167 HD
HETATM    8  C15 UNL     1      17.837  -1.921   6.940  1.00  0.00     0.120 C 
HETATM    9  C16 UNL     1      19.033  -1.092   7.162  1.00  0.00     0.073 C 
HETATM   10  C17 UNL     1      19.748  -0.657   5.919  1.00  0.00     0.013 C 
HETATM   11  C18 UNL     1      18.960   0.143   4.947  1.00  0.00     0.001 C 
HETATM   12  C19 UNL     1      18.436   1.369   5.634  1.00  0.00     0.001 C 
HETATM   13  C20 UNL     1      18.844   1.435   7.055  1.00  0.00     0.015 C 
HETATM   14  C21 UNL     1      18.668   0.218   7.890  1.00  0.00     0.090 C 
HETATM   15  C22 UNL     1      19.616   0.403   9.021  1.00  0.00     0.227 C 
HETATM   16  O3  UNL     1      20.826   0.119   8.817  1.00  0.00    -0.273 OA
HETATM   17  N3  UNL     1      19.250   0.878  10.318  1.00  0.00    -0.327 N 
ATOM     18  H3  UNL     1      20.001   1.082  10.976  1.00  0.00     0.168 HD
HETATM   19  C23 UNL     1      17.926   1.086  10.753  1.00  0.00     0.063 C 
HETATM   20  C28 UNL     1      17.135  -0.089  11.198  1.00  0.00     0.163 C 
HETATM   21  N4  UNL     1      17.362  -1.432  11.400  1.00  0.00    -0.337 N 
ATOM     22  H4  UNL     1      17.196  -1.930  10.526  1.00  0.00     0.168 HD
HETATM   23  C29 UNL     1      17.745  -2.370  12.397  1.00  0.00     0.043 C 
HETATM   24  C33 UNL     1      18.933  -3.244  12.153  1.00  0.00     0.096 C 
HETATM   25  N8  UNL     1      18.735  -4.661  12.100  1.00  0.00    -0.318 N 
ATOM     26  H8  UNL     1      19.452  -5.188  12.597  1.00  0.00     0.169 HD
HETATM   27  C35 UNL     1      17.748  -5.481  11.501  1.00  0.00     0.272 C 
HETATM   28  O6  UNL     1      17.414  -6.448  12.295  1.00  0.00    -0.266 OA
ENDROOT
BRANCH   1  29
HETATM   29  C8  UNL     1      15.844  -5.638   9.782  1.00  0.00     0.031 C 
BRANCH  29  30
HETATM   30  C7  UNL     1      15.304  -6.317   8.632  1.00  0.00    -0.024 C 
BRANCH  30  31
HETATM   31  C6  UNL     1      13.929  -6.041   8.117  1.00  0.00     0.027 C 
BRANCH  31  32
HETATM   32  C5  UNL     1      13.594  -6.605   6.772  1.00  0.00     0.004 C 
BRANCH  32  33
HETATM   33  C4  UNL     1      14.869  -6.820   5.991  1.00  0.00     0.004 C 
BRANCH  33  34
HETATM   34  C2  UNL     1      14.934  -5.889   4.789  1.00  0.00    -0.023 C 
HETATM   35  C1  UNL     1      16.196  -6.174   3.998  1.00  0.00     0.009 C 
HETATM   36  C3  UNL     1      13.756  -6.187   3.885  1.00  0.00     0.009 C 
ENDBRANCH  33  34
ENDBRANCH  32  33
ENDBRANCH  31  32
ENDBRANCH  30  31
ENDBRANCH  29  30
ENDBRANCH   1  29
BRANCH   4  37
HETATM   37  O1  UNL     1      18.281  -6.771   7.155  1.00  0.00    -0.345 OA
ATOM     38  H1  UNL     1      18.847  -6.672   6.399  1.00  0.00     0.219 HD
ENDBRANCH   4  37
BRANCH   5  39
HETATM   39  C12 UNL     1      19.130  -4.440   5.841  1.00  0.00     0.032 C 
HETATM   40  C13 UNL     1      20.372  -3.807   6.442  1.00  0.00     0.016 C 
HETATM   41  C14 UNL     1      18.774  -3.534   4.674  1.00  0.00     0.016 C 
ENDBRANCH   5  39
BRANCH  24  42
HETATM   42  C34 UNL     1      19.936  -2.772  11.191  1.00  0.00     0.290 C 
HETATM   43  O5  UNL     1      19.839  -2.913   9.988  1.00  0.00    -0.300 OA
ENDBRANCH  24  42
BRANCH  23  44
HETATM   44  C30 UNL     1      17.650  -1.920  13.841  1.00  0.00     0.079 C 
BRANCH  44  45
HETATM   45  C31 UNL     1      18.921  -1.598  14.528  1.00  0.00     0.128 C 
BRANCH  45  46
HETATM   46  N5  UNL     1      18.865  -0.212  14.985  1.00  0.00    -0.367 N 
HETATM   47  C32 UNL     1      19.491   0.744  14.455  1.00  0.00     0.196 C 
HETATM   48  N6  UNL     1      20.321   0.537  13.341  1.00  0.00    -0.067 NA
HETATM   49  N7  UNL     1      19.353   2.047  14.989  1.00  0.00    -0.067 NA
ATOM     50  H5  UNL     1      18.278  -0.003  15.792  1.00  0.00     0.161 HD
ENDBRANCH  45  46
ENDBRANCH  44  45
ENDBRANCH  23  44
BRANCH   8  51
HETATM   51  O2  UNL     1      16.939  -1.226   6.295  1.00  0.00    -0.349 OA
ATOM     52  H2  UNL     1      17.239  -0.482   5.786  1.00  0.00     0.219 HD
ENDBRANCH   8  51
BRANCH  20  53
HETATM   53  O4  UNL     1      15.910   0.349  11.434  1.00  0.00    -0.345 OA
ATOM     54  H4  UNL     1      15.732   1.021  10.786  1.00  0.00     0.219 HD
ENDBRANCH  20  53
BRANCH  19  55
HETATM   55  C24 UNL     1      17.761   2.276  11.640  1.00  0.00     0.065 C 
BRANCH  55  56
HETATM   56  C25 UNL     1      18.403   3.545  11.190  1.00  0.00    -0.017 C 
HETATM   57  C26 UNL     1      19.286   4.241  12.156  1.00  0.00     0.010 C 
HETATM   58  C27 UNL     1      17.383   4.499  10.568  1.00  0.00     0.010 C 
ENDBRANCH  55  56
ENDBRANCH  19  55
TORSDOF 16
ENDMDL
MODEL 3
REMARK VINA RESULT: -7.483320357      4.327     10.917
REMARK  16 active torsions:
REMARK  status: ('A' for Active; 'I' for Inactive)
REMARK    1  A    between atoms: C2_2  and  C4_4 
REMARK    2  A    between atoms: C4_4  and  C5_5 
REMARK    3  A    between atoms: C5_5  and  C6_6 
REMARK    4  A    between atoms: C6_6  and  C7_7 
REMARK    5  A    between atoms: C7_7  and  C8_8 
REMARK    6  A    between atoms: C8_8  and  C9_9 
REMARK    7  A    between atoms: C10_12  and  O1_13 
REMARK    8  A    between atoms: C11_15  and  C12_16 
REMARK    9  A    between atoms: C15_21  and  O2_22 
REMARK   10  A    between atoms: C23_34  and  C24_35 
REMARK   11  A    between atoms: C24_35  and  C25_36 
REMARK   12  A    between atoms: C28_39  and  O4_40 
REMARK   13  A    between atoms: C29_44  and  C30_45 
REMARK   14  A    between atoms: C30_45  and  C31_46 
REMARK   15  A    between atoms: C31_46  and  N5_47 
REMARK   16  A    between atoms: C33_52  and  C34_53 
ROOT
HETATM    1  C9  UNL     1      17.860  -3.195   5.404  1.00  0.00     0.102 C 
HETATM    2  N1  UNL     1      18.496  -4.036   6.443  1.00  0.00    -0.331 N 
ATOM      3  H1  UNL     1      19.461  -4.297   6.242  1.00  0.00     0.168 HD
HETATM    4  C10 UNL     1      18.014  -4.525   7.627  1.00  0.00     0.164 C 
HETATM    5  C11 UNL     1      16.830  -5.234   8.068  1.00  0.00     0.065 C 
HETATM    6  N2  UNL     1      15.690  -5.351   7.226  1.00  0.00    -0.340 N 
ATOM      7  H2  UNL     1      15.521  -4.517   6.664  1.00  0.00     0.167 HD
HETATM    8  C15 UNL     1      14.748  -6.362   7.001  1.00  0.00     0.120 C 
HETATM    9  C16 UNL     1      14.832  -7.681   6.354  1.00  0.00     0.073 C 
HETATM   10  C17 UNL     1      14.568  -8.852   7.253  1.00  0.00     0.013 C 
HETATM   11  C18 UNL     1      13.243  -8.887   7.921  1.00  0.00     0.001 C 
HETATM   12  C19 UNL     1      12.167  -8.854   6.877  1.00  0.00     0.001 C 
HETATM   13  C20 UNL     1      12.718  -8.796   5.504  1.00  0.00     0.015 C 
HETATM   14  C21 UNL     1      13.791  -7.808   5.223  1.00  0.00     0.090 C 
HETATM   15  C22 UNL     1      14.478  -8.337   4.014  1.00  0.00     0.227 C 
HETATM   16  O3  UNL     1      15.328  -9.250   4.183  1.00  0.00    -0.273 OA
HETATM   17  N3  UNL     1      14.239  -7.883   2.681  1.00  0.00    -0.327 N 
ATOM     18  H3  UNL     1      14.676  -8.402   1.919  1.00  0.00     0.168 HD
HETATM   19  C23 UNL     1      13.445  -6.771   2.341  1.00  0.00     0.063 C 
HETATM   20  C28 UNL     1      14.035  -5.414   2.466  1.00  0.00     0.163 C 
HETATM   21  N4  UNL     1      15.268  -4.881   2.771  1.00  0.00    -0.337 N 
ATOM     22  H4  UNL     1      15.335  -4.762   3.782  1.00  0.00     0.168 HD
HETATM   23  C29 UNL     1      16.480  -4.438   2.176  1.00  0.00     0.043 C 
HETATM   24  C33 UNL     1      17.770  -5.056   2.610  1.00  0.00     0.096 C 
HETATM   25  N8  UNL     1      18.754  -4.216   3.222  1.00  0.00    -0.318 N 
ATOM     26  H8  UNL     1      19.702  -4.397   2.893  1.00  0.00     0.169 HD
HETATM   27  C35 UNL     1      18.683  -3.184   4.190  1.00  0.00     0.272 C 
HETATM   28  O6  UNL     1      19.460  -2.201   3.867  1.00  0.00    -0.266 OA
ENDROOT
BRANCH   1  29
HETATM   29  C8  UNL     1      17.281  -2.061   6.027  1.00  0.00     0.031 C 
BRANCH  29  30
HETATM   30  C7  UNL     1      17.222  -0.667   5.664  1.00  0.00    -0.024 C 
BRANCH  30  31
HETATM   31  C6  UNL     1      18.288   0.303   6.056  1.00  0.00     0.027 C 
BRANCH  31  32
HETATM   32  C5  UNL     1      18.770   0.229   7.471  1.00  0.00     0.004 C 
BRANCH  32  33
HETATM   33  C4  UNL     1      19.136   1.614   7.947  1.00  0.00     0.004 C 
BRANCH  33  34
HETATM   34  C2  UNL     1      18.897   1.758   9.443  1.00  0.00    -0.023 C 
HETATM   35  C1  UNL     1      18.459   3.177   9.751  1.00  0.00     0.009 C 
HETATM   36  C3  UNL     1      17.762   0.837   9.839  1.00  0.00     0.009 C 
ENDBRANCH  33  34
ENDBRANCH  32  33
ENDBRANCH  31  32
ENDBRANCH  30  31
ENDBRANCH  29  30
ENDBRANCH   1  29
BRANCH   4  37
HETATM   37  O1  UNL     1      18.853  -4.286   8.615  1.00  0.00    -0.345 OA
ATOM     38  H1  UNL     1      18.422  -3.823   9.325  1.00  0.00     0.219 HD
ENDBRANCH   4  37
BRANCH   5  39
HETATM   39  C12 UNL     1      17.162  -6.515   8.840  1.00  0.00     0.032 C 
HETATM   40  C13 UNL     1      17.335  -6.260  10.327  1.00  0.00     0.016 C 
HETATM   41  C14 UNL     1      18.503  -7.077   8.398  1.00  0.00     0.016 C 
ENDBRANCH   5  39
BRANCH  24  42
HETATM   42  C34 UNL     1      17.714  -6.396   3.205  1.00  0.00     0.290 C 
HETATM   43  O5  UNL     1      17.558  -6.603   4.394  1.00  0.00    -0.300 OA
ENDBRANCH  24  42
BRANCH  23  44
HETATM   44  C30 UNL     1      16.453  -4.151   0.688  1.00  0.00     0.079 C 
BRANCH  44  45
HETATM   45  C31 UNL     1      17.183  -5.092  -0.191  1.00  0.00     0.128 C 
BRANCH  45  46
HETATM   46  N5  UNL     1      16.217  -5.772  -1.050  1.00  0.00    -0.367 N 
HETATM   47  C32 UNL     1      15.800  -6.947  -0.869  1.00  0.00     0.196 C 
HETATM   48  N6  UNL     1      16.253  -7.718   0.213  1.00  0.00    -0.067 NA
HETATM   49  N7  UNL     1      14.859  -7.496  -1.772  1.00  0.00    -0.067 NA
ATOM     50  H5  UNL     1      15.855  -5.259  -1.853  1.00  0.00     0.161 HD
ENDBRANCH  45  46
ENDBRANCH  44  45
ENDBRANCH  23  44
BRANCH   8  51
HETATM   51  O2  UNL     1      13.529  -6.160   7.422  1.00  0.00    -0.349 OA
ATOM     52  H2  UNL     1      12.828  -6.635   6.990  1.00  0.00     0.219 HD
ENDBRANCH   8  51
BRANCH  20  53
HETATM   53  O4  UNL     1      13.063  -4.555   2.210  1.00  0.00    -0.345 OA
ATOM     54  H4  UNL     1      12.822  -4.681   1.300  1.00  0.00     0.219 HD
ENDBRANCH  20  53
BRANCH  19  55
HETATM   55  C24 UNL     1      12.652  -6.954   1.088  1.00  0.00     0.065 C 
BRANCH  55  56
HETATM   56  C25 UNL     1      11.213  -7.313   1.249  1.00  0.00    -0.017 C 
HETATM   57  C26 UNL     1      10.844  -8.739   1.080  1.00  0.00     0.010 C 
HETATM   58  C27 UNL     1      10.311  -6.395   0.423  1.00  0.00     0.010 C 
ENDBRANCH  55  56
ENDBRANCH  19  55
TORSDOF 16
ENDMDL
MODEL 4
REMARK VINA RESULT: -7.477871275      2.743      8.334
REMARK  16 active torsions:
REMARK  status: ('A' for Active; 'I' for Inactive)
REMARK    1  A    between atoms: C2_2  and  C4_4 
REMARK    2  A    between atoms: C4_4  and  C5_5 
REMARK    3  A    between atoms: C5_5  and  C6_6 
REMARK    4  A    between atoms: C6_6  and  C7_7 
REMARK    5  A    between atoms: C7_7  and  C8_8 
REMARK    6  A    between atoms: C8_8  and  C9_9 
REMARK    7  A    between atoms: C10_12  and  O1_13 
REMARK    8  A    between atoms: C11_15  and  C12_16 
REMARK    9  A    between atoms: C15_21  and  O2_22 
REMARK   10  A    between atoms: C23_34  and  C24_35 
REMARK   11  A    between atoms: C24_35  and  C25_36 
REMARK   12  A    between atoms: C28_39  and  O4_40 
REMARK   13  A    between atoms: C29_44  and  C30_45 
REMARK   14  A    between atoms: C30_45  and  C31_46 
REMARK   15  A    between atoms: C31_46  and  N5_47 
REMARK   16  A    between atoms: C33_52  and  C34_53 
ROOT
HETATM    1  C9  UNL     1      18.226  -1.715   9.264  1.00  0.00     0.102 C 
HETATM    2  N1  UNL     1      18.527  -2.757  10.272  1.00  0.00    -0.331 N 
ATOM      3  H1  UNL     1      19.510  -2.813  10.540  1.00  0.00     0.168 HD
HETATM    4  C10 UNL     1      17.716  -3.659  10.905  1.00  0.00     0.164 C 
HETATM    5  C11 UNL     1      16.703  -4.619  10.514  1.00  0.00     0.065 C 
HETATM    6  N2  UNL     1      16.145  -4.603   9.207  1.00  0.00    -0.340 N 
ATOM      7  H2  UNL     1      16.028  -3.661   8.833  1.00  0.00     0.167 HD
HETATM    8  C15 UNL     1      15.720  -5.599   8.320  1.00  0.00     0.120 C 
HETATM    9  C16 UNL     1      16.441  -6.617   7.538  1.00  0.00     0.073 C 
HETATM   10  C17 UNL     1      16.129  -8.038   7.898  1.00  0.00     0.013 C 
HETATM   11  C18 UNL     1      14.711  -8.458   7.771  1.00  0.00     0.001 C 
HETATM   12  C19 UNL     1      14.257  -8.227   6.359  1.00  0.00     0.001 C 
HETATM   13  C20 UNL     1      15.329  -7.659   5.511  1.00  0.00     0.015 C 
HETATM   14  C21 UNL     1      16.100  -6.504   6.039  1.00  0.00     0.090 C 
HETATM   15  C22 UNL     1      17.372  -6.522   5.268  1.00  0.00     0.227 C 
HETATM   16  O3  UNL     1      18.267  -7.323   5.644  1.00  0.00    -0.273 OA
HETATM   17  N3  UNL     1      17.646  -5.696   4.135  1.00  0.00    -0.327 N 
ATOM     18  H3  UNL     1      18.502  -5.881   3.611  1.00  0.00     0.168 HD
HETATM   19  C23 UNL     1      16.822  -4.645   3.688  1.00  0.00     0.063 C 
HETATM   20  C28 UNL     1      16.899  -3.338   4.387  1.00  0.00     0.163 C 
HETATM   21  N4  UNL     1      17.666  -2.779   5.385  1.00  0.00    -0.337 N 
ATOM     22  H4  UNL     1      17.235  -2.985   6.286  1.00  0.00     0.168 HD
HETATM   23  C29 UNL     1      18.844  -2.016   5.604  1.00  0.00     0.043 C 
HETATM   24  C33 UNL     1      19.914  -2.570   6.489  1.00  0.00     0.096 C 
HETATM   25  N8  UNL     1      20.247  -1.853   7.683  1.00  0.00    -0.318 N 
ATOM     26  H8  UNL     1      21.251  -1.795   7.853  1.00  0.00     0.169 HD
HETATM   27  C35 UNL     1      19.470  -1.207   8.676  1.00  0.00     0.272 C 
HETATM   28  O6  UNL     1      20.010  -0.081   9.017  1.00  0.00    -0.266 OA
ENDROOT
BRANCH   1  29
HETATM   29  C8  UNL     1      17.145  -0.926   9.734  1.00  0.00     0.031 C 
BRANCH  29  30
HETATM   30  C7  UNL     1      17.054   0.129  10.711  1.00  0.00    -0.024 C 
BRANCH  30  31
HETATM   31  C6  UNL     1      16.878  -0.148  12.168  1.00  0.00     0.027 C 
BRANCH  31  32
HETATM   32  C5  UNL     1      18.131  -0.283  12.976  1.00  0.00     0.004 C 
BRANCH  32  33
HETATM   33  C4  UNL     1      17.900   0.293  14.353  1.00  0.00     0.004 C 
BRANCH  33  34
HETATM   34  C2  UNL     1      17.764  -0.811  15.391  1.00  0.00    -0.023 C 
HETATM   35  C1  UNL     1      19.143  -1.288  15.804  1.00  0.00     0.009 C 
HETATM   36  C3  UNL     1      17.097  -0.234  16.623  1.00  0.00     0.009 C 
ENDBRANCH  33  34
ENDBRANCH  32  33
ENDBRANCH  31  32
ENDBRANCH  30  31
ENDBRANCH  29  30
ENDBRANCH   1  29
BRANCH   4  37
HETATM   37  O1  UNL     1      17.920  -3.647  12.208  1.00  0.00    -0.345 OA
ATOM     38  H1  UNL     1      17.108  -3.499  12.678  1.00  0.00     0.219 HD
ENDBRANCH   4  37
BRANCH   5  39
HETATM   39  C12 UNL     1      16.986  -6.027  11.049  1.00  0.00     0.032 C 
HETATM   40  C13 UNL     1      17.220  -6.034  12.549  1.00  0.00     0.016 C 
HETATM   41  C14 UNL     1      18.278  -6.574  10.465  1.00  0.00     0.016 C 
ENDBRANCH   5  39
BRANCH  24  42
HETATM   42  C34 UNL     1      19.961  -4.026   6.666  1.00  0.00     0.290 C 
HETATM   43  O5  UNL     1      19.346  -4.624   7.527  1.00  0.00    -0.300 OA
ENDBRANCH  24  42
BRANCH  23  44
HETATM   44  C30 UNL     1      19.414  -1.269   4.414  1.00  0.00     0.079 C 
BRANCH  44  45
HETATM   45  C31 UNL     1      18.862   0.077   4.140  1.00  0.00     0.128 C 
BRANCH  45  46
HETATM   46  N5  UNL     1      19.238   0.966   5.236  1.00  0.00    -0.367 N 
HETATM   47  C32 UNL     1      18.526   1.196   6.249  1.00  0.00     0.196 C 
HETATM   48  N6  UNL     1      17.269   0.590   6.404  1.00  0.00    -0.067 NA
HETATM   49  N7  UNL     1      19.003   2.078   7.248  1.00  0.00    -0.067 NA
ATOM     50  H5  UNL     1      20.142   1.436   5.176  1.00  0.00     0.161 HD
ENDBRANCH  45  46
ENDBRANCH  44  45
ENDBRANCH  23  44
BRANCH   8  51
HETATM   51  O2  UNL     1      14.439  -5.702   8.092  1.00  0.00    -0.349 OA
ATOM     52  H2  UNL     1      13.853  -5.156   8.604  1.00  0.00     0.219 HD
ENDBRANCH   8  51
BRANCH  20  53
HETATM   53  O4  UNL     1      15.955  -2.574   3.864  1.00  0.00    -0.345 OA
ATOM     54  H4  UNL     1      15.198  -3.132   3.730  1.00  0.00     0.219 HD
ENDBRANCH  20  53
BRANCH  19  55
HETATM   55  C24 UNL     1      16.762  -4.515   2.201  1.00  0.00     0.065 C 
BRANCH  55  56
HETATM   56  C25 UNL     1      15.635  -5.205   1.509  1.00  0.00    -0.017 C 
HETATM   57  C26 UNL     1      15.254  -4.708   0.166  1.00  0.00     0.010 C 
HETATM   58  C27 UNL     1      14.418  -5.347   2.424  1.00  0.00     0.010 C 
ENDBRANCH  55  56
ENDBRANCH  19  55
TORSDOF 16
ENDMDL
MODEL 5
REMARK VINA RESULT: -7.387546716      2.664      8.588
REMARK  16 active torsions:
REMARK  status: ('A' for Active; 'I' for Inactive)
REMARK    1  A    between atoms: C2_2  and  C4_4 
REMARK    2  A    between atoms: C4_4  and  C5_5 
REMARK    3  A    between atoms: C5_5  and  C6_6 
REMARK    4  A    between atoms: C6_6  and  C7_7 
REMARK    5  A    between atoms: C7_7  and  C8_8 
REMARK    6  A    between atoms: C8_8  and  C9_9 
REMARK    7  A    between atoms: C10_12  and  O1_13 
REMARK    8  A    between atoms: C11_15  and  C12_16 
REMARK    9  A    between atoms: C15_21  and  O2_22 
REMARK   10  A    between atoms: C23_34  and  C24_35 
REMARK   11  A    between atoms: C24_35  and  C25_36 
REMARK   12  A    between atoms: C28_39  and  O4_40 
REMARK   13  A    between atoms: C29_44  and  C30_45 
REMARK   14  A    between atoms: C30_45  and  C31_46 
REMARK   15  A    between atoms: C31_46  and  N5_47 
REMARK   16  A    between atoms: C33_52  and  C34_53 
ROOT
HETATM    1  C9  UNL     1      18.208  -1.764   9.217  1.00  0.00     0.102 C 
HETATM    2  N1  UNL     1      18.518  -2.796  10.232  1.00  0.00    -0.331 N 
ATOM      3  H1  UNL     1      19.501  -2.838  10.504  1.00  0.00     0.168 HD
HETATM    4  C10 UNL     1      17.717  -3.706  10.868  1.00  0.00     0.164 C 
HETATM    5  C11 UNL     1      16.717  -4.680  10.479  1.00  0.00     0.065 C 
HETATM    6  N2  UNL     1      16.163  -4.679   9.169  1.00  0.00    -0.340 N 
ATOM      7  H2  UNL     1      16.036  -3.740   8.790  1.00  0.00     0.167 HD
HETATM    8  C15 UNL     1      15.754  -5.685   8.287  1.00  0.00     0.120 C 
HETATM    9  C16 UNL     1      16.491  -6.698   7.513  1.00  0.00     0.073 C 
HETATM   10  C17 UNL     1      16.196  -8.121   7.880  1.00  0.00     0.013 C 
HETATM   11  C18 UNL     1      14.783  -8.560   7.750  1.00  0.00     0.001 C 
HETATM   12  C19 UNL     1      14.332  -8.343   6.336  1.00  0.00     0.001 C 
HETATM   13  C20 UNL     1      15.399  -7.766   5.488  1.00  0.00     0.015 C 
HETATM   14  C21 UNL     1      16.154  -6.598   6.012  1.00  0.00     0.090 C 
HETATM   15  C22 UNL     1      17.429  -6.604   5.246  1.00  0.00     0.227 C 
HETATM   16  O3  UNL     1      18.333  -7.391   5.630  1.00  0.00    -0.273 OA
HETATM   17  N3  UNL     1      17.696  -5.781   4.109  1.00  0.00    -0.327 N 
ATOM     18  H3  UNL     1      18.555  -5.958   3.589  1.00  0.00     0.168 HD
HETATM   19  C23 UNL     1      16.860  -4.743   3.653  1.00  0.00     0.063 C 
HETATM   20  C28 UNL     1      16.918  -3.432   4.345  1.00  0.00     0.163 C 
HETATM   21  N4  UNL     1      17.674  -2.857   5.343  1.00  0.00    -0.337 N 
ATOM     22  H4  UNL     1      17.243  -3.063   6.244  1.00  0.00     0.168 HD
HETATM   23  C29 UNL     1      18.842  -2.077   5.561  1.00  0.00     0.043 C 
HETATM   24  C33 UNL     1      19.915  -2.613   6.453  1.00  0.00     0.096 C 
HETATM   25  N8  UNL     1      20.235  -1.885   7.644  1.00  0.00    -0.318 N 
ATOM     26  H8  UNL     1      21.238  -1.813   7.817  1.00  0.00     0.169 HD
HETATM   27  C35 UNL     1      19.447  -1.244   8.631  1.00  0.00     0.272 C 
HETATM   28  O6  UNL     1      19.971  -0.109   8.967  1.00  0.00    -0.266 OA
ENDROOT
BRANCH   1  29
HETATM   29  C8  UNL     1      17.115  -0.987   9.679  1.00  0.00     0.031 C 
BRANCH  29  30
HETATM   30  C7  UNL     1      17.018   0.349  10.211  1.00  0.00    -0.024 C 
BRANCH  30  31
HETATM   31  C6  UNL     1      17.427   0.681  11.609  1.00  0.00     0.027 C 
BRANCH  31  32
HETATM   32  C5  UNL     1      17.761   2.113  11.884  1.00  0.00     0.004 C 
BRANCH  32  33
HETATM   33  C4  UNL     1      17.827   2.869  10.578  1.00  0.00     0.004 C 
BRANCH  33  34
HETATM   34  C2  UNL     1      18.026   4.359  10.819  1.00  0.00    -0.023 C 
HETATM   35  C1  UNL     1      16.690   5.001  11.139  1.00  0.00     0.009 C 
HETATM   36  C3  UNL     1      18.915   4.535  12.033  1.00  0.00     0.009 C 
ENDBRANCH  33  34
ENDBRANCH  32  33
ENDBRANCH  31  32
ENDBRANCH  30  31
ENDBRANCH  29  30
ENDBRANCH   1  29
BRANCH   4  37
HETATM   37  O1  UNL     1      17.916  -3.683  12.171  1.00  0.00    -0.345 OA
ATOM     38  H1  UNL     1      18.648  -3.121  12.394  1.00  0.00     0.219 HD
ENDBRANCH   4  37
BRANCH   5  39
HETATM   39  C12 UNL     1      17.016  -6.081  11.022  1.00  0.00     0.032 C 
HETATM   40  C13 UNL     1      17.213  -6.083  12.527  1.00  0.00     0.016 C 
HETATM   41  C14 UNL     1      18.334  -6.602  10.471  1.00  0.00     0.016 C 
ENDBRANCH   5  39
BRANCH  24  42
HETATM   42  C34 UNL     1      19.981  -4.067   6.638  1.00  0.00     0.290 C 
HETATM   43  O5  UNL     1      19.340  -4.672   7.476  1.00  0.00    -0.300 OA
ENDBRANCH  24  42
BRANCH  23  44
HETATM   44  C30 UNL     1      19.406  -1.330   4.369  1.00  0.00     0.079 C 
BRANCH  44  45
HETATM   45  C31 UNL     1      18.852   0.015   4.097  1.00  0.00     0.128 C 
BRANCH  45  46
HETATM   46  N5  UNL     1      19.223   0.903   5.195  1.00  0.00    -0.367 N 
HETATM   47  C32 UNL     1      18.497   1.147   6.196  1.00  0.00     0.196 C 
HETATM   48  N6  UNL     1      17.229   0.561   6.332  1.00  0.00    -0.067 NA
HETATM   49  N7  UNL     1      18.971   2.026   7.200  1.00  0.00    -0.067 NA
ATOM     50  H5  UNL     1      20.134   1.358   5.149  1.00  0.00     0.161 HD
ENDBRANCH  45  46
ENDBRANCH  44  45
ENDBRANCH  23  44
BRANCH   8  51
HETATM   51  O2  UNL     1      14.475  -5.806   8.055  1.00  0.00    -0.349 OA
ATOM     52  H2  UNL     1      13.875  -5.396   8.666  1.00  0.00     0.219 HD
ENDBRANCH   8  51
BRANCH  20  53
HETATM   53  O4  UNL     1      15.966  -2.683   3.815  1.00  0.00    -0.345 OA
ATOM     54  H4  UNL     1      15.139  -3.078   4.064  1.00  0.00     0.219 HD
ENDBRANCH  20  53
BRANCH  19  55
HETATM   55  C24 UNL     1      16.803  -4.622   2.165  1.00  0.00     0.065 C 
BRANCH  55  56
HETATM   56  C25 UNL     1      15.629  -5.240   1.484  1.00  0.00    -0.017 C 
HETATM   57  C26 UNL     1      15.179  -4.624   0.212  1.00  0.00     0.010 C 
HETATM   58  C27 UNL     1      14.465  -5.450   2.452  1.00  0.00     0.010 C 
ENDBRANCH  55  56
ENDBRANCH  19  55
TORSDOF 16
ENDMDL
