MODEL 1
REMARK VINA RESULT: -7.134458731      0.000      0.000
REMARK  13 active torsions:
REMARK  status: ('A' for Active; 'I' for Inactive)
REMARK    1  A    between atoms: C2_2  and  C3_3 
REMARK    2  A    between atoms: C3_3  and  C5_5 
REMARK    3  A    between atoms: C10_16  and  C11_17 
REMARK    4  A    between atoms: C11_17  and  C12_18 
REMARK    5  A    between atoms: C20_30  and  O3_31 
REMARK    6  A    between atoms: C22_35  and  C23_36 
REMARK    7  A    between atoms: C23_36  and  C24_37 
REMARK    8  A    between atoms: C24_37  and  C25_38 
REMARK    9  A    between atoms: C25_38  and  C26_39 
REMARK   10  A    between atoms: C26_39  and  C27_40 
REMARK   11  A    between atoms: C30_46  and  C31_47 
REMARK   12  A    between atoms: C31_47  and  C32_48 
REMARK   13  A    between atoms: C35_53  and  O6_54 
ROOT
HETATM    1  C5  UNL     1      17.653  -7.854   1.442  1.00  0.00     0.162 C 
HETATM    2  N1  UNL     1      16.851  -6.762   0.980  1.00  0.00    -0.347 N 
ATOM      3  H1  UNL     1      16.307  -6.932   0.134  1.00  0.00     0.163 HD
HETATM    4  C6  UNL     1      16.723  -5.481   1.552  1.00  0.00     0.240 C 
HETATM    5  O1  UNL     1      16.556  -4.540   0.704  1.00  0.00    -0.271 OA
HETATM    6  C7  UNL     1      16.752  -5.069   2.957  1.00  0.00     0.172 C 
HETATM    7  C8  UNL     1      16.496  -3.581   3.132  1.00  0.00     0.042 C 
HETATM    8  N2  UNL     1      17.923  -5.397   3.696  1.00  0.00    -0.346 N 
ATOM      9  H2  UNL     1      18.777  -5.519   3.151  1.00  0.00     0.163 HD
HETATM   10  C9  UNL     1      18.049  -5.576   5.092  1.00  0.00     0.241 C 
HETATM   11  O2  UNL     1      18.693  -6.623   5.483  1.00  0.00    -0.271 OA
HETATM   12  C10 UNL     1      17.550  -4.733   6.167  1.00  0.00     0.180 C 
HETATM   13  N4  UNL     1      16.470  -5.200   6.965  1.00  0.00    -0.354 N 
ATOM     14  H4  UNL     1      15.653  -4.591   6.911  1.00  0.00     0.162 HD
HETATM   15  C20 UNL     1      16.266  -6.288   7.798  1.00  0.00     0.185 C 
HETATM   16  C21 UNL     1      16.031  -7.706   7.558  1.00  0.00     0.222 C 
HETATM   17  O4  UNL     1      16.845  -8.464   8.195  1.00  0.00    -0.286 OA
HETATM   18  C22 UNL     1      15.016  -8.341   6.712  1.00  0.00     0.165 C 
HETATM   19  N5  UNL     1      15.349  -9.581   6.067  1.00  0.00    -0.343 N 
HETATM   20  C28 UNL     1      16.209 -10.498   6.855  1.00  0.00     0.153 C 
HETATM   21  C29 UNL     1      14.925 -10.063   4.822  1.00  0.00     0.243 C 
HETATM   22  O5  UNL     1      14.450 -11.263   4.756  1.00  0.00    -0.271 OA
HETATM   23  C30 UNL     1      14.932  -9.369   3.477  1.00  0.00     0.176 C 
HETATM   24  N6  UNL     1      16.115  -8.555   3.450  1.00  0.00    -0.359 N 
ATOM     25  H6  UNL     1      16.088  -7.836   4.174  1.00  0.00     0.162 HD
HETATM   26  C35 UNL     1      17.270  -8.481   2.715  1.00  0.00     0.135 C 
ENDROOT
BRANCH  12  27
HETATM   27  C11 UNL     1      18.790  -4.367   6.989  1.00  0.00     0.075 C 
BRANCH  27  28
HETATM   28  C12 UNL     1      18.804  -2.991   7.455  1.00  0.00    -0.028 A 
HETATM   29  C13 UNL     1      18.664  -2.561   8.761  1.00  0.00     0.096 A 
HETATM   30  N3  UNL     1      18.732  -1.208   8.764  1.00  0.00    -0.365 N 
HETATM   31  C14 UNL     1      18.910  -0.751   7.511  1.00  0.00     0.042 A 
ATOM     32  H3  UNL     1      18.659  -0.620   9.595  1.00  0.00     0.165 HD
HETATM   33  C15 UNL     1      19.030   0.533   7.025  1.00  0.00     0.030 A 
HETATM   34  C19 UNL     1      18.955  -1.861   6.689  1.00  0.00    -0.002 A 
HETATM   35  C16 UNL     1      19.202   0.735   5.677  1.00  0.00     0.002 A 
HETATM   36  C17 UNL     1      19.253  -0.348   4.829  1.00  0.00     0.001 A 
HETATM   37  C18 UNL     1      19.130  -1.628   5.341  1.00  0.00     0.014 A 
ENDBRANCH  27  28
ENDBRANCH  12  27
BRANCH  15  38
HETATM   38  O3  UNL     1      16.279  -6.008   9.092  1.00  0.00    -0.344 OA
ATOM     39  H3  UNL     1      16.536  -6.730   9.654  1.00  0.00     0.219 HD
ENDBRANCH  15  38
BRANCH  18  40
HETATM   40  C23 UNL     1      13.743  -8.751   7.540  1.00  0.00     0.034 C 
BRANCH  40  41
HETATM   41  C24 UNL     1      12.534  -8.022   7.153  1.00  0.00     0.002 C 
BRANCH  41  42
HETATM   42  C25 UNL     1      12.549  -6.595   7.581  1.00  0.00     0.001 C 
BRANCH  42  43
HETATM   43  C26 UNL     1      11.758  -6.127   8.706  1.00  0.00     0.011 C 
BRANCH  43  44
HETATM   44  C27 UNL     1      10.832  -6.995   9.449  1.00  0.00     0.086 C 
HETATM   45  S1  UNL     1      10.273  -6.276  11.024  1.00  0.00    -0.098 SA
ENDBRANCH  43  44
ENDBRANCH  42  43
ENDBRANCH  41  42
ENDBRANCH  40  41
ENDBRANCH  18  40
BRANCH   1  46
HETATM   46  C3  UNL     1      17.969  -8.913   0.430  1.00  0.00     0.012 C 
HETATM   47  C4  UNL     1      19.394  -8.732  -0.121  1.00  0.00     0.012 C 
BRANCH  46  48
HETATM   48  C2  UNL     1      17.002  -9.111  -0.671  1.00  0.00     0.002 C 
HETATM   49  C1  UNL     1      15.925 -10.116  -0.221  1.00  0.00     0.005 C 
ENDBRANCH  46  48
ENDBRANCH   1  46
BRANCH  26  50
HETATM   50  O6  UNL     1      18.303  -9.103   3.243  1.00  0.00    -0.348 OA
ATOM     51  H6  UNL     1      18.450  -8.799   4.131  1.00  0.00     0.219 HD
ENDBRANCH  26  50
BRANCH  23  52
HETATM   52  C31 UNL     1      13.623  -8.652   3.402  1.00  0.00     0.038 C 
BRANCH  52  53
HETATM   53  C32 UNL     1      13.646  -7.270   2.817  1.00  0.00    -0.020 C 
HETATM   54  C33 UNL     1      12.567  -6.974   1.835  1.00  0.00     0.009 C 
HETATM   55  C34 UNL     1      13.463  -6.261   3.969  1.00  0.00     0.009 C 
ENDBRANCH  52  53
ENDBRANCH  23  52
TORSDOF 13
ENDMDL
MODEL 2
REMARK VINA RESULT: -6.976821614      0.955      1.104
REMARK  13 active torsions:
REMARK  status: ('A' for Active; 'I' for Inactive)
REMARK    1  A    between atoms: C2_2  and  C3_3 
REMARK    2  A    between atoms: C3_3  and  C5_5 
REMARK    3  A    between atoms: C10_16  and  C11_17 
REMARK    4  A    between atoms: C11_17  and  C12_18 
REMARK    5  A    between atoms: C20_30  and  O3_31 
REMARK    6  A    between atoms: C22_35  and  C23_36 
REMARK    7  A    between atoms: C23_36  and  C24_37 
REMARK    8  A    between atoms: C24_37  and  C25_38 
REMARK    9  A    between atoms: C25_38  and  C26_39 
REMARK   10  A    between atoms: C26_39  and  C27_40 
REMARK   11  A    between atoms: C30_46  and  C31_47 
REMARK   12  A    between atoms: C31_47  and  C32_48 
REMARK   13  A    between atoms: C35_53  and  O6_54 
ROOT
HETATM    1  C5  UNL     1      17.419  -9.036   1.936  1.00  0.00     0.162 C 
HETATM    2  N1  UNL     1      16.809  -7.986   1.179  1.00  0.00    -0.347 N 
ATOM      3  H1  UNL     1      16.255  -8.276   0.374  1.00  0.00     0.163 HD
HETATM    4  C6  UNL     1      16.883  -6.598   1.413  1.00  0.00     0.240 C 
HETATM    5  O1  UNL     1      16.881  -5.885   0.353  1.00  0.00    -0.271 OA
HETATM    6  C7  UNL     1      16.960  -5.858   2.674  1.00  0.00     0.172 C 
HETATM    7  C8  UNL     1      16.946  -4.352   2.466  1.00  0.00     0.042 C 
HETATM    8  N2  UNL     1      18.054  -6.166   3.531  1.00  0.00    -0.346 N 
ATOM      9  H2  UNL     1      18.884  -6.549   3.078  1.00  0.00     0.163 HD
HETATM   10  C9  UNL     1      18.131  -6.007   4.932  1.00  0.00     0.241 C 
HETATM   11  O2  UNL     1      18.593  -7.009   5.601  1.00  0.00    -0.271 OA
HETATM   12  C10 UNL     1      17.762  -4.856   5.741  1.00  0.00     0.180 C 
HETATM   13  N4  UNL     1      16.611  -4.938   6.571  1.00  0.00    -0.354 N 
ATOM     14  H4  UNL     1      15.904  -4.244   6.327  1.00  0.00     0.162 HD
HETATM   15  C20 UNL     1      16.224  -5.738   7.634  1.00  0.00     0.185 C 
HETATM   16  C21 UNL     1      15.766  -7.118   7.736  1.00  0.00     0.222 C 
HETATM   17  O4  UNL     1      16.438  -7.807   8.581  1.00  0.00    -0.286 OA
HETATM   18  C22 UNL     1      14.672  -7.781   7.020  1.00  0.00     0.165 C 
HETATM   19  N5  UNL     1      14.809  -9.179   6.716  1.00  0.00    -0.343 N 
HETATM   20  C28 UNL     1      15.499  -9.990   7.748  1.00  0.00     0.153 C 
HETATM   21  C29 UNL     1      14.328  -9.885   5.607  1.00  0.00     0.243 C 
HETATM   22  O5  UNL     1      13.666 -10.976   5.811  1.00  0.00    -0.271 OA
HETATM   23  C30 UNL     1      14.463  -9.559   4.134  1.00  0.00     0.176 C 
HETATM   24  N6  UNL     1      15.763  -8.969   3.971  1.00  0.00    -0.359 N 
ATOM     25  H6  UNL     1      15.843  -8.097   4.494  1.00  0.00     0.162 HD
HETATM   26  C35 UNL     1      16.924  -9.260   3.302  1.00  0.00     0.135 C 
ENDROOT
BRANCH  12  27
HETATM   27  C11 UNL     1      19.035  -4.490   6.512  1.00  0.00     0.075 C 
BRANCH  27  28
HETATM   28  C12 UNL     1      19.014  -3.158   7.089  1.00  0.00    -0.028 A 
HETATM   29  C13 UNL     1      18.945  -2.842   8.433  1.00  0.00     0.096 A 
HETATM   30  N3  UNL     1      18.946  -1.492   8.544  1.00  0.00    -0.365 N 
HETATM   31  C14 UNL     1      19.011  -0.927   7.325  1.00  0.00     0.042 A 
ATOM     32  H3  UNL     1      18.903  -0.977   9.425  1.00  0.00     0.165 HD
HETATM   33  C15 UNL     1      19.032   0.397   6.941  1.00  0.00     0.030 A 
HETATM   34  C19 UNL     1      19.053  -1.964   6.412  1.00  0.00    -0.002 A 
HETATM   35  C16 UNL     1      19.097   0.715   5.606  1.00  0.00     0.002 A 
HETATM   36  C17 UNL     1      19.141  -0.293   4.669  1.00  0.00     0.001 A 
HETATM   37  C18 UNL     1      19.119  -1.615   5.079  1.00  0.00     0.014 A 
ENDBRANCH  27  28
ENDBRANCH  12  27
BRANCH  15  38
HETATM   38  O3  UNL     1      16.266  -5.149   8.819  1.00  0.00    -0.344 OA
ATOM     39  H3  UNL     1      15.823  -5.620   9.515  1.00  0.00     0.219 HD
ENDBRANCH  15  38
BRANCH  18  40
HETATM   40  C23 UNL     1      13.339  -7.771   7.855  1.00  0.00     0.034 C 
BRANCH  40  41
HETATM   41  C24 UNL     1      12.591  -6.518   7.747  1.00  0.00     0.002 C 
BRANCH  41  42
HETATM   42  C25 UNL     1      11.533  -6.376   8.787  1.00  0.00     0.001 C 
BRANCH  42  43
HETATM   43  C26 UNL     1      10.739  -7.511   9.227  1.00  0.00     0.011 C 
BRANCH  43  44
HETATM   44  C27 UNL     1      10.340  -7.715  10.627  1.00  0.00     0.086 C 
HETATM   45  S1  UNL     1       9.489  -6.279  11.352  1.00  0.00    -0.098 SA
ENDBRANCH  43  44
ENDBRANCH  42  43
ENDBRANCH  41  42
ENDBRANCH  40  41
ENDBRANCH  18  40
BRANCH   1  46
HETATM   46  C3  UNL     1      17.572 -10.351   1.232  1.00  0.00     0.012 C 
HETATM   47  C4  UNL     1      18.410 -10.188  -0.049  1.00  0.00     0.012 C 
BRANCH  46  48
HETATM   48  C2  UNL     1      16.341 -11.123   0.959  1.00  0.00     0.002 C 
HETATM   49  C1  UNL     1      16.476 -12.524   1.583  1.00  0.00     0.005 C 
ENDBRANCH  46  48
ENDBRANCH   1  46
BRANCH  26  50
HETATM   50  O6  UNL     1      17.836  -9.880   4.019  1.00  0.00    -0.348 OA
ATOM     51  H6  UNL     1      18.611 -10.042   3.494  1.00  0.00     0.219 HD
ENDBRANCH  26  50
BRANCH  23  52
HETATM   52  C31 UNL     1      13.288  -8.692   3.818  1.00  0.00     0.038 C 
BRANCH  52  53
HETATM   53  C32 UNL     1      13.561  -7.461   3.003  1.00  0.00    -0.020 C 
HETATM   54  C33 UNL     1      12.569  -7.171   1.932  1.00  0.00     0.009 C 
HETATM   55  C34 UNL     1      13.534  -6.245   3.952  1.00  0.00     0.009 C 
ENDBRANCH  52  53
ENDBRANCH  23  52
TORSDOF 13
ENDMDL
MODEL 3
REMARK VINA RESULT: -6.773055673      1.003      2.018
REMARK  13 active torsions:
REMARK  status: ('A' for Active; 'I' for Inactive)
REMARK    1  A    between atoms: C2_2  and  C3_3 
REMARK    2  A    between atoms: C3_3  and  C5_5 
REMARK    3  A    between atoms: C10_16  and  C11_17 
REMARK    4  A    between atoms: C11_17  and  C12_18 
REMARK    5  A    between atoms: C20_30  and  O3_31 
REMARK    6  A    between atoms: C22_35  and  C23_36 
REMARK    7  A    between atoms: C23_36  and  C24_37 
REMARK    8  A    between atoms: C24_37  and  C25_38 
REMARK    9  A    between atoms: C25_38  and  C26_39 
REMARK   10  A    between atoms: C26_39  and  C27_40 
REMARK   11  A    between atoms: C30_46  and  C31_47 
REMARK   12  A    between atoms: C31_47  and  C32_48 
REMARK   13  A    between atoms: C35_53  and  O6_54 
ROOT
HETATM    1  C5  UNL     1      17.530  -7.664   1.486  1.00  0.00     0.162 C 
HETATM    2  N1  UNL     1      16.802  -6.499   1.085  1.00  0.00    -0.347 N 
ATOM      3  H1  UNL     1      16.234  -6.593   0.243  1.00  0.00     0.163 HD
HETATM    4  C6  UNL     1      16.774  -5.238   1.714  1.00  0.00     0.240 C 
HETATM    5  O1  UNL     1      16.663  -4.251   0.910  1.00  0.00    -0.271 OA
HETATM    6  C7  UNL     1      16.852  -4.892   3.134  1.00  0.00     0.172 C 
HETATM    7  C8  UNL     1      16.706  -3.398   3.378  1.00  0.00     0.042 C 
HETATM    8  N2  UNL     1      18.008  -5.334   3.838  1.00  0.00    -0.346 N 
ATOM      9  H2  UNL     1      18.843  -5.492   3.274  1.00  0.00     0.163 HD
HETATM   10  C9  UNL     1      18.140  -5.582   5.222  1.00  0.00     0.241 C 
HETATM   11  O2  UNL     1      18.713  -6.688   5.557  1.00  0.00    -0.271 OA
HETATM   12  C10 UNL     1      17.718  -4.754   6.342  1.00  0.00     0.180 C 
HETATM   13  N4  UNL     1      16.620  -5.178   7.137  1.00  0.00    -0.354 N 
ATOM     14  H4  UNL     1      15.848  -4.511   7.124  1.00  0.00     0.162 HD
HETATM   15  C20 UNL     1      16.350  -6.284   7.927  1.00  0.00     0.185 C 
HETATM   16  C21 UNL     1      16.011  -7.670   7.630  1.00  0.00     0.222 C 
HETATM   17  O4  UNL     1      16.778  -8.511   8.220  1.00  0.00    -0.286 OA
HETATM   18  C22 UNL     1      14.941  -8.194   6.776  1.00  0.00     0.165 C 
HETATM   19  N5  UNL     1      15.175  -9.425   6.073  1.00  0.00    -0.343 N 
HETATM   20  C28 UNL     1      15.978 -10.434   6.806  1.00  0.00     0.153 C 
HETATM   21  C29 UNL     1      14.700  -9.820   4.816  1.00  0.00     0.243 C 
HETATM   22  O5  UNL     1      14.139 -10.980   4.707  1.00  0.00    -0.271 OA
HETATM   23  C30 UNL     1      14.737  -9.070   3.501  1.00  0.00     0.176 C 
HETATM   24  N6  UNL     1      15.975  -8.341   3.489  1.00  0.00    -0.359 N 
ATOM     25  H6  UNL     1      16.010  -7.655   4.243  1.00  0.00     0.162 HD
HETATM   26  C35 UNL     1      17.122  -8.318   2.738  1.00  0.00     0.135 C 
ENDROOT
BRANCH  12  27
HETATM   27  C11 UNL     1      18.994  -4.513   7.156  1.00  0.00     0.075 C 
BRANCH  27  28
HETATM   28  C12 UNL     1      18.910  -3.382   8.063  1.00  0.00    -0.028 A 
HETATM   29  C13 UNL     1      18.588  -2.079   7.730  1.00  0.00     0.096 A 
HETATM   30  N3  UNL     1      18.623  -1.338   8.864  1.00  0.00    -0.365 N 
HETATM   31  C14 UNL     1      18.956  -2.113   9.913  1.00  0.00     0.042 A 
ATOM     32  H3  UNL     1      18.426  -0.338   8.916  1.00  0.00     0.165 HD
HETATM   33  C15 UNL     1      19.118  -1.808  11.247  1.00  0.00     0.030 A 
HETATM   34  C19 UNL     1      19.136  -3.391   9.417  1.00  0.00    -0.002 A 
HETATM   35  C16 UNL     1      19.473  -2.798  12.131  1.00  0.00     0.002 A 
HETATM   36  C17 UNL     1      19.661  -4.083  11.672  1.00  0.00     0.001 A 
HETATM   37  C18 UNL     1      19.491  -4.365  10.328  1.00  0.00     0.014 A 
ENDBRANCH  27  28
ENDBRANCH  12  27
BRANCH  15  38
HETATM   38  O3  UNL     1      16.402  -6.063   9.231  1.00  0.00    -0.344 OA
ATOM     39  H3  UNL     1      16.446  -5.148   9.481  1.00  0.00     0.219 HD
ENDBRANCH  15  38
BRANCH  18  40
HETATM   40  C23 UNL     1      13.654  -8.549   7.608  1.00  0.00     0.034 C 
BRANCH  40  41
HETATM   41  C24 UNL     1      12.484  -7.747   7.246  1.00  0.00     0.002 C 
BRANCH  41  42
HETATM   42  C25 UNL     1      12.496  -6.386   7.853  1.00  0.00     0.001 C 
BRANCH  42  43
HETATM   43  C26 UNL     1      11.476  -5.965   8.798  1.00  0.00     0.011 C 
BRANCH  43  44
HETATM   44  C27 UNL     1      10.711  -6.910   9.625  1.00  0.00     0.086 C 
HETATM   45  S1  UNL     1       9.981  -6.148  11.107  1.00  0.00    -0.098 SA
ENDBRANCH  43  44
ENDBRANCH  42  43
ENDBRANCH  41  42
ENDBRANCH  40  41
ENDBRANCH  18  40
BRANCH   1  46
HETATM   46  C3  UNL     1      17.754  -8.697   0.424  1.00  0.00     0.012 C 
HETATM   47  C4  UNL     1      19.167  -8.566  -0.173  1.00  0.00     0.012 C 
BRANCH  46  48
HETATM   48  C2  UNL     1      16.740  -8.803  -0.646  1.00  0.00     0.002 C 
HETATM   49  C1  UNL     1      15.619  -9.754  -0.185  1.00  0.00     0.005 C 
ENDBRANCH  46  48
ENDBRANCH   1  46
BRANCH  26  50
HETATM   50  O6  UNL     1      18.114  -9.034   3.220  1.00  0.00    -0.348 OA
ATOM     51  H6  UNL     1      18.315  -8.760   4.107  1.00  0.00     0.219 HD
ENDBRANCH  26  50
BRANCH  23  52
HETATM   52  C31 UNL     1      13.482  -8.260   3.480  1.00  0.00     0.038 C 
BRANCH  52  53
HETATM   53  C32 UNL     1      13.311  -7.314   2.326  1.00  0.00    -0.020 C 
HETATM   54  C33 UNL     1      12.026  -7.437   1.585  1.00  0.00     0.009 C 
HETATM   55  C34 UNL     1      13.350  -5.875   2.879  1.00  0.00     0.009 C 
ENDBRANCH  52  53
ENDBRANCH  23  52
TORSDOF 13
ENDMDL
MODEL 4
REMARK VINA RESULT: -6.666548541      3.019      7.826
REMARK  13 active torsions:
REMARK  status: ('A' for Active; 'I' for Inactive)
REMARK    1  A    between atoms: C2_2  and  C3_3 
REMARK    2  A    between atoms: C3_3  and  C5_5 
REMARK    3  A    between atoms: C10_16  and  C11_17 
REMARK    4  A    between atoms: C11_17  and  C12_18 
REMARK    5  A    between atoms: C20_30  and  O3_31 
REMARK    6  A    between atoms: C22_35  and  C23_36 
REMARK    7  A    between atoms: C23_36  and  C24_37 
REMARK    8  A    between atoms: C24_37  and  C25_38 
REMARK    9  A    between atoms: C25_38  and  C26_39 
REMARK   10  A    between atoms: C26_39  and  C27_40 
REMARK   11  A    between atoms: C30_46  and  C31_47 
REMARK   12  A    between atoms: C31_47  and  C32_48 
REMARK   13  A    between atoms: C35_53  and  O6_54 
ROOT
HETATM    1  C5  UNL     1      16.465  -8.700   6.721  1.00  0.00     0.162 C 
HETATM    2  N1  UNL     1      15.083  -8.403   6.948  1.00  0.00    -0.347 N 
ATOM      3  H1  UNL     1      14.669  -8.808   7.787  1.00  0.00     0.163 HD
HETATM    4  C6  UNL     1      14.227  -7.618   6.151  1.00  0.00     0.240 C 
HETATM    5  O1  UNL     1      13.013  -8.018   6.132  1.00  0.00    -0.271 OA
HETATM    6  C7  UNL     1      14.513  -6.426   5.350  1.00  0.00     0.172 C 
HETATM    7  C8  UNL     1      13.267  -5.847   4.702  1.00  0.00     0.042 C 
HETATM    8  N2  UNL     1      15.506  -6.559   4.338  1.00  0.00    -0.346 N 
ATOM      9  H2  UNL     1      15.652  -7.501   3.976  1.00  0.00     0.163 HD
HETATM   10  C9  UNL     1      16.312  -5.546   3.774  1.00  0.00     0.241 C 
HETATM   11  O2  UNL     1      17.572  -5.803   3.672  1.00  0.00    -0.271 OA
HETATM   12  C10 UNL     1      15.918  -4.235   3.281  1.00  0.00     0.180 C 
HETATM   13  N4  UNL     1      16.297  -3.080   4.016  1.00  0.00    -0.354 N 
ATOM     14  H4  UNL     1      15.493  -2.542   4.339  1.00  0.00     0.162 HD
HETATM   15  C20 UNL     1      17.501  -2.512   4.397  1.00  0.00     0.185 C 
HETATM   16  C21 UNL     1      18.498  -2.854   5.406  1.00  0.00     0.222 C 
HETATM   17  O4  UNL     1      19.682  -2.951   4.927  1.00  0.00    -0.286 OA
HETATM   18  C22 UNL     1      18.313  -3.085   6.841  1.00  0.00     0.165 C 
HETATM   19  N5  UNL     1      19.172  -4.036   7.491  1.00  0.00    -0.343 N 
HETATM   20  C28 UNL     1      20.571  -4.070   7.000  1.00  0.00     0.153 C 
HETATM   21  C29 UNL     1      18.881  -4.890   8.562  1.00  0.00     0.243 C 
HETATM   22  O5  UNL     1      19.692  -4.913   9.569  1.00  0.00    -0.271 OA
HETATM   23  C30 UNL     1      17.712  -5.836   8.740  1.00  0.00     0.176 C 
HETATM   24  N6  UNL     1      17.419  -6.362   7.436  1.00  0.00    -0.359 N 
ATOM     25  H6  UNL     1      17.131  -5.625   6.793  1.00  0.00     0.162 HD
HETATM   26  C35 UNL     1      17.421  -7.589   6.822  1.00  0.00     0.135 C 
ENDROOT
BRANCH  12  27
HETATM   27  C11 UNL     1      16.392  -4.204   1.823  1.00  0.00     0.075 C 
BRANCH  27  28
HETATM   28  C12 UNL     1      15.457  -4.802   0.886  1.00  0.00    -0.028 A 
HETATM   29  C13 UNL     1      14.090  -4.926   1.050  1.00  0.00     0.096 A 
HETATM   30  N3  UNL     1      13.592  -5.541  -0.050  1.00  0.00    -0.365 N 
HETATM   31  C14 UNL     1      14.586  -5.819  -0.913  1.00  0.00     0.042 A 
ATOM     32  H3  UNL     1      12.608  -5.762  -0.201  1.00  0.00     0.165 HD
HETATM   33  C15 UNL     1      14.567  -6.434  -2.147  1.00  0.00     0.030 A 
HETATM   34  C19 UNL     1      15.753  -5.359  -0.333  1.00  0.00    -0.002 A 
HETATM   35  C16 UNL     1      15.741  -6.605  -2.838  1.00  0.00     0.002 A 
HETATM   36  C17 UNL     1      16.923  -6.159  -2.290  1.00  0.00     0.001 A 
HETATM   37  C18 UNL     1      16.917  -5.543  -1.050  1.00  0.00     0.014 A 
ENDBRANCH  27  28
ENDBRANCH  12  27
BRANCH  15  38
HETATM   38  O3  UNL     1      17.845  -1.427   3.721  1.00  0.00    -0.344 OA
ATOM     39  H3  UNL     1      18.653  -1.017   4.007  1.00  0.00     0.219 HD
ENDBRANCH  15  38
BRANCH  18  40
HETATM   40  C23 UNL     1      18.593  -1.785   7.681  1.00  0.00     0.034 C 
BRANCH  40  41
HETATM   41  C24 UNL     1      17.710  -0.668   7.342  1.00  0.00     0.002 C 
BRANCH  41  42
HETATM   42  C25 UNL     1      18.448   0.586   7.021  1.00  0.00     0.001 C 
BRANCH  42  43
HETATM   43  C26 UNL     1      19.327   1.222   7.988  1.00  0.00     0.011 C 
BRANCH  43  44
HETATM   44  C27 UNL     1      18.889   2.313   8.871  1.00  0.00     0.086 C 
HETATM   45  S1  UNL     1      17.975   1.737  10.335  1.00  0.00    -0.098 SA
ENDBRANCH  43  44
ENDBRANCH  42  43
ENDBRANCH  41  42
ENDBRANCH  40  41
ENDBRANCH  18  40
BRANCH   1  46
HETATM   46  C3  UNL     1      17.005  -9.900   7.439  1.00  0.00     0.012 C 
HETATM   47  C4  UNL     1      17.714 -10.850   6.456  1.00  0.00     0.012 C 
BRANCH  46  48
HETATM   48  C2  UNL     1      16.074 -10.647   8.311  1.00  0.00     0.002 C 
HETATM   49  C1  UNL     1      16.730 -11.978   8.727  1.00  0.00     0.005 C 
ENDBRANCH  46  48
ENDBRANCH   1  46
BRANCH  26  50
HETATM   50  O6  UNL     1      18.517  -7.871   6.152  1.00  0.00    -0.348 OA
ATOM     51  H6  UNL     1      18.419  -7.617   5.242  1.00  0.00     0.219 HD
ENDBRANCH  26  50
BRANCH  23  52
HETATM   52  C31 UNL     1      16.644  -5.016   9.388  1.00  0.00     0.038 C 
BRANCH  52  53
HETATM   53  C32 UNL     1      16.569  -5.070  10.886  1.00  0.00    -0.020 C 
HETATM   54  C33 UNL     1      17.343  -6.171  11.524  1.00  0.00     0.009 C 
HETATM   55  C34 UNL     1      17.158  -3.757  11.441  1.00  0.00     0.009 C 
ENDBRANCH  52  53
ENDBRANCH  23  52
TORSDOF 13
ENDMDL
MODEL 5
REMARK VINA RESULT: -6.595219847      1.281      1.572
REMARK  13 active torsions:
REMARK  status: ('A' for Active; 'I' for Inactive)
REMARK    1  A    between atoms: C2_2  and  C3_3 
REMARK    2  A    between atoms: C3_3  and  C5_5 
REMARK    3  A    between atoms: C10_16  and  C11_17 
REMARK    4  A    between atoms: C11_17  and  C12_18 
REMARK    5  A    between atoms: C20_30  and  O3_31 
REMARK    6  A    between atoms: C22_35  and  C23_36 
REMARK    7  A    between atoms: C23_36  and  C24_37 
REMARK    8  A    between atoms: C24_37  and  C25_38 
REMARK    9  A    between atoms: C25_38  and  C26_39 
REMARK   10  A    between atoms: C26_39  and  C27_40 
REMARK   11  A    between atoms: C30_46  and  C31_47 
REMARK   12  A    between atoms: C31_47  and  C32_48 
REMARK   13  A    between atoms: C35_53  and  O6_54 
ROOT
HETATM    1  C5  UNL     1      17.743  -7.343   1.349  1.00  0.00     0.162 C 
HETATM    2  N1  UNL     1      16.867  -6.264   1.012  1.00  0.00    -0.347 N 
ATOM      3  H1  UNL     1      16.310  -6.385   0.166  1.00  0.00     0.163 HD
HETATM    4  C6  UNL     1      16.681  -5.053   1.708  1.00  0.00     0.240 C 
HETATM    5  O1  UNL     1      16.436  -4.047   0.958  1.00  0.00    -0.271 OA
HETATM    6  C7  UNL     1      16.724  -4.775   3.145  1.00  0.00     0.172 C 
HETATM    7  C8  UNL     1      16.387  -3.328   3.469  1.00  0.00     0.042 C 
HETATM    8  N2  UNL     1      17.933  -5.101   3.823  1.00  0.00    -0.346 N 
ATOM      9  H2  UNL     1      18.777  -5.118   3.251  1.00  0.00     0.163 HD
HETATM   10  C9  UNL     1      18.107  -5.403   5.192  1.00  0.00     0.241 C 
HETATM   11  O2  UNL     1      18.821  -6.441   5.466  1.00  0.00    -0.271 OA
HETATM   12  C10 UNL     1      17.589  -4.698   6.354  1.00  0.00     0.180 C 
HETATM   13  N4  UNL     1      16.561  -5.303   7.127  1.00  0.00    -0.354 N 
ATOM     14  H4  UNL     1      15.710  -4.742   7.149  1.00  0.00     0.162 HD
HETATM   15  C20 UNL     1      16.444  -6.474   7.855  1.00  0.00     0.185 C 
HETATM   16  C21 UNL     1      16.285  -7.875   7.485  1.00  0.00     0.222 C 
HETATM   17  O4  UNL     1      17.159  -8.639   8.028  1.00  0.00    -0.286 OA
HETATM   18  C22 UNL     1      15.286  -8.488   6.605  1.00  0.00     0.165 C 
HETATM   19  N5  UNL     1      15.672  -9.639   5.836  1.00  0.00    -0.343 N 
HETATM   20  C28 UNL     1      16.605 -10.572   6.513  1.00  0.00     0.153 C 
HETATM   21  C29 UNL     1      15.242 -10.024   4.560  1.00  0.00     0.243 C 
HETATM   22  O5  UNL     1      14.836 -11.239   4.389  1.00  0.00    -0.271 OA
HETATM   23  C30 UNL     1      15.172  -9.207   3.287  1.00  0.00     0.176 C 
HETATM   24  N6  UNL     1      16.304  -8.324   3.314  1.00  0.00    -0.359 N 
ATOM     25  H6  UNL     1      16.256  -7.680   4.103  1.00  0.00     0.162 HD
HETATM   26  C35 UNL     1      17.433  -8.111   2.564  1.00  0.00     0.135 C 
ENDROOT
BRANCH  12  27
HETATM   27  C11 UNL     1      18.829  -4.336   7.180  1.00  0.00     0.075 C 
BRANCH  27  28
HETATM   28  C12 UNL     1      18.849  -2.960   7.643  1.00  0.00    -0.028 A 
HETATM   29  C13 UNL     1      18.736  -2.528   8.951  1.00  0.00     0.096 A 
HETATM   30  N3  UNL     1      18.800  -1.174   8.950  1.00  0.00    -0.365 N 
HETATM   31  C14 UNL     1      18.949  -0.720   7.692  1.00  0.00     0.042 A 
ATOM     32  H3  UNL     1      18.743  -0.585   9.781  1.00  0.00     0.165 HD
HETATM   33  C15 UNL     1      19.055   0.564   7.201  1.00  0.00     0.030 A 
HETATM   34  C19 UNL     1      18.980  -1.831   6.872  1.00  0.00    -0.002 A 
HETATM   35  C16 UNL     1      19.197   0.764   5.850  1.00  0.00     0.002 A 
HETATM   36  C17 UNL     1      19.233  -0.321   5.002  1.00  0.00     0.001 A 
HETATM   37  C18 UNL     1      19.125  -1.600   5.519  1.00  0.00     0.014 A 
ENDBRANCH  27  28
ENDBRANCH  12  27
BRANCH  15  38
HETATM   38  O3  UNL     1      16.477  -6.319   9.170  1.00  0.00    -0.344 OA
ATOM     39  H3  UNL     1      15.882  -6.880   9.654  1.00  0.00     0.219 HD
ENDBRANCH  15  38
BRANCH  18  40
HETATM   40  C23 UNL     1      14.062  -9.051   7.417  1.00  0.00     0.034 C 
BRANCH  40  41
HETATM   41  C24 UNL     1      12.861  -8.220   7.316  1.00  0.00     0.002 C 
BRANCH  41  42
HETATM   42  C25 UNL     1      11.630  -9.005   7.018  1.00  0.00     0.001 C 
BRANCH  42  43
HETATM   43  C26 UNL     1      11.502  -9.790   5.802  1.00  0.00     0.011 C 
BRANCH  43  44
HETATM   44  C27 UNL     1      11.537 -11.260   5.790  1.00  0.00     0.086 C 
HETATM   45  S1  UNL     1      11.348 -12.001   7.442  1.00  0.00    -0.098 SA
ENDBRANCH  43  44
ENDBRANCH  42  43
ENDBRANCH  41  42
ENDBRANCH  40  41
ENDBRANCH  18  40
BRANCH   1  46
HETATM   46  C3  UNL     1      18.092  -8.281   0.233  1.00  0.00     0.012 C 
HETATM   47  C4  UNL     1      18.725  -7.516  -0.943  1.00  0.00     0.012 C 
BRANCH  46  48
HETATM   48  C2  UNL     1      17.031  -9.192  -0.245  1.00  0.00     0.002 C 
HETATM   49  C1  UNL     1      17.507 -10.649  -0.086  1.00  0.00     0.005 C 
ENDBRANCH  46  48
ENDBRANCH   1  46
BRANCH  26  50
HETATM   50  O6  UNL     1      18.514  -8.717   3.006  1.00  0.00    -0.348 OA
ATOM     51  H6  UNL     1      19.112  -8.885   2.288  1.00  0.00     0.219 HD
ENDBRANCH  26  50
BRANCH  23  52
HETATM   52  C31 UNL     1      13.822  -8.567   3.311  1.00  0.00     0.038 C 
BRANCH  52  53
HETATM   53  C32 UNL     1      13.761  -7.113   2.941  1.00  0.00    -0.020 C 
HETATM   54  C33 UNL     1      12.690  -6.744   1.976  1.00  0.00     0.009 C 
HETATM   55  C34 UNL     1      13.476  -6.306   4.225  1.00  0.00     0.009 C 
ENDBRANCH  52  53
ENDBRANCH  23  52
TORSDOF 13
ENDMDL
