MODEL 1
REMARK VINA RESULT: -6.538422727      0.000      0.000
REMARK  15 active torsions:
REMARK  status: ('A' for Active; 'I' for Inactive)
REMARK    1  A    between atoms: C2_2  and  C4_4 
REMARK    2  A    between atoms: C4_4  and  C5_5 
REMARK    3  A    between atoms: C6_8  and  O1_9 
REMARK    4  A    between atoms: C7_11  and  C8_12 
REMARK    5  A    between atoms: C12_19  and  C13_20 
REMARK    6  A    between atoms: C13_20  and  C14_21 
REMARK    7  A    between atoms: C14_21  and  C15_22 
REMARK    8  A    between atoms: C15_22  and  C16_23 
REMARK    9  A    between atoms: C16_23  and  N3_24 
REMARK   10  A    between atoms: N3_24  and  C17_26 
REMARK   11  A    between atoms: C20_31  and  C21_32 
REMARK   12  A    between atoms: C25_39  and  C26_40 
REMARK   13  A    between atoms: C26_40  and  C27_41 
REMARK   14  A    between atoms: C30_46  and  O6_47 
REMARK   15  A    between atoms: C31_49  and  C32_50 
ROOT
HETATM    1  C5  UNL     1      17.708  -3.688   4.136  1.00  0.00     0.175 C 
HETATM    2  N1  UNL     1      18.414  -4.504   5.057  1.00  0.00    -0.359 N 
ATOM      3  H1  UNL     1      19.293  -4.090   5.368  1.00  0.00     0.162 HD
HETATM    4  C6  UNL     1      18.163  -5.744   5.624  1.00  0.00     0.135 C 
HETATM    5  C7  UNL     1      17.018  -6.377   6.247  1.00  0.00     0.162 C 
HETATM    6  N2  UNL     1      15.724  -5.825   6.071  1.00  0.00    -0.348 N 
ATOM      7  H2  UNL     1      15.623  -4.828   6.261  1.00  0.00     0.163 HD
HETATM    8  C11 UNL     1      14.570  -6.508   5.663  1.00  0.00     0.222 C 
HETATM    9  O2  UNL     1      13.685  -5.834   5.031  1.00  0.00    -0.273 OA
HETATM   10  C12 UNL     1      14.229  -7.926   5.871  1.00  0.00     0.085 C 
HETATM   11  C18 UNL     1      14.458  -8.608   4.514  1.00  0.00     0.099 C 
HETATM   12  C19 UNL     1      14.519 -10.064   4.604  1.00  0.00     0.176 C 
HETATM   13  O4  UNL     1      14.262 -10.537   5.730  1.00  0.00    -0.291 OA
HETATM   14  C20 UNL     1      14.855 -10.951   3.469  1.00  0.00     0.082 C 
HETATM   15  N4  UNL     1      16.112 -10.696   2.840  1.00  0.00    -0.322 N 
ATOM     16  H4  UNL     1      16.899 -10.854   3.470  1.00  0.00     0.169 HD
HETATM   17  C24 UNL     1      16.518 -10.289   1.589  1.00  0.00     0.245 C 
HETATM   18  O5  UNL     1      17.059 -11.142   0.817  1.00  0.00    -0.271 OA
HETATM   19  C25 UNL     1      16.437  -8.927   0.925  1.00  0.00     0.176 C 
HETATM   20  N5  UNL     1      17.759  -8.350   0.917  1.00  0.00    -0.359 N 
ATOM     21  H5  UNL     1      18.370  -8.722   0.190  1.00  0.00     0.162 HD
HETATM   22  C30 UNL     1      18.354  -7.383   1.715  1.00  0.00     0.135 C 
HETATM   23  C31 UNL     1      18.114  -5.950   1.890  1.00  0.00     0.162 C 
HETATM   24  N6  UNL     1      16.905  -5.587   2.590  1.00  0.00    -0.347 N 
ATOM     25  H6  UNL     1      16.136  -6.257   2.590  1.00  0.00     0.163 HD
HETATM   26  C35 UNL     1      16.718  -4.370   3.271  1.00  0.00     0.241 C 
HETATM   27  O7  UNL     1      15.590  -3.795   3.136  1.00  0.00    -0.271 OA
ENDROOT
BRANCH  10  28
HETATM   28  C13 UNL     1      12.767  -8.075   6.282  1.00  0.00     0.014 C 
BRANCH  28  29
HETATM   29  C14 UNL     1      12.638  -8.469   7.734  1.00  0.00     0.002 C 
BRANCH  29  30
HETATM   30  C15 UNL     1      11.585  -7.527   8.336  1.00  0.00     0.020 C 
BRANCH  30  31
HETATM   31  C16 UNL     1      12.080  -6.114   8.371  1.00  0.00     0.122 C 
BRANCH  31  32
HETATM   32  N3  UNL     1      11.146  -5.311   9.132  1.00  0.00    -0.368 N 
ATOM     33  H3  UNL     1      11.240  -4.296   9.081  1.00  0.00     0.161 HD
BRANCH  32  34
HETATM   34  C17 UNL     1      10.111  -5.837   9.942  1.00  0.00     0.348 C 
HETATM   35  O3  UNL     1       9.879  -5.508  11.122  1.00  0.00    -0.284 OA
ENDBRANCH  32  34
ENDBRANCH  31  32
ENDBRANCH  30  31
ENDBRANCH  29  30
ENDBRANCH  28  29
ENDBRANCH  10  28
BRANCH   5  36
HETATM   36  C8  UNL     1      17.194  -6.625   7.738  1.00  0.00     0.008 C 
HETATM   37  C9  UNL     1      16.461  -5.590   8.564  1.00  0.00     0.012 C 
HETATM   38  C10 UNL     1      16.888  -8.025   8.160  1.00  0.00     0.012 C 
ENDBRANCH   5  36
BRANCH  14  39
HETATM   39  C21 UNL     1      13.664 -11.218   2.645  1.00  0.00    -0.057 C 
HETATM   40  C22 UNL     1      12.796  -9.985   2.419  1.00  0.00     0.045 C 
HETATM   41  C23 UNL     1      12.872 -12.447   2.916  1.00  0.00     0.045 C 
ENDBRANCH  14  39
BRANCH   4  42
HETATM   42  O1  UNL     1      19.217  -6.524   5.583  1.00  0.00    -0.348 OA
ATOM     43  H1  UNL     1      19.656  -6.572   6.425  1.00  0.00     0.219 HD
ENDBRANCH   4  42
BRANCH   1  44
HETATM   44  C4  UNL     1      17.129  -2.476   4.744  1.00  0.00     0.038 C 
BRANCH  44  45
HETATM   45  C2  UNL     1      17.779  -1.159   4.493  1.00  0.00    -0.020 C 
HETATM   46  C1  UNL     1      17.329  -0.273   5.697  1.00  0.00     0.009 C 
HETATM   47  C3  UNL     1      19.285  -1.152   4.605  1.00  0.00     0.009 C 
ENDBRANCH  44  45
ENDBRANCH   1  44
BRANCH  19  48
HETATM   48  C26 UNL     1      15.687  -8.977  -0.356  1.00  0.00     0.038 C 
BRANCH  48  49
HETATM   49  C27 UNL     1      14.440  -8.246  -0.573  1.00  0.00    -0.020 C 
HETATM   50  C28 UNL     1      14.341  -7.273   0.664  1.00  0.00     0.009 C 
HETATM   51  C29 UNL     1      14.470  -7.351  -1.765  1.00  0.00     0.009 C 
ENDBRANCH  48  49
ENDBRANCH  19  48
BRANCH  22  52
HETATM   52  O6  UNL     1      19.327  -7.842   2.461  1.00  0.00    -0.348 OA
ATOM     53  H6  UNL     1      19.323  -7.500   3.347  1.00  0.00     0.219 HD
ENDBRANCH  22  52
BRANCH  23  54
HETATM   54  C32 UNL     1      18.269  -5.097   0.665  1.00  0.00     0.008 C 
HETATM   55  C33 UNL     1      17.165  -5.141  -0.317  1.00  0.00     0.012 C 
HETATM   56  C34 UNL     1      19.580  -5.348  -0.047  1.00  0.00     0.012 C 
ENDBRANCH  23  54
TORSDOF 15
ENDMDL
MODEL 2
REMARK VINA RESULT: -6.057007666      2.356      7.398
REMARK  15 active torsions:
REMARK  status: ('A' for Active; 'I' for Inactive)
REMARK    1  A    between atoms: C2_2  and  C4_4 
REMARK    2  A    between atoms: C4_4  and  C5_5 
REMARK    3  A    between atoms: C6_8  and  O1_9 
REMARK    4  A    between atoms: C7_11  and  C8_12 
REMARK    5  A    between atoms: C12_19  and  C13_20 
REMARK    6  A    between atoms: C13_20  and  C14_21 
REMARK    7  A    between atoms: C14_21  and  C15_22 
REMARK    8  A    between atoms: C15_22  and  C16_23 
REMARK    9  A    between atoms: C16_23  and  N3_24 
REMARK   10  A    between atoms: N3_24  and  C17_26 
REMARK   11  A    between atoms: C20_31  and  C21_32 
REMARK   12  A    between atoms: C25_39  and  C26_40 
REMARK   13  A    between atoms: C26_40  and  C27_41 
REMARK   14  A    between atoms: C30_46  and  O6_47 
REMARK   15  A    between atoms: C31_49  and  C32_50 
ROOT
HETATM    1  C5  UNL     1      14.027  -6.624   0.751  1.00  0.00     0.175 C 
HETATM    2  N1  UNL     1      15.291  -7.214   0.493  1.00  0.00    -0.359 N 
ATOM      3  H1  UNL     1      15.328  -7.710  -0.398  1.00  0.00     0.162 HD
HETATM    4  C6  UNL     1      16.487  -7.259   1.193  1.00  0.00     0.135 C 
HETATM    5  C7  UNL     1      17.305  -6.291   1.893  1.00  0.00     0.162 C 
HETATM    6  N2  UNL     1      16.759  -5.032   2.252  1.00  0.00    -0.348 N 
ATOM      7  H2  UNL     1      16.290  -4.510   1.513  1.00  0.00     0.163 HD
HETATM    8  C11 UNL     1      16.798  -4.432   3.518  1.00  0.00     0.222 C 
HETATM    9  O2  UNL     1      15.839  -3.641   3.819  1.00  0.00    -0.273 OA
HETATM   10  C12 UNL     1      17.816  -4.591   4.571  1.00  0.00     0.085 C 
HETATM   11  C18 UNL     1      17.181  -5.512   5.623  1.00  0.00     0.099 C 
HETATM   12  C19 UNL     1      18.151  -6.072   6.560  1.00  0.00     0.176 C 
HETATM   13  O4  UNL     1      19.314  -5.634   6.444  1.00  0.00    -0.291 OA
HETATM   14  C20 UNL     1      17.822  -7.084   7.587  1.00  0.00     0.082 C 
HETATM   15  N4  UNL     1      17.238  -8.292   7.096  1.00  0.00    -0.322 N 
ATOM     16  H4  UNL     1      17.871  -8.809   6.487  1.00  0.00     0.169 HD
HETATM   17  C24 UNL     1      16.025  -8.925   7.247  1.00  0.00     0.245 C 
HETATM   18  O5  UNL     1      15.971  -9.976   7.962  1.00  0.00    -0.271 OA
HETATM   19  C25 UNL     1      14.659  -8.582   6.679  1.00  0.00     0.176 C 
HETATM   20  N5  UNL     1      14.368  -9.511   5.614  1.00  0.00    -0.359 N 
ATOM     21  H5  UNL     1      14.058 -10.428   5.936  1.00  0.00     0.162 HD
HETATM   22  C30 UNL     1      14.432  -9.389   4.234  1.00  0.00     0.135 C 
HETATM   23  C31 UNL     1      13.675  -8.591   3.268  1.00  0.00     0.162 C 
HETATM   24  N6  UNL     1      13.938  -7.172   3.268  1.00  0.00    -0.347 N 
ATOM     25  H6  UNL     1      14.310  -6.757   4.123  1.00  0.00     0.163 HD
HETATM   26  C35 UNL     1      13.715  -6.323   2.168  1.00  0.00     0.241 C 
HETATM   27  O7  UNL     1      13.194  -5.186   2.406  1.00  0.00    -0.271 OA
ENDROOT
BRANCH  10  28
HETATM   28  C13 UNL     1      18.153  -3.244   5.203  1.00  0.00     0.014 C 
BRANCH  28  29
HETATM   29  C14 UNL     1      18.941  -2.370   4.256  1.00  0.00     0.002 C 
BRANCH  29  30
HETATM   30  C15 UNL     1      18.331  -0.965   4.370  1.00  0.00     0.020 C 
BRANCH  30  31
HETATM   31  C16 UNL     1      19.308   0.003   4.962  1.00  0.00     0.122 C 
BRANCH  31  32
HETATM   32  N3  UNL     1      18.687   0.661   6.092  1.00  0.00    -0.368 N 
ATOM     33  H3  UNL     1      18.552   1.671   6.038  1.00  0.00     0.161 HD
BRANCH  32  34
HETATM   34  C17 UNL     1      18.254  -0.001   7.267  1.00  0.00     0.348 C 
HETATM   35  O3  UNL     1      17.066  -0.215   7.579  1.00  0.00    -0.284 OA
ENDBRANCH  32  34
ENDBRANCH  31  32
ENDBRANCH  30  31
ENDBRANCH  29  30
ENDBRANCH  28  29
ENDBRANCH  10  28
BRANCH   5  36
HETATM   36  C8  UNL     1      18.641  -6.016   1.215  1.00  0.00     0.008 C 
HETATM   37  C9  UNL     1      19.373  -7.300   0.890  1.00  0.00     0.012 C 
HETATM   38  C10 UNL     1      18.548  -5.090   0.047  1.00  0.00     0.012 C 
ENDBRANCH   5  36
BRANCH  14  39
HETATM   39  C21 UNL     1      17.275  -6.443   8.795  1.00  0.00    -0.057 C 
HETATM   40  C22 UNL     1      16.062  -5.562   8.516  1.00  0.00     0.045 C 
HETATM   41  C23 UNL     1      18.222  -5.840   9.771  1.00  0.00     0.045 C 
ENDBRANCH  14  39
BRANCH   4  42
HETATM   42  O1  UNL     1      16.991  -8.471   1.224  1.00  0.00    -0.348 OA
ATOM     43  H1  UNL     1      17.809  -8.502   1.706  1.00  0.00     0.219 HD
ENDBRANCH   4  42
BRANCH   1  44
HETATM   44  C4  UNL     1      13.729  -5.465  -0.110  1.00  0.00     0.038 C 
BRANCH  44  45
HETATM   45  C2  UNL     1      12.836  -5.650  -1.288  1.00  0.00    -0.020 C 
HETATM   46  C1  UNL     1      13.816  -5.840  -2.487  1.00  0.00     0.009 C 
HETATM   47  C3  UNL     1      12.033  -6.929  -1.293  1.00  0.00     0.009 C 
ENDBRANCH  44  45
ENDBRANCH   1  44
BRANCH  19  48
HETATM   48  C26 UNL     1      13.644  -8.400   7.747  1.00  0.00     0.038 C 
BRANCH  48  49
HETATM   49  C27 UNL     1      12.409  -7.643   7.546  1.00  0.00    -0.020 C 
HETATM   50  C28 UNL     1      11.388  -8.293   8.557  1.00  0.00     0.009 C 
HETATM   51  C29 UNL     1      12.507  -6.215   7.962  1.00  0.00     0.009 C 
ENDBRANCH  48  49
ENDBRANCH  19  48
BRANCH  22  52
HETATM   52  O6  UNL     1      15.352 -10.138   3.681  1.00  0.00    -0.348 OA
ATOM     53  H6  UNL     1      15.964  -9.653   3.139  1.00  0.00     0.219 HD
ENDBRANCH  22  52
BRANCH  23  54
HETATM   54  C32 UNL     1      12.195  -8.835   3.223  1.00  0.00     0.008 C 
HETATM   55  C33 UNL     1      11.612  -9.590   4.351  1.00  0.00     0.012 C 
HETATM   56  C34 UNL     1      11.757  -9.467   1.920  1.00  0.00     0.012 C 
ENDBRANCH  23  54
TORSDOF 15
ENDMDL
MODEL 3
REMARK VINA RESULT: -6.045614905      1.483      1.923
REMARK  15 active torsions:
REMARK  status: ('A' for Active; 'I' for Inactive)
REMARK    1  A    between atoms: C2_2  and  C4_4 
REMARK    2  A    between atoms: C4_4  and  C5_5 
REMARK    3  A    between atoms: C6_8  and  O1_9 
REMARK    4  A    between atoms: C7_11  and  C8_12 
REMARK    5  A    between atoms: C12_19  and  C13_20 
REMARK    6  A    between atoms: C13_20  and  C14_21 
REMARK    7  A    between atoms: C14_21  and  C15_22 
REMARK    8  A    between atoms: C15_22  and  C16_23 
REMARK    9  A    between atoms: C16_23  and  N3_24 
REMARK   10  A    between atoms: N3_24  and  C17_26 
REMARK   11  A    between atoms: C20_31  and  C21_32 
REMARK   12  A    between atoms: C25_39  and  C26_40 
REMARK   13  A    between atoms: C26_40  and  C27_41 
REMARK   14  A    between atoms: C30_46  and  O6_47 
REMARK   15  A    between atoms: C31_49  and  C32_50 
ROOT
HETATM    1  C5  UNL     1      17.794  -3.657   4.031  1.00  0.00     0.175 C 
HETATM    2  N1  UNL     1      18.487  -4.426   5.001  1.00  0.00    -0.359 N 
ATOM      3  H1  UNL     1      19.373  -4.008   5.287  1.00  0.00     0.162 HD
HETATM    4  C6  UNL     1      18.217  -5.625   5.644  1.00  0.00     0.135 C 
HETATM    5  C7  UNL     1      17.063  -6.199   6.305  1.00  0.00     0.162 C 
HETATM    6  N2  UNL     1      15.778  -5.639   6.095  1.00  0.00    -0.348 N 
ATOM      7  H2  UNL     1      15.693  -4.631   6.223  1.00  0.00     0.163 HD
HETATM    8  C11 UNL     1      14.613  -6.327   5.731  1.00  0.00     0.222 C 
HETATM    9  O2  UNL     1      13.738  -5.679   5.057  1.00  0.00    -0.273 OA
HETATM   10  C12 UNL     1      14.249  -7.724   6.026  1.00  0.00     0.085 C 
HETATM   11  C18 UNL     1      14.466  -8.492   4.714  1.00  0.00     0.099 C 
HETATM   12  C19 UNL     1      14.504  -9.940   4.893  1.00  0.00     0.176 C 
HETATM   13  O4  UNL     1      14.241 -10.339   6.047  1.00  0.00    -0.291 OA
HETATM   14  C20 UNL     1      14.825 -10.901   3.815  1.00  0.00     0.082 C 
HETATM   15  N4  UNL     1      16.085 -10.706   3.172  1.00  0.00    -0.322 N 
ATOM     16  H4  UNL     1      16.870 -10.837   3.810  1.00  0.00     0.169 HD
HETATM   17  C24 UNL     1      16.496 -10.384   1.899  1.00  0.00     0.245 C 
HETATM   18  O5  UNL     1      17.023 -11.291   1.181  1.00  0.00    -0.271 OA
HETATM   19  C25 UNL     1      16.436  -9.064   1.151  1.00  0.00     0.176 C 
HETATM   20  N5  UNL     1      17.768  -8.510   1.107  1.00  0.00    -0.359 N 
ATOM     21  H5  UNL     1      18.372  -8.936   0.405  1.00  0.00     0.162 HD
HETATM   22  C30 UNL     1      18.379  -7.505   1.844  1.00  0.00     0.135 C 
HETATM   23  C31 UNL     1      18.162  -6.061   1.930  1.00  0.00     0.162 C 
HETATM   24  N6  UNL     1      16.960  -5.636   2.606  1.00  0.00    -0.347 N 
ATOM     25  H6  UNL     1      16.179  -6.292   2.648  1.00  0.00     0.163 HD
HETATM   26  C35 UNL     1      16.792  -4.376   3.211  1.00  0.00     0.241 C 
HETATM   27  O7  UNL     1      15.673  -3.792   3.040  1.00  0.00    -0.271 OA
ENDROOT
BRANCH  10  28
HETATM   28  C13 UNL     1      12.785  -7.824   6.445  1.00  0.00     0.014 C 
BRANCH  28  29
HETATM   29  C14 UNL     1      12.635  -7.761   7.946  1.00  0.00     0.002 C 
BRANCH  29  30
HETATM   30  C15 UNL     1      11.458  -8.686   8.292  1.00  0.00     0.020 C 
BRANCH  30  31
HETATM   31  C16 UNL     1      11.941 -10.000   8.824  1.00  0.00     0.122 C 
BRANCH  31  32
HETATM   32  N3  UNL     1      11.845 -10.992   7.775  1.00  0.00    -0.368 N 
ATOM     33  H3  UNL     1      12.563 -11.716   7.737  1.00  0.00     0.161 HD
BRANCH  32  34
HETATM   34  C17 UNL     1      10.822 -11.027   6.795  1.00  0.00     0.348 C 
HETATM   35  O3  UNL     1      10.986 -10.848   5.573  1.00  0.00    -0.284 OA
ENDBRANCH  32  34
ENDBRANCH  31  32
ENDBRANCH  30  31
ENDBRANCH  29  30
ENDBRANCH  28  29
ENDBRANCH  10  28
BRANCH   5  36
HETATM   36  C8  UNL     1      17.237  -6.358   7.809  1.00  0.00     0.008 C 
HETATM   37  C9  UNL     1      16.523  -5.260   8.569  1.00  0.00     0.012 C 
HETATM   38  C10 UNL     1      16.905  -7.723   8.317  1.00  0.00     0.012 C 
ENDBRANCH   5  36
BRANCH  14  39
HETATM   39  C21 UNL     1      13.629 -11.200   3.010  1.00  0.00    -0.057 C 
HETATM   40  C22 UNL     1      13.815 -12.381   2.064  1.00  0.00     0.045 C 
HETATM   41  C23 UNL     1      12.888 -10.068   2.389  1.00  0.00     0.045 C 
ENDBRANCH  14  39
BRANCH   4  42
HETATM   42  O1  UNL     1      19.259  -6.423   5.652  1.00  0.00    -0.348 OA
ATOM     43  H1  UNL     1      19.009  -7.333   5.761  1.00  0.00     0.219 HD
ENDBRANCH   4  42
BRANCH   1  44
HETATM   44  C4  UNL     1      17.235  -2.401   4.564  1.00  0.00     0.038 C 
BRANCH  44  45
HETATM   45  C2  UNL     1      18.075  -1.556   5.458  1.00  0.00    -0.020 C 
HETATM   46  C1  UNL     1      19.128  -0.914   4.502  1.00  0.00     0.009 C 
HETATM   47  C3  UNL     1      17.376  -0.357   6.054  1.00  0.00     0.009 C 
ENDBRANCH  44  45
ENDBRANCH   1  44
BRANCH  19  48
HETATM   48  C26 UNL     1      15.684  -9.182  -0.124  1.00  0.00     0.038 C 
BRANCH  48  49
HETATM   49  C27 UNL     1      14.472  -8.414  -0.403  1.00  0.00    -0.020 C 
HETATM   50  C28 UNL     1      14.416  -7.345   0.756  1.00  0.00     0.009 C 
HETATM   51  C29 UNL     1      14.543  -7.616  -1.660  1.00  0.00     0.009 C 
ENDBRANCH  48  49
ENDBRANCH  19  48
BRANCH  22  52
HETATM   52  O6  UNL     1      19.345  -7.932   2.617  1.00  0.00    -0.348 OA
ATOM     53  H6  UNL     1      19.624  -7.297   3.266  1.00  0.00     0.219 HD
ENDBRANCH  22  52
BRANCH  23  54
HETATM   54  C32 UNL     1      18.329  -5.288   0.654  1.00  0.00     0.008 C 
HETATM   55  C33 UNL     1      17.242  -5.407  -0.340  1.00  0.00     0.012 C 
HETATM   56  C34 UNL     1      19.654  -5.571  -0.018  1.00  0.00     0.012 C 
ENDBRANCH  23  54
TORSDOF 15
ENDMDL
MODEL 4
REMARK VINA RESULT: -5.820361357      2.749      8.979
REMARK  15 active torsions:
REMARK  status: ('A' for Active; 'I' for Inactive)
REMARK    1  A    between atoms: C2_2  and  C4_4 
REMARK    2  A    between atoms: C4_4  and  C5_5 
REMARK    3  A    between atoms: C6_8  and  O1_9 
REMARK    4  A    between atoms: C7_11  and  C8_12 
REMARK    5  A    between atoms: C12_19  and  C13_20 
REMARK    6  A    between atoms: C13_20  and  C14_21 
REMARK    7  A    between atoms: C14_21  and  C15_22 
REMARK    8  A    between atoms: C15_22  and  C16_23 
REMARK    9  A    between atoms: C16_23  and  N3_24 
REMARK   10  A    between atoms: N3_24  and  C17_26 
REMARK   11  A    between atoms: C20_31  and  C21_32 
REMARK   12  A    between atoms: C25_39  and  C26_40 
REMARK   13  A    between atoms: C26_40  and  C27_41 
REMARK   14  A    between atoms: C30_46  and  O6_47 
REMARK   15  A    between atoms: C31_49  and  C32_50 
ROOT
HETATM    1  C5  UNL     1      15.001  -8.550   8.026  1.00  0.00     0.175 C 
HETATM    2  N1  UNL     1      16.027  -9.160   7.261  1.00  0.00    -0.359 N 
ATOM      3  H1  UNL     1      16.255 -10.103   7.575  1.00  0.00     0.162 HD
HETATM    4  C6  UNL     1      16.787  -8.748   6.176  1.00  0.00     0.135 C 
HETATM    5  C7  UNL     1      16.505  -8.100   4.912  1.00  0.00     0.162 C 
HETATM    6  N2  UNL     1      15.263  -7.443   4.716  1.00  0.00    -0.348 N 
ATOM      7  H2  UNL     1      14.424  -7.976   4.943  1.00  0.00     0.163 HD
HETATM    8  C11 UNL     1      15.071  -6.139   4.242  1.00  0.00     0.222 C 
HETATM    9  O2  UNL     1      14.022  -5.522   4.640  1.00  0.00    -0.273 OA
HETATM   10  C12 UNL     1      15.928  -5.365   3.327  1.00  0.00     0.085 C 
HETATM   11  C18 UNL     1      16.671  -4.356   4.214  1.00  0.00     0.099 C 
HETATM   12  C19 UNL     1      17.821  -3.745   3.553  1.00  0.00     0.176 C 
HETATM   13  O4  UNL     1      17.958  -4.040   2.347  1.00  0.00    -0.291 OA
HETATM   14  C20 UNL     1      18.779  -2.839   4.224  1.00  0.00     0.082 C 
HETATM   15  N4  UNL     1      19.423  -3.373   5.382  1.00  0.00    -0.322 N 
ATOM     16  H4  UNL     1      20.012  -4.175   5.163  1.00  0.00     0.169 HD
HETATM   17  C24 UNL     1      19.439  -3.065   6.724  1.00  0.00     0.245 C 
HETATM   18  O5  UNL     1      20.481  -2.525   7.212  1.00  0.00    -0.271 OA
HETATM   19  C25 UNL     1      18.379  -3.267   7.792  1.00  0.00     0.176 C 
HETATM   20  N5  UNL     1      18.784  -4.375   8.624  1.00  0.00    -0.359 N 
ATOM     21  H5  UNL     1      19.499  -4.138   9.310  1.00  0.00     0.162 HD
HETATM   22  C30 UNL     1      18.380  -5.701   8.662  1.00  0.00     0.135 C 
HETATM   23  C31 UNL     1      17.118  -6.348   9.025  1.00  0.00     0.162 C 
HETATM   24  N6  UNL     1      16.028  -6.187   8.093  1.00  0.00    -0.347 N 
ATOM     25  H6  UNL     1      16.049  -5.379   7.471  1.00  0.00     0.163 HD
HETATM   26  C35 UNL     1      14.938  -7.070   7.986  1.00  0.00     0.241 C 
HETATM   27  O7  UNL     1      13.782  -6.555   7.842  1.00  0.00    -0.271 OA
ENDROOT
BRANCH  10  28
HETATM   28  C13 UNL     1      15.084  -4.621   2.296  1.00  0.00     0.014 C 
BRANCH  28  29
HETATM   29  C14 UNL     1      14.828  -5.471   1.074  1.00  0.00     0.002 C 
BRANCH  29  30
HETATM   30  C15 UNL     1      15.445  -4.708  -0.108  1.00  0.00     0.020 C 
BRANCH  30  31
HETATM   31  C16 UNL     1      16.636  -5.432  -0.656  1.00  0.00     0.122 C 
BRANCH  31  32
HETATM   32  N3  UNL     1      17.822  -4.643  -0.394  1.00  0.00    -0.368 N 
ATOM     33  H3  UNL     1      17.791  -3.982   0.383  1.00  0.00     0.161 HD
BRANCH  32  34
HETATM   34  C17 UNL     1      19.021  -4.725  -1.142  1.00  0.00     0.348 C 
HETATM   35  O3  UNL     1      19.205  -4.227  -2.270  1.00  0.00    -0.284 OA
ENDBRANCH  32  34
ENDBRANCH  31  32
ENDBRANCH  30  31
ENDBRANCH  29  30
ENDBRANCH  28  29
ENDBRANCH  10  28
BRANCH   5  36
HETATM   36  C8  UNL     1      16.726  -8.998   3.702  1.00  0.00     0.008 C 
HETATM   37  C9  UNL     1      15.417  -9.524   3.154  1.00  0.00     0.012 C 
HETATM   38  C10 UNL     1      17.593  -8.391   2.648  1.00  0.00     0.012 C 
ENDBRANCH   5  36
BRANCH  14  39
HETATM   39  C21 UNL     1      18.267  -1.459   4.240  1.00  0.00    -0.057 C 
HETATM   40  C22 UNL     1      19.335  -0.420   4.566  1.00  0.00     0.045 C 
HETATM   41  C23 UNL     1      16.968  -1.190   4.914  1.00  0.00     0.045 C 
ENDBRANCH  14  39
BRANCH   4  42
HETATM   42  O1  UNL     1      18.061  -9.012   6.341  1.00  0.00    -0.348 OA
ATOM     43  H1  UNL     1      18.496  -9.194   5.516  1.00  0.00     0.219 HD
ENDBRANCH   4  42
BRANCH   1  44
HETATM   44  C4  UNL     1      13.668  -9.139   7.803  1.00  0.00     0.038 C 
BRANCH  44  45
HETATM   45  C2  UNL     1      13.445  -9.990   6.600  1.00  0.00    -0.020 C 
HETATM   46  C1  UNL     1      12.746 -11.269   7.159  1.00  0.00     0.009 C 
HETATM   47  C3  UNL     1      12.439  -9.453   5.609  1.00  0.00     0.009 C 
ENDBRANCH  44  45
ENDBRANCH   1  44
BRANCH  19  48
HETATM   48  C26 UNL     1      18.008  -1.992   8.455  1.00  0.00     0.038 C 
BRANCH  48  49
HETATM   49  C27 UNL     1      18.487  -1.622   9.786  1.00  0.00    -0.020 C 
HETATM   50  C28 UNL     1      19.240  -0.255   9.561  1.00  0.00     0.009 C 
HETATM   51  C29 UNL     1      17.396  -1.307  10.750  1.00  0.00     0.009 C 
ENDBRANCH  48  49
ENDBRANCH  19  48
BRANCH  22  52
HETATM   52  O6  UNL     1      19.313  -6.547   8.305  1.00  0.00    -0.348 OA
ATOM     53  H6  UNL     1      19.853  -6.848   9.026  1.00  0.00     0.219 HD
ENDBRANCH  22  52
BRANCH  23  54
HETATM   54  C32 UNL     1      16.630  -6.113  10.425  1.00  0.00     0.008 C 
HETATM   55  C33 UNL     1      15.989  -4.809  10.693  1.00  0.00     0.012 C 
HETATM   56  C34 UNL     1      17.708  -6.360  11.457  1.00  0.00     0.012 C 
ENDBRANCH  23  54
TORSDOF 15
ENDMDL
MODEL 5
REMARK VINA RESULT: -5.648539518      2.101      7.198
REMARK  15 active torsions:
REMARK  status: ('A' for Active; 'I' for Inactive)
REMARK    1  A    between atoms: C2_2  and  C4_4 
REMARK    2  A    between atoms: C4_4  and  C5_5 
REMARK    3  A    between atoms: C6_8  and  O1_9 
REMARK    4  A    between atoms: C7_11  and  C8_12 
REMARK    5  A    between atoms: C12_19  and  C13_20 
REMARK    6  A    between atoms: C13_20  and  C14_21 
REMARK    7  A    between atoms: C14_21  and  C15_22 
REMARK    8  A    between atoms: C15_22  and  C16_23 
REMARK    9  A    between atoms: C16_23  and  N3_24 
REMARK   10  A    between atoms: N3_24  and  C17_26 
REMARK   11  A    between atoms: C20_31  and  C21_32 
REMARK   12  A    between atoms: C25_39  and  C26_40 
REMARK   13  A    between atoms: C26_40  and  C27_41 
REMARK   14  A    between atoms: C30_46  and  O6_47 
REMARK   15  A    between atoms: C31_49  and  C32_50 
ROOT
HETATM    1  C5  UNL     1      17.494  -4.302   5.053  1.00  0.00     0.175 C 
HETATM    2  N1  UNL     1      16.480  -4.052   4.093  1.00  0.00    -0.359 N 
ATOM      3  H1  UNL     1      16.154  -3.086   4.096  1.00  0.00     0.162 HD
HETATM    4  C6  UNL     1      15.837  -4.842   3.151  1.00  0.00     0.135 C 
HETATM    5  C7  UNL     1      16.262  -5.807   2.158  1.00  0.00     0.162 C 
HETATM    6  N2  UNL     1      17.563  -6.366   2.226  1.00  0.00    -0.348 N 
ATOM      7  H2  UNL     1      18.338  -5.709   2.318  1.00  0.00     0.163 HD
HETATM    8  C11 UNL     1      17.895  -7.726   2.181  1.00  0.00     0.222 C 
HETATM    9  O2  UNL     1      18.958  -8.089   2.794  1.00  0.00    -0.273 OA
HETATM   10  C12 UNL     1      17.172  -8.819   1.506  1.00  0.00     0.085 C 
HETATM   11  C18 UNL     1      16.450  -9.586   2.623  1.00  0.00     0.099 C 
HETATM   12  C19 UNL     1      15.404 -10.476   2.128  1.00  0.00     0.176 C 
HETATM   13  O4  UNL     1      15.332 -10.570   0.885  1.00  0.00    -0.291 OA
HETATM   14  C20 UNL     1      14.477 -11.231   2.998  1.00  0.00     0.082 C 
HETATM   15  N4  UNL     1      13.709 -10.443   3.910  1.00  0.00    -0.322 N 
ATOM     16  H4  UNL     1      13.074  -9.805   3.431  1.00  0.00     0.169 HD
HETATM   17  C24 UNL     1      13.621 -10.337   5.280  1.00  0.00     0.245 C 
HETATM   18  O5  UNL     1      12.593 -10.808   5.862  1.00  0.00    -0.271 OA
HETATM   19  C25 UNL     1      14.580  -9.722   6.282  1.00  0.00     0.176 C 
HETATM   20  N5  UNL     1      14.028  -8.462   6.719  1.00  0.00    -0.359 N 
ATOM     21  H5  UNL     1      13.285  -8.553   7.412  1.00  0.00     0.162 HD
HETATM   22  C30 UNL     1      14.319  -7.151   6.371  1.00  0.00     0.135 C 
HETATM   23  C31 UNL     1      15.495  -6.304   6.577  1.00  0.00     0.162 C 
HETATM   24  N6  UNL     1      16.659  -6.627   5.788  1.00  0.00    -0.347 N 
ATOM     25  H6  UNL     1      16.749  -7.582   5.440  1.00  0.00     0.163 HD
HETATM   26  C35 UNL     1      17.679  -5.712   5.467  1.00  0.00     0.241 C 
HETATM   27  O7  UNL     1      18.880  -6.130   5.538  1.00  0.00    -0.271 OA
ENDROOT
BRANCH  10  28
HETATM   28  C13 UNL     1      18.146  -9.749   0.789  1.00  0.00     0.014 C 
BRANCH  28  29
HETATM   29  C14 UNL     1      18.721  -9.099  -0.448  1.00  0.00     0.002 C 
BRANCH  29  30
HETATM   30  C15 UNL     1      20.246  -9.230  -0.323  1.00  0.00     0.020 C 
BRANCH  30  31
HETATM   31  C16 UNL     1      20.891  -7.890  -0.146  1.00  0.00     0.122 C 
BRANCH  31  32
HETATM   32  N3  UNL     1      21.426  -7.802   1.196  1.00  0.00    -0.368 N 
ATOM     33  H3  UNL     1      20.976  -7.157   1.846  1.00  0.00     0.161 HD
BRANCH  32  34
HETATM   34  C17 UNL     1      22.532  -8.550   1.669  1.00  0.00     0.348 C 
HETATM   35  O3  UNL     1      23.042  -8.447   2.801  1.00  0.00    -0.284 OA
ENDBRANCH  32  34
ENDBRANCH  31  32
ENDBRANCH  30  31
ENDBRANCH  29  30
ENDBRANCH  28  29
ENDBRANCH  10  28
BRANCH   5  36
HETATM   36  C8  UNL     1      16.057  -5.337   0.724  1.00  0.00     0.008 C 
HETATM   37  C9  UNL     1      17.363  -4.915   0.086  1.00  0.00     0.012 C 
HETATM   38  C10 UNL     1      15.282  -6.294  -0.122  1.00  0.00     0.012 C 
ENDBRANCH   5  36
BRANCH  14  39
HETATM   39  C21 UNL     1      15.096 -12.486   3.456  1.00  0.00    -0.057 C 
HETATM   40  C22 UNL     1      14.086 -13.515   3.953  1.00  0.00     0.045 C 
HETATM   41  C23 UNL     1      16.316 -12.409   4.306  1.00  0.00     0.045 C 
ENDBRANCH  14  39
BRANCH   4  42
HETATM   42  O1  UNL     1      14.537  -4.669   3.171  1.00  0.00    -0.348 OA
ATOM     43  H1  UNL     1      14.213  -4.513   4.051  1.00  0.00     0.219 HD
ENDBRANCH   4  42
BRANCH   1  44
HETATM   44  C4  UNL     1      18.788  -3.677   4.721  1.00  0.00     0.038 C 
BRANCH  44  45
HETATM   45  C2  UNL     1      19.292  -2.562   5.572  1.00  0.00    -0.020 C 
HETATM   46  C1  UNL     1      19.061  -1.284   4.707  1.00  0.00     0.009 C 
HETATM   47  C3  UNL     1      18.483  -2.286   6.818  1.00  0.00     0.009 C 
ENDBRANCH  44  45
ENDBRANCH   1  44
BRANCH  19  48
HETATM   48  C26 UNL     1      15.004 -10.698   7.317  1.00  0.00     0.038 C 
BRANCH  48  49
HETATM   49  C27 UNL     1      16.323 -10.663   7.947  1.00  0.00    -0.020 C 
HETATM   50  C28 UNL     1      16.628 -12.172   8.289  1.00  0.00     0.009 C 
HETATM   51  C29 UNL     1      17.417 -10.248   7.025  1.00  0.00     0.009 C 
ENDBRANCH  48  49
ENDBRANCH  19  48
BRANCH  22  52
HETATM   52  O6  UNL     1      13.349  -6.548   5.733  1.00  0.00    -0.348 OA
ATOM     53  H6  UNL     1      13.560  -6.336   4.831  1.00  0.00     0.219 HD
ENDBRANCH  22  52
BRANCH  23  54
HETATM   54  C32 UNL     1      15.897  -6.062   8.003  1.00  0.00     0.008 C 
HETATM   55  C33 UNL     1      16.760  -7.084   8.631  1.00  0.00     0.012 C 
HETATM   56  C34 UNL     1      14.706  -5.796   8.897  1.00  0.00     0.012 C 
ENDBRANCH  23  54
TORSDOF 15
ENDMDL
