MODEL 1
REMARK VINA RESULT: -5.795865523      0.000      0.000
REMARK  7 active torsions:
REMARK  status: ('A' for Active; 'I' for Inactive)
REMARK    1  A    between atoms: C2_2  and  C3_3 
REMARK    2  A    between atoms: C3_3  and  C4_4 
REMARK    3  A    between atoms: C4_4  and  C5_5 
REMARK    4  A    between atoms: C5_5  and  N1_6 
REMARK    5  A    between atoms: C6_11  and  C7_12 
REMARK    6  A    between atoms: C7_12  and  N4_13 
REMARK    7  A    between atoms: C8_17  and  N5_18 
ROOT
HETATM    1  N1  UNL     1      45.451  42.604  59.127  1.00  0.00    -0.235 N 
HETATM    2  N2  UNL     1      44.998  43.727  59.561  1.00  0.00    -0.234 N 
ATOM      3  H2  UNL     1      44.149  44.162  59.201  1.00  0.00     0.209 HD
HETATM    4  N3  UNL     1      45.744  44.270  60.528  1.00  0.00    -0.285 N 
ATOM      5  H3  UNL     1      45.551  45.153  61.002  1.00  0.00     0.188 HD
HETATM    6  C6  UNL     1      46.762  43.484  60.768  1.00  0.00     0.098 A 
HETATM    7  C8  UNL     1      46.580  42.415  59.880  1.00  0.00     0.147 A 
ENDROOT
BRANCH   1   8
HETATM    8  C5  UNL     1      45.126  41.766  58.032  1.00  0.00     0.120 C 
BRANCH   8   9
HETATM    9  C4  UNL     1      44.415  40.548  58.347  1.00  0.00     0.019 C 
BRANCH   9  10
HETATM   10  C3  UNL     1      44.768  39.322  58.335  1.00  0.00     0.001 C 
BRANCH  10  11
HETATM   11  C2  UNL     1      44.710  38.504  57.159  1.00  0.00    -0.010 C 
HETATM   12  C1  UNL     1      44.645  37.191  57.208  1.00  0.00     0.011 C 
ENDBRANCH  10  11
ENDBRANCH   9  10
ENDBRANCH   8   9
ENDBRANCH   1   8
BRANCH   7  13
HETATM   13  N5  UNL     1      47.416  41.453  59.802  1.00  0.00    -0.382 N 
ATOM     14  H52 UNL     1      47.151  40.538  59.437  1.00  0.00     0.157 HD
ATOM     15  H51 UNL     1      48.388  41.448  60.109  1.00  0.00     0.157 HD
ENDBRANCH   7  13
BRANCH   6  16
HETATM   16  C7  UNL     1      47.729  43.465  61.863  1.00  0.00     0.292 C 
BRANCH  16  17
HETATM   17  N4  UNL     1      48.654  44.571  62.012  1.00  0.00    -0.074 N 
ATOM     18  H43 UNL     1      48.354  45.331  61.402  1.00  0.00     0.274 HD
ATOM     19  H42 UNL     1      48.519  44.987  62.933  1.00  0.00     0.274 HD
ATOM     20  H41 UNL     1      49.651  44.411  61.869  1.00  0.00     0.274 HD
ENDBRANCH  16  17
ENDBRANCH   6  16
TORSDOF 7
ENDMDL
MODEL 2
REMARK VINA RESULT: -5.637967910      1.158      1.159
REMARK  7 active torsions:
REMARK  status: ('A' for Active; 'I' for Inactive)
REMARK    1  A    between atoms: C2_2  and  C3_3 
REMARK    2  A    between atoms: C3_3  and  C4_4 
REMARK    3  A    between atoms: C4_4  and  C5_5 
REMARK    4  A    between atoms: C5_5  and  N1_6 
REMARK    5  A    between atoms: C6_11  and  C7_12 
REMARK    6  A    between atoms: C7_12  and  N4_13 
REMARK    7  A    between atoms: C8_17  and  N5_18 
ROOT
HETATM    1  N1  UNL     1      44.869  41.902  59.422  1.00  0.00    -0.235 N 
HETATM    2  N2  UNL     1      44.598  43.155  59.528  1.00  0.00    -0.234 N 
ATOM      3  H2  UNL     1      43.645  43.520  59.543  1.00  0.00     0.209 HD
HETATM    4  N3  UNL     1      45.681  43.934  59.616  1.00  0.00    -0.285 N 
ATOM      5  H3  UNL     1      45.676  44.950  59.709  1.00  0.00     0.188 HD
HETATM    6  C6  UNL     1      46.748  43.180  59.565  1.00  0.00     0.098 A 
HETATM    7  C8  UNL     1      46.238  41.880  59.445  1.00  0.00     0.147 A 
ENDROOT
BRANCH   1   8
HETATM    8  C5  UNL     1      44.100  40.748  59.134  1.00  0.00     0.120 C 
BRANCH   8   9
HETATM    9  C4  UNL     1      44.046  40.345  57.747  1.00  0.00     0.019 C 
BRANCH   9  10
HETATM   10  C3  UNL     1      44.460  39.301  57.141  1.00  0.00     0.001 C 
BRANCH  10  11
HETATM   11  C2  UNL     1      44.840  38.100  57.827  1.00  0.00    -0.010 C 
HETATM   12  C1  UNL     1      44.452  36.905  57.437  1.00  0.00     0.011 C 
ENDBRANCH  10  11
ENDBRANCH   9  10
ENDBRANCH   8   9
ENDBRANCH   1   8
BRANCH   7  13
HETATM   13  N5  UNL     1      47.003  40.863  59.330  1.00  0.00    -0.382 N 
ATOM     14  H52 UNL     1      47.507  40.475  60.127  1.00  0.00     0.157 HD
ATOM     15  H51 UNL     1      47.234  40.353  58.478  1.00  0.00     0.157 HD
ENDBRANCH   7  13
BRANCH   6  16
HETATM   16  C7  UNL     1      48.150  43.470  59.857  1.00  0.00     0.292 C 
BRANCH  16  17
HETATM   17  N4  UNL     1      48.608  43.442  61.231  1.00  0.00    -0.074 N 
ATOM     18  H43 UNL     1      48.709  42.469  61.522  1.00  0.00     0.274 HD
ATOM     19  H42 UNL     1      49.577  43.761  61.259  1.00  0.00     0.274 HD
ATOM     20  H41 UNL     1      48.079  43.942  61.945  1.00  0.00     0.274 HD
ENDBRANCH  16  17
ENDBRANCH   6  16
TORSDOF 7
ENDMDL
MODEL 3
REMARK VINA RESULT: -5.554612965      0.813      1.892
REMARK  7 active torsions:
REMARK  status: ('A' for Active; 'I' for Inactive)
REMARK    1  A    between atoms: C2_2  and  C3_3 
REMARK    2  A    between atoms: C3_3  and  C4_4 
REMARK    3  A    between atoms: C4_4  and  C5_5 
REMARK    4  A    between atoms: C5_5  and  N1_6 
REMARK    5  A    between atoms: C6_11  and  C7_12 
REMARK    6  A    between atoms: C7_12  and  N4_13 
REMARK    7  A    between atoms: C8_17  and  N5_18 
ROOT
HETATM    1  N1  UNL     1      45.664  41.346  58.842  1.00  0.00    -0.235 N 
HETATM    2  N2  UNL     1      46.802  40.825  59.139  1.00  0.00    -0.234 N 
ATOM      3  H2  UNL     1      47.114  39.924  58.777  1.00  0.00     0.209 HD
HETATM    4  N3  UNL     1      47.538  41.575  59.966  1.00  0.00    -0.285 N 
ATOM      5  H3  UNL     1      48.466  41.337  60.314  1.00  0.00     0.188 HD
HETATM    6  C6  UNL     1      46.871  42.662  60.255  1.00  0.00     0.098 A 
HETATM    7  C8  UNL     1      45.675  42.527  59.538  1.00  0.00     0.147 A 
ENDROOT
BRANCH   1   8
HETATM    8  C5  UNL     1      44.507  40.875  58.174  1.00  0.00     0.120 C 
BRANCH   8   9
HETATM    9  C4  UNL     1      44.422  39.448  57.970  1.00  0.00     0.019 C 
BRANCH   9  10
HETATM   10  C3  UNL     1      44.779  38.698  57.000  1.00  0.00     0.001 C 
BRANCH  10  11
HETATM   11  C2  UNL     1      44.890  37.273  57.115  1.00  0.00    -0.010 C 
HETATM   12  C1  UNL     1      44.106  36.559  57.894  1.00  0.00     0.011 C 
ENDBRANCH  10  11
ENDBRANCH   9  10
ENDBRANCH   8   9
ENDBRANCH   1   8
BRANCH   7  13
HETATM   13  N5  UNL     1      44.744  43.399  59.606  1.00  0.00    -0.382 N 
ATOM     14  H52 UNL     1      44.382  43.866  58.774  1.00  0.00     0.157 HD
ATOM     15  H51 UNL     1      44.290  43.759  60.445  1.00  0.00     0.157 HD
ENDBRANCH   7  13
BRANCH   6  16
HETATM   16  C7  UNL     1      47.288  43.907  60.897  1.00  0.00     0.292 C 
BRANCH  16  17
HETATM   17  N4  UNL     1      48.453  43.905  61.759  1.00  0.00    -0.074 N 
ATOM     18  H43 UNL     1      48.499  43.009  62.243  1.00  0.00     0.274 HD
ATOM     19  H42 UNL     1      49.289  43.863  61.176  1.00  0.00     0.274 HD
ATOM     20  H41 UNL     1      48.569  44.653  62.443  1.00  0.00     0.274 HD
ENDBRANCH  16  17
ENDBRANCH   6  16
TORSDOF 7
ENDMDL
MODEL 4
REMARK VINA RESULT: -5.540621989      1.212      2.405
REMARK  7 active torsions:
REMARK  status: ('A' for Active; 'I' for Inactive)
REMARK    1  A    between atoms: C2_2  and  C3_3 
REMARK    2  A    between atoms: C3_3  and  C4_4 
REMARK    3  A    between atoms: C4_4  and  C5_5 
REMARK    4  A    between atoms: C5_5  and  N1_6 
REMARK    5  A    between atoms: C6_11  and  C7_12 
REMARK    6  A    between atoms: C7_12  and  N4_13 
REMARK    7  A    between atoms: C8_17  and  N5_18 
ROOT
HETATM    1  N1  UNL     1      45.389  40.642  58.666  1.00  0.00    -0.235 N 
HETATM    2  N2  UNL     1      46.642  40.488  58.912  1.00  0.00    -0.234 N 
ATOM      3  H2  UNL     1      47.170  39.667  58.618  1.00  0.00     0.209 HD
HETATM    4  N3  UNL     1      47.187  41.505  59.588  1.00  0.00    -0.285 N 
ATOM      5  H3  UNL     1      48.163  41.572  59.873  1.00  0.00     0.188 HD
HETATM    6  C6  UNL     1      46.262  42.400  59.821  1.00  0.00     0.098 A 
HETATM    7  C8  UNL     1      45.111  41.858  59.232  1.00  0.00     0.147 A 
ENDROOT
BRANCH   1   8
HETATM    8  C5  UNL     1      44.371  39.797  58.158  1.00  0.00     0.120 C 
BRANCH   8   9
HETATM    9  C4  UNL     1      44.773  38.850  57.144  1.00  0.00     0.019 C 
BRANCH   9  10
HETATM   10  C3  UNL     1      45.138  37.629  57.208  1.00  0.00     0.001 C 
BRANCH  10  11
HETATM   11  C2  UNL     1      44.209  36.536  57.202  1.00  0.00    -0.010 C 
HETATM   12  C1  UNL     1      43.820  35.928  58.302  1.00  0.00     0.011 C 
ENDBRANCH  10  11
ENDBRANCH   9  10
ENDBRANCH   8   9
ENDBRANCH   1   8
BRANCH   7  13
HETATM   13  N5  UNL     1      43.980  42.449  59.294  1.00  0.00    -0.382 N 
ATOM     14  H52 UNL     1      43.456  42.520  60.166  1.00  0.00     0.157 HD
ATOM     15  H51 UNL     1      43.456  42.870  58.526  1.00  0.00     0.157 HD
ENDBRANCH   7  13
BRANCH   6  16
HETATM   16  C7  UNL     1      46.352  43.781  60.291  1.00  0.00     0.292 C 
BRANCH  16  17
HETATM   17  N4  UNL     1      46.950  44.053  61.582  1.00  0.00    -0.074 N 
ATOM     18  H43 UNL     1      46.633  43.345  62.245  1.00  0.00     0.274 HD
ATOM     19  H42 UNL     1      47.947  43.847  61.530  1.00  0.00     0.274 HD
ATOM     20  H41 UNL     1      46.829  44.973  62.005  1.00  0.00     0.274 HD
ENDBRANCH  16  17
ENDBRANCH   6  16
TORSDOF 7
ENDMDL
MODEL 5
REMARK VINA RESULT: -5.340749592      1.139      1.668
REMARK  7 active torsions:
REMARK  status: ('A' for Active; 'I' for Inactive)
REMARK    1  A    between atoms: C2_2  and  C3_3 
REMARK    2  A    between atoms: C3_3  and  C4_4 
REMARK    3  A    between atoms: C4_4  and  C5_5 
REMARK    4  A    between atoms: C5_5  and  N1_6 
REMARK    5  A    between atoms: C6_11  and  C7_12 
REMARK    6  A    between atoms: C7_12  and  N4_13 
REMARK    7  A    between atoms: C8_17  and  N5_18 
ROOT
HETATM    1  N1  UNL     1      46.207  42.326  58.987  1.00  0.00    -0.235 N 
HETATM    2  N2  UNL     1      45.428  43.330  59.188  1.00  0.00    -0.234 N 
ATOM      3  H2  UNL     1      44.621  43.536  58.600  1.00  0.00     0.209 HD
HETATM    4  N3  UNL     1      45.775  44.077  60.241  1.00  0.00    -0.285 N 
ATOM      5  H3  UNL     1      45.284  44.910  60.565  1.00  0.00     0.188 HD
HETATM    6  C6  UNL     1      46.848  43.565  60.787  1.00  0.00     0.098 A 
HETATM    7  C8  UNL     1      47.128  42.443  59.995  1.00  0.00     0.147 A 
ENDROOT
BRANCH   1   8
HETATM    8  C5  UNL     1      46.353  41.385  57.938  1.00  0.00     0.120 C 
BRANCH   8   9
HETATM    9  C4  UNL     1      45.613  40.152  58.076  1.00  0.00     0.019 C 
BRANCH   9  10
HETATM   10  C3  UNL     1      44.370  39.912  58.236  1.00  0.00     0.001 C 
BRANCH  10  11
HETATM   11  C2  UNL     1      43.344  40.580  57.489  1.00  0.00    -0.010 C 
HETATM   12  C1  UNL     1      42.541  41.474  58.025  1.00  0.00     0.011 C 
ENDBRANCH  10  11
ENDBRANCH   9  10
ENDBRANCH   8   9
ENDBRANCH   1   8
BRANCH   7  13
HETATM   13  N5  UNL     1      48.146  41.702  60.210  1.00  0.00    -0.382 N 
ATOM     14  H52 UNL     1      48.933  42.019  60.776  1.00  0.00     0.157 HD
ATOM     15  H51 UNL     1      48.323  40.768  59.842  1.00  0.00     0.157 HD
ENDBRANCH   7  13
BRANCH   6  16
HETATM   16  C7  UNL     1      47.494  43.824  62.071  1.00  0.00     0.292 C 
BRANCH  16  17
HETATM   17  N4  UNL     1      48.740  44.564  62.102  1.00  0.00    -0.074 N 
ATOM     18  H43 UNL     1      49.234  44.337  62.964  1.00  0.00     0.274 HD
ATOM     19  H42 UNL     1      49.369  44.173  61.400  1.00  0.00     0.274 HD
ATOM     20  H41 UNL     1      48.721  45.578  61.994  1.00  0.00     0.274 HD
ENDBRANCH  16  17
ENDBRANCH   6  16
TORSDOF 7
ENDMDL
