MODEL 1
REMARK VINA RESULT: -7.826808525      0.000      0.000
REMARK  12 active torsions:
REMARK  status: ('A' for Active; 'I' for Inactive)
REMARK    1  A    between atoms: C1_4  and  N2_5 
REMARK    2  A    between atoms: C1_4  and  C20_47 
REMARK    3  A    between atoms: N2_5  and  C2_7 
REMARK    4  A    between atoms: C5_10  and  N3_11 
REMARK    5  A    between atoms: N3_11  and  C6_13 
REMARK    6  A    between atoms: C7_16  and  N5_17 
REMARK    7  A    between atoms: C10_20  and  N6_21 
REMARK    8  A    between atoms: C12_28  and  N8_29 
REMARK    9  A    between atoms: C14_31  and  N9_32 
REMARK   10  A    between atoms: C16_37  and  N10_38 
REMARK   11  A    between atoms: C26_53  and  N12_54 
REMARK   12  A    between atoms: N12_54  and  O1_56 
ROOT
HETATM    1  C6  UNL     1      32.486 -25.972 -43.906  1.00  0.00     0.711 A 
HETATM    2  N4  UNL     1      32.094 -25.354 -45.009  1.00  0.00    -0.021 N 
ATOM      3  H4  UNL     1      32.558 -25.599 -45.885  1.00  0.00     0.203 HD
HETATM    4  C7  UNL     1      31.122 -24.425 -45.051  1.00  0.00     0.709 A 
HETATM    5  N7  UNL     1      30.531 -24.122 -43.891  1.00  0.00    -0.021 N 
ATOM      6  H7  UNL     1      29.789 -23.422 -43.882  1.00  0.00     0.203 HD
HETATM    7  C12 UNL     1      30.884 -24.712 -42.739  1.00  0.00     0.709 A 
HETATM    8  N11 UNL     1      31.863 -25.637 -42.752  1.00  0.00    -0.021 N 
ATOM      9  H11 UNL     1      32.138 -26.091 -41.881  1.00  0.00     0.203 HD
ENDROOT
BRANCH   1  10
HETATM   10  N3  UNL     1      33.420 -26.846 -43.955  1.00  0.00    -0.191 N 
ATOM     11  H3  UNL     1      33.974 -26.956 -44.805  1.00  0.00     0.184 HD
BRANCH  10  12
HETATM   12  C5  UNL     1      33.683 -27.664 -42.817  1.00  0.00     0.049 A 
HETATM   13  C4  UNL     1      34.597 -27.250 -41.856  1.00  0.00     0.032 A 
HETATM   14  C3  UNL     1      34.836 -28.045 -40.776  1.00  0.00     0.032 A 
HETATM   15  C2  UNL     1      34.216 -29.260 -40.567  1.00  0.00     0.033 A 
HETATM   16  C19 UNL     1      33.311 -29.649 -41.539  1.00  0.00     0.032 A 
HETATM   17  C18 UNL     1      33.045 -28.872 -42.644  1.00  0.00     0.032 A 
BRANCH  15  18
HETATM   18  N2  UNL     1      34.483 -30.070 -39.432  1.00  0.00    -0.342 N 
ATOM     19  H2  UNL     1      35.110 -30.867 -39.541  1.00  0.00     0.167 HD
BRANCH  18  20
HETATM   20  C1  UNL     1      33.923 -29.827 -38.163  1.00  0.00     0.109 C 
HETATM   21  N1  UNL     1      34.663 -29.645 -37.123  1.00  0.00    -0.385 N 
ATOM     22  H12 UNL     1      35.677 -29.680 -37.230  1.00  0.00     0.157 HD
ATOM     23  H11 UNL     1      34.257 -29.468 -36.204  1.00  0.00     0.157 HD
BRANCH  20  24
HETATM   24  C20 UNL     1      32.488 -29.777 -38.011  1.00  0.00     0.008 A 
HETATM   25  C21 UNL     1      31.861 -28.581 -37.768  1.00  0.00     0.016 A 
HETATM   26  C22 UNL     1      30.500 -28.474 -37.614  1.00  0.00     0.009 A 
HETATM   27  C23 UNL     1      29.738 -29.661 -37.715  1.00  0.00    -0.040 A 
HETATM   28  C24 UNL     1      30.306 -30.865 -37.954  1.00  0.00    -0.004 A 
HETATM   29  C27 UNL     1      28.398 -30.269 -37.671  1.00  0.00     0.099 A 
HETATM   30  C25 UNL     1      31.708 -30.906 -38.102  1.00  0.00     0.029 A 
HETATM   31  C26 UNL     1      29.042 -31.549 -37.929  1.00  0.00     0.047 A 
BRANCH  31  32
HETATM   32  N12 UNL     1      28.612 -32.763 -38.068  1.00  0.00    -0.272 N 
ATOM     33  H12 UNL     1      27.857 -32.988 -38.716  1.00  0.00     0.194 HD
BRANCH  32  34
HETATM   34  O1  UNL     1      29.213 -33.734 -37.307  1.00  0.00    -0.290 OA
ATOM     35  H1  UNL     1      29.882 -34.263 -37.726  1.00  0.00     0.244 HD
ENDBRANCH  32  34
ENDBRANCH  31  32
ENDBRANCH  20  24
ENDBRANCH  18  20
ENDBRANCH  15  18
ENDBRANCH  10  12
ENDBRANCH   1  10
BRANCH   4  36
HETATM   36  N5  UNL     1      30.775 -23.823 -46.280  1.00  0.00    -0.215 N 
HETATM   37  C8  UNL     1      30.358 -22.454 -46.481  1.00  0.00     0.143 C 
HETATM   38  C9  UNL     1      30.519 -22.222 -47.955  1.00  0.00     0.055 C 
HETATM   39  C10 UNL     1      30.174 -23.570 -48.543  1.00  0.00     0.203 C 
HETATM   40  C11 UNL     1      30.787 -24.517 -47.552  1.00  0.00     0.173 C 
BRANCH  39  41
HETATM   41  N6  UNL     1      28.750 -23.737 -48.627  1.00  0.00    -0.073 N 
ATOM     42  H63 UNL     1      28.420 -24.485 -48.018  1.00  0.00     0.274 HD
ATOM     43  H62 UNL     1      28.252 -22.958 -48.197  1.00  0.00     0.274 HD
ATOM     44  H61 UNL     1      28.462 -23.882 -49.595  1.00  0.00     0.274 HD
ENDBRANCH  39  41
ENDBRANCH   4  36
BRANCH   7  45
HETATM   45  N8  UNL     1      30.266 -24.403 -41.496  1.00  0.00    -0.213 N 
HETATM   46  C13 UNL     1      29.307 -25.347 -40.964  1.00  0.00     0.174 C 
HETATM   47  C14 UNL     1      28.923 -24.880 -39.578  1.00  0.00     0.204 C 
HETATM   48  C15 UNL     1      30.226 -24.712 -38.794  1.00  0.00     0.069 C 
HETATM   49  C16 UNL     1      31.025 -23.552 -39.347  1.00  0.00     0.204 C 
HETATM   50  C17 UNL     1      30.564 -23.194 -40.761  1.00  0.00     0.174 C 
BRANCH  47  51
HETATM   51  N9  UNL     1      28.121 -25.834 -38.862  1.00  0.00    -0.073 N 
ATOM     52  H93 UNL     1      28.241 -26.771 -39.248  1.00  0.00     0.274 HD
ATOM     53  H92 UNL     1      28.492 -25.990 -37.925  1.00  0.00     0.274 HD
ATOM     54  H91 UNL     1      27.134 -25.580 -38.825  1.00  0.00     0.274 HD
ENDBRANCH  47  51
BRANCH  49  55
HETATM   55  N10 UNL     1      30.785 -22.405 -38.516  1.00  0.00    -0.073 N 
ATOM     56 3H10 UNL     1      30.322 -22.644 -37.639  1.00  0.00     0.274 HD
ATOM     57 2H10 UNL     1      31.643 -22.021 -38.119  1.00  0.00     0.274 HD
ATOM     58 1H10 UNL     1      30.264 -21.718 -39.061  1.00  0.00     0.274 HD
ENDBRANCH  49  55
ENDBRANCH   7  45
TORSDOF 12
ENDMDL
MODEL 2
REMARK VINA RESULT: -7.686085743      3.890      7.438
REMARK  12 active torsions:
REMARK  status: ('A' for Active; 'I' for Inactive)
REMARK    1  A    between atoms: C1_4  and  N2_5 
REMARK    2  A    between atoms: C1_4  and  C20_47 
REMARK    3  A    between atoms: N2_5  and  C2_7 
REMARK    4  A    between atoms: C5_10  and  N3_11 
REMARK    5  A    between atoms: N3_11  and  C6_13 
REMARK    6  A    between atoms: C7_16  and  N5_17 
REMARK    7  A    between atoms: C10_20  and  N6_21 
REMARK    8  A    between atoms: C12_28  and  N8_29 
REMARK    9  A    between atoms: C14_31  and  N9_32 
REMARK   10  A    between atoms: C16_37  and  N10_38 
REMARK   11  A    between atoms: C26_53  and  N12_54 
REMARK   12  A    between atoms: N12_54  and  O1_56 
ROOT
HETATM    1  C6  UNL     1      30.218 -27.447 -38.028  1.00  0.00     0.711 A 
HETATM    2  N4  UNL     1      30.724 -26.406 -37.386  1.00  0.00    -0.021 N 
ATOM      3  H4  UNL     1      30.598 -26.361 -36.374  1.00  0.00     0.203 HD
HETATM    4  C7  UNL     1      31.395 -25.404 -37.982  1.00  0.00     0.709 A 
HETATM    5  N7  UNL     1      31.547 -25.487 -39.307  1.00  0.00    -0.021 N 
ATOM      6  H7  UNL     1      32.050 -24.747 -39.795  1.00  0.00     0.203 HD
HETATM    7  C12 UNL     1      31.057 -26.516 -40.014  1.00  0.00     0.709 A 
HETATM    8  N11 UNL     1      30.393 -27.495 -39.369  1.00  0.00    -0.021 N 
ATOM      9  H11 UNL     1      30.016 -28.282 -39.899  1.00  0.00     0.203 HD
ENDROOT
BRANCH   1  10
HETATM   10  N3  UNL     1      29.593 -28.359 -37.382  1.00  0.00    -0.191 N 
ATOM     11  H3  UNL     1      28.857 -28.106 -36.722  1.00  0.00     0.184 HD
BRANCH  10  12
HETATM   12  C5  UNL     1      29.928 -29.730 -37.591  1.00  0.00     0.049 A 
HETATM   13  C4  UNL     1      28.934 -30.656 -37.877  1.00  0.00     0.032 A 
HETATM   14  C3  UNL     1      29.273 -31.961 -38.073  1.00  0.00     0.032 A 
HETATM   15  C2  UNL     1      30.567 -32.434 -38.004  1.00  0.00     0.033 A 
HETATM   16  C19 UNL     1      31.539 -31.491 -37.717  1.00  0.00     0.032 A 
HETATM   17  C18 UNL     1      31.232 -30.164 -37.513  1.00  0.00     0.032 A 
BRANCH  15  18
HETATM   18  N2  UNL     1      30.895 -33.799 -38.212  1.00  0.00    -0.342 N 
ATOM     19  H2  UNL     1      31.274 -34.075 -39.118  1.00  0.00     0.167 HD
BRANCH  18  20
HETATM   20  C1  UNL     1      30.722 -34.792 -37.228  1.00  0.00     0.109 C 
HETATM   21  N1  UNL     1      29.569 -35.324 -37.002  1.00  0.00    -0.385 N 
ATOM     22  H12 UNL     1      28.768 -35.012 -37.553  1.00  0.00     0.157 HD
ATOM     23  H11 UNL     1      29.444 -36.043 -36.290  1.00  0.00     0.157 HD
BRANCH  20  24
HETATM   24  C20 UNL     1      31.854 -35.233 -36.448  1.00  0.00     0.008 A 
HETATM   25  C21 UNL     1      33.115 -34.783 -36.748  1.00  0.00     0.016 A 
HETATM   26  C22 UNL     1      34.228 -35.169 -36.041  1.00  0.00     0.009 A 
HETATM   27  C23 UNL     1      34.038 -36.068 -34.966  1.00  0.00    -0.040 A 
HETATM   28  C24 UNL     1      32.816 -36.540 -34.629  1.00  0.00    -0.004 A 
HETATM   29  C27 UNL     1      34.668 -36.838 -33.880  1.00  0.00     0.099 A 
HETATM   30  C25 UNL     1      31.715 -36.105 -35.394  1.00  0.00     0.029 A 
HETATM   31  C26 UNL     1      33.338 -37.327 -33.544  1.00  0.00     0.047 A 
BRANCH  31  32
HETATM   32  N12 UNL     1      32.876 -38.132 -32.641  1.00  0.00    -0.272 N 
ATOM     33  H12 UNL     1      32.826 -39.138 -32.801  1.00  0.00     0.194 HD
BRANCH  32  34
HETATM   34  O1  UNL     1      32.456 -37.575 -31.459  1.00  0.00    -0.290 OA
ATOM     35  H1  UNL     1      32.985 -36.873 -31.097  1.00  0.00     0.244 HD
ENDBRANCH  32  34
ENDBRANCH  31  32
ENDBRANCH  20  24
ENDBRANCH  18  20
ENDBRANCH  15  18
ENDBRANCH  10  12
ENDBRANCH   1  10
BRANCH   4  36
HETATM   36  N5  UNL     1      31.898 -24.335 -37.208  1.00  0.00    -0.215 N 
HETATM   37  C8  UNL     1      31.440 -23.931 -35.898  1.00  0.00     0.143 C 
HETATM   38  C9  UNL     1      32.542 -23.062 -35.364  1.00  0.00     0.055 C 
HETATM   39  C10 UNL     1      33.054 -22.373 -36.608  1.00  0.00     0.203 C 
HETATM   40  C11 UNL     1      32.977 -23.468 -37.633  1.00  0.00     0.173 C 
BRANCH  39  41
HETATM   41  N6  UNL     1      32.213 -21.261 -36.954  1.00  0.00    -0.073 N 
ATOM     42  H63 UNL     1      32.169 -21.119 -37.963  1.00  0.00     0.274 HD
ATOM     43  H62 UNL     1      31.228 -21.465 -36.784  1.00  0.00     0.274 HD
ATOM     44  H61 UNL     1      32.514 -20.417 -36.466  1.00  0.00     0.274 HD
ENDBRANCH  39  41
ENDBRANCH   4  36
BRANCH   7  45
HETATM   45  N8  UNL     1      31.207 -26.622 -41.424  1.00  0.00    -0.213 N 
HETATM   46  C13 UNL     1      30.514 -25.659 -42.253  1.00  0.00     0.174 C 
HETATM   47  C14 UNL     1      30.959 -25.876 -43.682  1.00  0.00     0.204 C 
HETATM   48  C15 UNL     1      32.487 -25.804 -43.681  1.00  0.00     0.069 C 
HETATM   49  C16 UNL     1      33.068 -26.993 -42.947  1.00  0.00     0.204 C 
HETATM   50  C17 UNL     1      32.020 -27.645 -42.043  1.00  0.00     0.174 C 
BRANCH  47  51
HETATM   51  N9  UNL     1      30.489 -24.859 -44.581  1.00  0.00    -0.073 N 
ATOM     52  H93 UNL     1      29.593 -25.121 -44.990  1.00  0.00     0.274 HD
ATOM     53  H92 UNL     1      30.201 -24.026 -44.067  1.00  0.00     0.274 HD
ATOM     54  H91 UNL     1      31.166 -24.622 -45.307  1.00  0.00     0.274 HD
ENDBRANCH  47  51
BRANCH  49  55
HETATM   55  N10 UNL     1      33.463 -27.973 -43.920  1.00  0.00    -0.073 N 
ATOM     56 3H10 UNL     1      32.869 -27.966 -44.750  1.00  0.00     0.274 HD
ATOM     57 2H10 UNL     1      34.344 -27.739 -44.379  1.00  0.00     0.274 HD
ATOM     58 1H10 UNL     1      33.489 -28.885 -43.463  1.00  0.00     0.274 HD
ENDBRANCH  49  55
ENDBRANCH   7  45
TORSDOF 12
ENDMDL
MODEL 3
REMARK VINA RESULT: -7.604698415      5.444     10.085
REMARK  12 active torsions:
REMARK  status: ('A' for Active; 'I' for Inactive)
REMARK    1  A    between atoms: C1_4  and  N2_5 
REMARK    2  A    between atoms: C1_4  and  C20_47 
REMARK    3  A    between atoms: N2_5  and  C2_7 
REMARK    4  A    between atoms: C5_10  and  N3_11 
REMARK    5  A    between atoms: N3_11  and  C6_13 
REMARK    6  A    between atoms: C7_16  and  N5_17 
REMARK    7  A    between atoms: C10_20  and  N6_21 
REMARK    8  A    between atoms: C12_28  and  N8_29 
REMARK    9  A    between atoms: C14_31  and  N9_32 
REMARK   10  A    between atoms: C16_37  and  N10_38 
REMARK   11  A    between atoms: C26_53  and  N12_54 
REMARK   12  A    between atoms: N12_54  and  O1_56 
ROOT
HETATM    1  C6  UNL     1      33.223 -34.132 -43.062  1.00  0.00     0.711 A 
HETATM    2  N4  UNL     1      32.990 -34.662 -41.871  1.00  0.00    -0.021 N 
ATOM      3  H4  UNL     1      33.418 -34.217 -41.059  1.00  0.00     0.203 HD
HETATM    4  C7  UNL     1      32.224 -35.747 -41.664  1.00  0.00     0.709 A 
HETATM    5  N7  UNL     1      31.675 -36.311 -42.745  1.00  0.00    -0.021 N 
ATOM      6  H7  UNL     1      31.087 -37.136 -42.628  1.00  0.00     0.203 HD
HETATM    7  C12 UNL     1      31.874 -35.823 -43.977  1.00  0.00     0.709 A 
HETATM    8  N11 UNL     1      32.650 -34.732 -44.132  1.00  0.00    -0.021 N 
ATOM      9  H11 UNL     1      32.806 -34.353 -45.065  1.00  0.00     0.203 HD
ENDROOT
BRANCH   1  10
HETATM   10  N3  UNL     1      33.966 -33.095 -43.171  1.00  0.00    -0.191 N 
ATOM     11  H3  UNL     1      34.928 -33.187 -43.496  1.00  0.00     0.184 HD
BRANCH  10  12
HETATM   12  C5  UNL     1      33.442 -31.812 -42.835  1.00  0.00     0.049 A 
HETATM   13  C4  UNL     1      33.807 -31.199 -41.643  1.00  0.00     0.032 A 
HETATM   14  C3  UNL     1      33.297 -29.973 -41.339  1.00  0.00     0.032 A 
HETATM   15  C2  UNL     1      32.421 -29.285 -42.154  1.00  0.00     0.033 A 
HETATM   16  C19 UNL     1      32.072 -29.918 -43.334  1.00  0.00     0.032 A 
HETATM   17  C18 UNL     1      32.569 -31.156 -43.673  1.00  0.00     0.032 A 
BRANCH  15  18
HETATM   18  N2  UNL     1      31.903 -28.008 -41.813  1.00  0.00    -0.342 N 
ATOM     19  H2  UNL     1      32.508 -27.194 -41.922  1.00  0.00     0.167 HD
BRANCH  18  20
HETATM   20  C1  UNL     1      30.593 -27.810 -41.333  1.00  0.00     0.109 C 
HETATM   21  N1  UNL     1      29.722 -27.141 -42.008  1.00  0.00    -0.385 N 
ATOM     22  H12 UNL     1      29.994 -26.749 -42.910  1.00  0.00     0.157 HD
ATOM     23  H11 UNL     1      28.773 -26.999 -41.661  1.00  0.00     0.157 HD
BRANCH  20  24
HETATM   24  C20 UNL     1      30.207 -28.365 -40.058  1.00  0.00     0.008 A 
HETATM   25  C21 UNL     1      30.362 -27.630 -38.910  1.00  0.00     0.016 A 
HETATM   26  C22 UNL     1      30.013 -28.107 -37.670  1.00  0.00     0.009 A 
HETATM   27  C23 UNL     1      29.473 -29.413 -37.602  1.00  0.00    -0.040 A 
HETATM   28  C24 UNL     1      29.299 -30.178 -38.704  1.00  0.00    -0.004 A 
HETATM   29  C27 UNL     1      28.931 -30.477 -36.741  1.00  0.00     0.099 A 
HETATM   30  C25 UNL     1      29.678 -29.630 -39.946  1.00  0.00     0.029 A 
HETATM   31  C26 UNL     1      28.757 -31.274 -37.946  1.00  0.00     0.047 A 
BRANCH  31  32
HETATM   32  N12 UNL     1      28.302 -32.463 -38.182  1.00  0.00    -0.272 N 
ATOM     33  H12 UNL     1      27.466 -32.610 -38.749  1.00  0.00     0.194 HD
BRANCH  32  34
HETATM   34  O1  UNL     1      28.989 -33.519 -37.636  1.00  0.00    -0.290 OA
ATOM     35  H1  UNL     1      28.625 -33.918 -36.854  1.00  0.00     0.244 HD
ENDBRANCH  32  34
ENDBRANCH  31  32
ENDBRANCH  20  24
ENDBRANCH  18  20
ENDBRANCH  15  18
ENDBRANCH  10  12
ENDBRANCH   1  10
BRANCH   4  36
HETATM   36  N5  UNL     1      32.035 -36.236 -40.352  1.00  0.00    -0.215 N 
HETATM   37  C8  UNL     1      31.660 -37.582 -39.982  1.00  0.00     0.143 C 
HETATM   38  C9  UNL     1      32.001 -37.681 -38.523  1.00  0.00     0.055 C 
HETATM   39  C10 UNL     1      31.716 -36.285 -38.020  1.00  0.00     0.203 C 
HETATM   40  C11 UNL     1      32.194 -35.431 -39.159  1.00  0.00     0.173 C 
BRANCH  39  41
HETATM   41  N6  UNL     1      30.311 -36.111 -37.778  1.00  0.00    -0.073 N 
ATOM     42  H63 UNL     1      29.830 -37.005 -37.679  1.00  0.00     0.274 HD
ATOM     43  H62 UNL     1      30.131 -35.736 -36.847  1.00  0.00     0.274 HD
ATOM     44  H61 UNL     1      29.890 -35.533 -38.506  1.00  0.00     0.274 HD
ENDBRANCH  39  41
ENDBRANCH   4  36
BRANCH   7  45
HETATM   45  N8  UNL     1      31.299 -36.408 -45.139  1.00  0.00    -0.213 N 
HETATM   46  C13 UNL     1      29.937 -36.891 -45.050  1.00  0.00     0.174 C 
HETATM   47  C14 UNL     1      29.506 -37.310 -46.437  1.00  0.00     0.204 C 
HETATM   48  C15 UNL     1      29.748 -36.109 -47.353  1.00  0.00     0.069 C 
HETATM   49  C16 UNL     1      31.232 -35.858 -47.507  1.00  0.00     0.204 C 
HETATM   50  C17 UNL     1      32.022 -36.532 -46.385  1.00  0.00     0.174 C 
BRANCH  47  51
HETATM   51  N9  UNL     1      28.108 -37.629 -46.522  1.00  0.00    -0.073 N 
ATOM     52  H93 UNL     1      27.935 -38.589 -46.220  1.00  0.00     0.274 HD
ATOM     53  H92 UNL     1      27.578 -37.131 -45.807  1.00  0.00     0.274 HD
ATOM     54  H91 UNL     1      27.714 -37.464 -47.448  1.00  0.00     0.274 HD
ENDBRANCH  47  51
BRANCH  49  55
HETATM   55  N10 UNL     1      31.662 -36.446 -48.746  1.00  0.00    -0.073 N 
ATOM     56 3H10 UNL     1      31.703 -35.770 -49.509  1.00  0.00     0.274 HD
ATOM     57 2H10 UNL     1      32.649 -36.704 -48.737  1.00  0.00     0.274 HD
ATOM     58 1H10 UNL     1      31.051 -37.236 -48.953  1.00  0.00     0.274 HD
ENDBRANCH  49  55
ENDBRANCH   7  45
TORSDOF 12
ENDMDL
MODEL 4
REMARK VINA RESULT: -7.562233775      3.564      7.668
REMARK  12 active torsions:
REMARK  status: ('A' for Active; 'I' for Inactive)
REMARK    1  A    between atoms: C1_4  and  N2_5 
REMARK    2  A    between atoms: C1_4  and  C20_47 
REMARK    3  A    between atoms: N2_5  and  C2_7 
REMARK    4  A    between atoms: C5_10  and  N3_11 
REMARK    5  A    between atoms: N3_11  and  C6_13 
REMARK    6  A    between atoms: C7_16  and  N5_17 
REMARK    7  A    between atoms: C10_20  and  N6_21 
REMARK    8  A    between atoms: C12_28  and  N8_29 
REMARK    9  A    between atoms: C14_31  and  N9_32 
REMARK   10  A    between atoms: C16_37  and  N10_38 
REMARK   11  A    between atoms: C26_53  and  N12_54 
REMARK   12  A    between atoms: N12_54  and  O1_56 
ROOT
HETATM    1  C6  UNL     1      30.140 -26.619 -40.755  1.00  0.00     0.711 A 
HETATM    2  N4  UNL     1      29.749 -27.761 -40.211  1.00  0.00    -0.021 N 
ATOM      3  H4  UNL     1      29.510 -28.531 -40.836  1.00  0.00     0.203 HD
HETATM    4  C7  UNL     1      29.649 -27.971 -38.887  1.00  0.00     0.709 A 
HETATM    5  N7  UNL     1      29.967 -26.947 -38.089  1.00  0.00    -0.021 N 
ATOM      6  H7  UNL     1      29.904 -27.068 -37.079  1.00  0.00     0.203 HD
HETATM    7  C12 UNL     1      30.369 -25.765 -38.580  1.00  0.00     0.709 A 
HETATM    8  N11 UNL     1      30.454 -25.606 -39.915  1.00  0.00    -0.021 N 
ATOM      9  H11 UNL     1      30.758 -24.710 -40.297  1.00  0.00     0.203 HD
ENDROOT
BRANCH   1  10
HETATM   10  N3  UNL     1      30.208 -26.504 -42.028  1.00  0.00    -0.191 N 
ATOM     11  H3  UNL     1      29.407 -26.153 -42.554  1.00  0.00     0.184 HD
BRANCH  10  12
HETATM   12  C5  UNL     1      31.408 -26.868 -42.708  1.00  0.00     0.049 A 
HETATM   13  C4  UNL     1      32.066 -25.942 -43.507  1.00  0.00     0.032 A 
HETATM   14  C3  UNL     1      33.211 -26.308 -44.148  1.00  0.00     0.032 A 
HETATM   15  C2  UNL     1      33.773 -27.564 -44.055  1.00  0.00     0.033 A 
HETATM   16  C19 UNL     1      33.098 -28.468 -43.253  1.00  0.00     0.032 A 
HETATM   17  C18 UNL     1      31.938 -28.133 -42.591  1.00  0.00     0.032 A 
BRANCH  15  18
HETATM   18  N2  UNL     1      34.968 -27.921 -44.734  1.00  0.00    -0.342 N 
ATOM     19  H2  UNL     1      35.363 -27.258 -45.402  1.00  0.00     0.167 HD
BRANCH  18  20
HETATM   20  C1  UNL     1      35.634 -29.145 -44.531  1.00  0.00     0.109 C 
HETATM   21  N1  UNL     1      36.448 -29.314 -43.546  1.00  0.00    -0.385 N 
ATOM     22  H12 UNL     1      36.609 -28.538 -42.903  1.00  0.00     0.157 HD
ATOM     23  H11 UNL     1      36.930 -30.201 -43.399  1.00  0.00     0.157 HD
BRANCH  20  24
HETATM   24  C20 UNL     1      35.407 -30.243 -45.441  1.00  0.00     0.008 A 
HETATM   25  C21 UNL     1      36.412 -30.671 -46.270  1.00  0.00     0.016 A 
HETATM   26  C22 UNL     1      36.253 -31.710 -47.155  1.00  0.00     0.009 A 
HETATM   27  C23 UNL     1      34.990 -32.346 -47.192  1.00  0.00    -0.040 A 
HETATM   28  C24 UNL     1      33.966 -31.963 -46.396  1.00  0.00    -0.004 A 
HETATM   29  C27 UNL     1      34.162 -33.401 -47.801  1.00  0.00     0.099 A 
HETATM   30  C25 UNL     1      34.195 -30.891 -45.510  1.00  0.00     0.029 A 
HETATM   31  C26 UNL     1      33.081 -32.963 -46.929  1.00  0.00     0.047 A 
BRANCH  31  32
HETATM   32  N12 UNL     1      31.857 -33.346 -46.749  1.00  0.00    -0.272 N 
ATOM     33  H12 UNL     1      31.160 -33.263 -47.490  1.00  0.00     0.194 HD
BRANCH  32  34
HETATM   34  O1  UNL     1      31.535 -33.868 -45.521  1.00  0.00    -0.290 OA
ATOM     35  H1  UNL     1      31.379 -33.253 -44.815  1.00  0.00     0.244 HD
ENDBRANCH  32  34
ENDBRANCH  31  32
ENDBRANCH  20  24
ENDBRANCH  18  20
ENDBRANCH  15  18
ENDBRANCH  10  12
ENDBRANCH   1  10
BRANCH   4  36
HETATM   36  N5  UNL     1      29.223 -29.228 -38.403  1.00  0.00    -0.215 N 
HETATM   37  C8  UNL     1      29.463 -29.769 -37.084  1.00  0.00     0.143 C 
HETATM   38  C9  UNL     1      28.476 -30.892 -36.951  1.00  0.00     0.055 C 
HETATM   39  C10 UNL     1      28.396 -31.433 -38.360  1.00  0.00     0.203 C 
HETATM   40  C11 UNL     1      28.463 -30.181 -39.186  1.00  0.00     0.173 C 
BRANCH  39  41
HETATM   41  N6  UNL     1      29.502 -32.308 -38.631  1.00  0.00    -0.073 N 
ATOM     42  H63 UNL     1      30.366 -31.788 -38.791  1.00  0.00     0.274 HD
ATOM     43  H62 UNL     1      29.788 -32.826 -37.799  1.00  0.00     0.274 HD
ATOM     44  H61 UNL     1      29.286 -32.932 -39.408  1.00  0.00     0.274 HD
ENDBRANCH  39  41
ENDBRANCH   4  36
BRANCH   7  45
HETATM   45  N8  UNL     1      30.712 -24.664 -37.748  1.00  0.00    -0.213 N 
HETATM   46  C13 UNL     1      31.435 -24.939 -36.525  1.00  0.00     0.174 C 
HETATM   47  C14 UNL     1      31.821 -23.613 -35.910  1.00  0.00     0.204 C 
HETATM   48  C15 UNL     1      32.572 -22.831 -36.989  1.00  0.00     0.069 C 
HETATM   49  C16 UNL     1      31.629 -22.440 -38.106  1.00  0.00     0.204 C 
HETATM   50  C17 UNL     1      30.366 -23.301 -38.083  1.00  0.00     0.174 C 
BRANCH  47  51
HETATM   51  N9  UNL     1      32.711 -23.747 -34.790  1.00  0.00    -0.073 N 
ATOM     52  H93 UNL     1      33.676 -23.854 -35.104  1.00  0.00     0.274 HD
ATOM     53  H92 UNL     1      32.796 -22.864 -34.286  1.00  0.00     0.274 HD
ATOM     54  H91 UNL     1      32.448 -24.502 -34.157  1.00  0.00     0.274 HD
ENDBRANCH  47  51
BRANCH  49  55
HETATM   55  N10 UNL     1      31.223 -21.078 -37.895  1.00  0.00    -0.073 N 
ATOM     56 3H10 UNL     1      31.886 -20.405 -38.282  1.00  0.00     0.274 HD
ATOM     57 2H10 UNL     1      30.415 -20.816 -38.461  1.00  0.00     0.274 HD
ATOM     58 1H10 UNL     1      31.063 -20.943 -36.897  1.00  0.00     0.274 HD
ENDBRANCH  49  55
ENDBRANCH   7  45
TORSDOF 12
ENDMDL
MODEL 5
REMARK VINA RESULT: -7.510844796      4.170      7.654
REMARK  12 active torsions:
REMARK  status: ('A' for Active; 'I' for Inactive)
REMARK    1  A    between atoms: C1_4  and  N2_5 
REMARK    2  A    between atoms: C1_4  and  C20_47 
REMARK    3  A    between atoms: N2_5  and  C2_7 
REMARK    4  A    between atoms: C5_10  and  N3_11 
REMARK    5  A    between atoms: N3_11  and  C6_13 
REMARK    6  A    between atoms: C7_16  and  N5_17 
REMARK    7  A    between atoms: C10_20  and  N6_21 
REMARK    8  A    between atoms: C12_28  and  N8_29 
REMARK    9  A    between atoms: C14_31  and  N9_32 
REMARK   10  A    between atoms: C16_37  and  N10_38 
REMARK   11  A    between atoms: C26_53  and  N12_54 
REMARK   12  A    between atoms: N12_54  and  O1_56 
ROOT
HETATM    1  C6  UNL     1      32.977 -31.020 -43.684  1.00  0.00     0.711 A 
HETATM    2  N4  UNL     1      32.593 -31.873 -44.621  1.00  0.00    -0.021 N 
ATOM      3  H4  UNL     1      32.077 -31.504 -45.420  1.00  0.00     0.203 HD
HETATM    4  C7  UNL     1      32.841 -33.194 -44.587  1.00  0.00     0.709 A 
HETATM    5  N7  UNL     1      33.518 -33.652 -43.529  1.00  0.00    -0.021 N 
ATOM      6  H7  UNL     1      33.725 -34.649 -43.467  1.00  0.00     0.203 HD
HETATM    7  C12 UNL     1      33.933 -32.839 -42.547  1.00  0.00     0.709 A 
HETATM    8  N11 UNL     1      33.660 -31.522 -42.629  1.00  0.00    -0.021 N 
ATOM      9  H11 UNL     1      33.972 -30.896 -41.887  1.00  0.00     0.203 HD
ENDROOT
BRANCH   1  10
HETATM   10  N3  UNL     1      32.700 -29.775 -43.795  1.00  0.00    -0.191 N 
ATOM     11  H3  UNL     1      32.867 -29.290 -44.676  1.00  0.00     0.184 HD
BRANCH  10  12
HETATM   12  C5  UNL     1      32.155 -29.070 -42.681  1.00  0.00     0.049 A 
HETATM   13  C4  UNL     1      32.918 -28.117 -42.018  1.00  0.00     0.032 A 
HETATM   14  C3  UNL     1      32.381 -27.454 -40.956  1.00  0.00     0.032 A 
HETATM   15  C2  UNL     1      31.104 -27.671 -40.484  1.00  0.00     0.033 A 
HETATM   16  C19 UNL     1      30.365 -28.625 -41.161  1.00  0.00     0.032 A 
HETATM   17  C18 UNL     1      30.875 -29.315 -42.238  1.00  0.00     0.032 A 
BRANCH  15  18
HETATM   18  N2  UNL     1      30.568 -26.966 -39.374  1.00  0.00    -0.342 N 
ATOM     19  H2  UNL     1      30.232 -26.013 -39.520  1.00  0.00     0.167 HD
BRANCH  18  20
HETATM   20  C1  UNL     1      30.477 -27.517 -38.081  1.00  0.00     0.109 C 
HETATM   21  N1  UNL     1      30.035 -26.829 -37.084  1.00  0.00    -0.385 N 
ATOM     22  H12 UNL     1      29.746 -25.864 -37.243  1.00  0.00     0.157 HD
ATOM     23  H11 UNL     1      29.969 -27.229 -36.148  1.00  0.00     0.157 HD
BRANCH  20  24
HETATM   24  C20 UNL     1      30.886 -28.883 -37.855  1.00  0.00     0.008 A 
HETATM   25  C21 UNL     1      32.200 -29.176 -37.589  1.00  0.00     0.016 A 
HETATM   26  C22 UNL     1      32.645 -30.456 -37.367  1.00  0.00     0.009 A 
HETATM   27  C23 UNL     1      31.690 -31.497 -37.421  1.00  0.00    -0.040 A 
HETATM   28  C24 UNL     1      30.383 -31.263 -37.679  1.00  0.00    -0.004 A 
HETATM   29  C27 UNL     1      31.438 -32.943 -37.304  1.00  0.00     0.099 A 
HETATM   30  C25 UNL     1      29.991 -29.926 -37.898  1.00  0.00     0.029 A 
HETATM   31  C26 UNL     1      30.038 -32.656 -37.584  1.00  0.00     0.047 A 
BRANCH  31  32
HETATM   32  N12 UNL     1      28.973 -33.384 -37.692  1.00  0.00    -0.272 N 
ATOM     33  H12 UNL     1      28.205 -33.115 -38.307  1.00  0.00     0.194 HD
BRANCH  32  34
HETATM   34  O1  UNL     1      28.920 -34.534 -36.944  1.00  0.00    -0.290 OA
ATOM     35  H1  UNL     1      28.551 -34.468 -36.071  1.00  0.00     0.244 HD
ENDBRANCH  32  34
ENDBRANCH  31  32
ENDBRANCH  20  24
ENDBRANCH  18  20
ENDBRANCH  15  18
ENDBRANCH  10  12
ENDBRANCH   1  10
BRANCH   4  36
HETATM   36  N5  UNL     1      32.389 -34.023 -45.637  1.00  0.00    -0.215 N 
HETATM   37  C8  UNL     1      32.388 -33.702 -47.047  1.00  0.00     0.143 C 
HETATM   38  C9  UNL     1      32.220 -35.026 -47.735  1.00  0.00     0.055 C 
HETATM   39  C10 UNL     1      31.325 -35.784 -46.783  1.00  0.00     0.203 C 
HETATM   40  C11 UNL     1      31.846 -35.352 -45.443  1.00  0.00     0.173 C 
BRANCH  39  41
HETATM   41  N6  UNL     1      29.952 -35.404 -46.967  1.00  0.00    -0.073 N 
ATOM     42  H63 UNL     1      29.708 -34.584 -46.410  1.00  0.00     0.274 HD
ATOM     43  H62 UNL     1      29.788 -35.013 -47.895  1.00  0.00     0.274 HD
ATOM     44  H61 UNL     1      29.332 -36.190 -46.773  1.00  0.00     0.274 HD
ENDBRANCH  39  41
ENDBRANCH   4  36
BRANCH   7  45
HETATM   45  N8  UNL     1      34.654 -33.307 -41.414  1.00  0.00    -0.213 N 
HETATM   46  C13 UNL     1      35.565 -32.388 -40.765  1.00  0.00     0.174 C 
HETATM   47  C14 UNL     1      36.078 -33.057 -39.510  1.00  0.00     0.204 C 
HETATM   48  C15 UNL     1      34.847 -33.484 -38.707  1.00  0.00     0.069 C 
HETATM   49  C16 UNL     1      34.112 -34.595 -39.423  1.00  0.00     0.204 C 
HETATM   50  C17 UNL     1      34.506 -34.650 -40.900  1.00  0.00     0.174 C 
BRANCH  47  51
HETATM   51  N9  UNL     1      36.844 -32.176 -38.672  1.00  0.00    -0.073 N 
ATOM     52  H93 UNL     1      37.446 -31.574 -39.234  1.00  0.00     0.274 HD
ATOM     53  H92 UNL     1      36.245 -31.467 -38.249  1.00  0.00     0.274 HD
ATOM     54  H91 UNL     1      37.384 -32.669 -37.960  1.00  0.00     0.274 HD
ENDBRANCH  47  51
BRANCH  49  55
HETATM   55  N10 UNL     1      34.500 -35.845 -38.830  1.00  0.00    -0.073 N 
ATOM     56 3H10 UNL     1      35.170 -36.361 -39.401  1.00  0.00     0.274 HD
ATOM     57 2H10 UNL     1      35.086 -35.724 -38.004  1.00  0.00     0.274 HD
ATOM     58 1H10 UNL     1      33.654 -36.382 -38.635  1.00  0.00     0.274 HD
ENDBRANCH  49  55
ENDBRANCH   7  45
TORSDOF 12
ENDMDL
