MODEL 1
REMARK VINA RESULT: -8.268575372      0.000      0.000
REMARK  7 active torsions:
REMARK  status: ('A' for Active; 'I' for Inactive)
REMARK       I    between atoms: C1_4  and  N3_6 
REMARK    1  A    between atoms: N3_6  and  C2_8 
REMARK    2  A    between atoms: C6_17  and  N7_18 
REMARK    3  A    between atoms: C7_20  and  C8_21 
REMARK    4  A    between atoms: C10_23  and  N8_24 
REMARK    5  A    between atoms: C13_29  and  O3_30 
REMARK    6  A    between atoms: N10_35  and  C15_37 
REMARK    7  A    between atoms: C18_40  and  S1_41 
ROOT
HETATM    1  C2  UNL     1      29.975 -24.596 -40.264  1.00  0.00     0.687 A 
HETATM    2  N4  UNL     1      30.237 -25.482 -39.282  1.00  0.00    -0.175 N 
ATOM      3  H4  UNL     1      30.431 -25.146 -38.339  1.00  0.00     0.186 HD
HETATM    4  C3  UNL     1      30.246 -26.802 -39.530  1.00  0.00     0.150 A 
HETATM    5  C4  UNL     1      29.987 -27.288 -40.796  1.00  0.00     0.071 A 
HETATM    6  C5  UNL     1      29.724 -26.355 -41.773  1.00  0.00     0.145 A 
HETATM    7  N5  UNL     1      29.438 -26.701 -43.122  1.00  0.00    -0.081 NA
HETATM    8  N6  UNL     1      29.721 -25.018 -41.493  1.00  0.00    -0.178 N 
ATOM      9  H6  UNL     1      29.522 -24.343 -42.232  1.00  0.00     0.185 HD
HETATM   10  C6  UNL     1      29.977 -28.722 -41.117  1.00  0.00     0.240 A 
HETATM   11  N9  UNL     1      30.298 -29.557 -39.979  1.00  0.00    -0.200 N 
ATOM     12  H9  UNL     1      30.334 -30.564 -40.137  1.00  0.00     0.180 HD
HETATM   13  C14 UNL     1      30.566 -29.105 -38.672  1.00  0.00     0.682 A 
HETATM   14  N10 UNL     1      30.829 -29.826 -37.651  1.00  0.00    -0.192 N 
ATOM     15  H10 UNL     1      30.995 -29.315 -36.784  1.00  0.00     0.184 HD
HETATM   16  N11 UNL     1      30.537 -27.679 -38.449  1.00  0.00    -0.175 N 
ATOM     17  H11 UNL     1      30.726 -27.302 -37.520  1.00  0.00     0.186 HD
ENDROOT
BRANCH  10  18
HETATM   18  N7  UNL     1      30.860 -29.093 -42.176  1.00  0.00    -0.373 N 
HETATM   19  C7  UNL     1      32.109 -29.048 -42.180  1.00  0.00     0.099 C 
ATOM     20  H7  UNL     1      30.421 -29.437 -43.030  1.00  0.00     0.161 HD
BRANCH  19  21
HETATM   21  C8  UNL     1      33.016 -29.422 -43.246  1.00  0.00     0.015 A 
HETATM   22  C9  UNL     1      34.104 -28.590 -43.545  1.00  0.00     0.051 A 
HETATM   23  C10 UNL     1      35.021 -28.849 -44.529  1.00  0.00     0.103 A 
HETATM   24  C11 UNL     1      34.818 -30.012 -45.242  1.00  0.00     0.039 A 
HETATM   25  C12 UNL     1      33.788 -30.859 -45.003  1.00  0.00     0.040 A 
HETATM   26  C13 UNL     1      32.848 -30.573 -43.979  1.00  0.00     0.077 A 
BRANCH  23  27
HETATM   27  N8  UNL     1      36.117 -27.997 -44.822  1.00  0.00    -0.116 N 
HETATM   28  O1  UNL     1      36.352 -27.685 -45.992  1.00  0.00    -0.532 OA
HETATM   29  O2  UNL     1      36.946 -27.495 -43.847  1.00  0.00    -0.532 OA
ENDBRANCH  23  27
BRANCH  26  30
HETATM   30  O3  UNL     1      31.855 -31.468 -43.808  1.00  0.00    -0.360 OA
ATOM     31  H3  UNL     1      30.963 -31.257 -43.559  1.00  0.00     0.217 HD
ENDBRANCH  26  30
ENDBRANCH  19  21
ENDBRANCH  10  18
BRANCH  14  32
HETATM   32  C15 UNL     1      30.921 -31.216 -37.558  1.00  0.00     0.049 A 
HETATM   33  C16 UNL     1      29.855 -32.096 -37.560  1.00  0.00     0.031 A 
HETATM   34  C17 UNL     1      30.104 -33.448 -37.466  1.00  0.00     0.028 A 
HETATM   35  C18 UNL     1      31.371 -33.983 -37.367  1.00  0.00     0.080 A 
HETATM   36  C19 UNL     1      32.413 -33.072 -37.367  1.00  0.00     0.028 A 
HETATM   37  C20 UNL     1      32.220 -31.731 -37.458  1.00  0.00     0.031 A 
BRANCH  35  38
HETATM   38  S1  UNL     1      31.714 -35.680 -37.246  1.00  0.00     0.137 S 
HETATM   39  O4  UNL     1      33.126 -35.911 -37.763  1.00  0.00    -0.591 OA
HETATM   40  O5  UNL     1      30.811 -36.511 -38.117  1.00  0.00    -0.591 OA
HETATM   41  O6  UNL     1      31.687 -36.228 -35.652  1.00  0.00    -0.591 OA
ENDBRANCH  35  38
ENDBRANCH  14  32
BRANCH   1  42
HETATM   42  N3  UNL     1      29.977 -23.324 -39.979  1.00  0.00    -0.164 N 
HETATM   43  C1  UNL     1      30.820 -22.753 -38.996  1.00  0.00     0.200 C 
HETATM   44  N1  UNL     1      30.352 -22.339 -37.850  1.00  0.00    -0.373 N 
HETATM   45  N2  UNL     1      32.207 -22.627 -39.266  1.00  0.00    -0.063 NA
ATOM     46  H12 UNL     1      30.960 -21.927 -37.142  1.00  0.00     0.158 HD
ATOM     47  H11 UNL     1      29.355 -22.430 -37.656  1.00  0.00     0.158 HD
ATOM     48  H3  UNL     1      29.341 -22.711 -40.488  1.00  0.00     0.187 HD
ENDBRANCH   1  42
TORSDOF 7
ENDMDL
MODEL 2
REMARK VINA RESULT: -8.248373115      1.397      2.387
REMARK  7 active torsions:
REMARK  status: ('A' for Active; 'I' for Inactive)
REMARK       I    between atoms: C1_4  and  N3_6 
REMARK    1  A    between atoms: N3_6  and  C2_8 
REMARK    2  A    between atoms: C6_17  and  N7_18 
REMARK    3  A    between atoms: C7_20  and  C8_21 
REMARK    4  A    between atoms: C10_23  and  N8_24 
REMARK    5  A    between atoms: C13_29  and  O3_30 
REMARK    6  A    between atoms: N10_35  and  C15_37 
REMARK    7  A    between atoms: C18_40  and  S1_41 
ROOT
HETATM    1  C2  UNL     1      30.099 -24.479 -40.246  1.00  0.00     0.687 A 
HETATM    2  N4  UNL     1      30.409 -25.361 -39.275  1.00  0.00    -0.175 N 
ATOM      3  H4  UNL     1      30.653 -25.021 -38.345  1.00  0.00     0.186 HD
HETATM    4  C3  UNL     1      30.398 -26.683 -39.518  1.00  0.00     0.150 A 
HETATM    5  C4  UNL     1      30.071 -27.173 -40.766  1.00  0.00     0.071 A 
HETATM    6  C5  UNL     1      29.761 -26.243 -41.732  1.00  0.00     0.145 A 
HETATM    7  N5  UNL     1      29.403 -26.594 -43.063  1.00  0.00    -0.081 NA
HETATM    8  N6  UNL     1      29.779 -24.905 -41.458  1.00  0.00    -0.178 N 
ATOM      9  H6  UNL     1      29.544 -24.232 -42.189  1.00  0.00     0.185 HD
HETATM   10  C6  UNL     1      30.038 -28.608 -41.079  1.00  0.00     0.240 A 
HETATM   11  N9  UNL     1      30.415 -29.440 -39.955  1.00  0.00    -0.200 N 
ATOM     12  H9  UNL     1      30.438 -30.447 -40.111  1.00  0.00     0.180 HD
HETATM   13  C14 UNL     1      30.752 -28.983 -38.667  1.00  0.00     0.682 A 
HETATM   14  N10 UNL     1      31.066 -29.701 -37.657  1.00  0.00    -0.192 N 
ATOM     15  H10 UNL     1      31.279 -29.187 -36.802  1.00  0.00     0.184 HD
HETATM   16  N11 UNL     1      30.742 -27.556 -38.449  1.00  0.00    -0.175 N 
ATOM     17  H11 UNL     1      30.981 -27.176 -37.533  1.00  0.00     0.186 HD
ENDROOT
BRANCH  10  18
HETATM   18  N7  UNL     1      30.863 -28.988 -42.181  1.00  0.00    -0.373 N 
HETATM   19  C7  UNL     1      31.794 -29.821 -42.186  1.00  0.00     0.099 C 
ATOM     20  H7  UNL     1      30.668 -28.526 -43.069  1.00  0.00     0.161 HD
BRANCH  19  21
HETATM   21  C8  UNL     1      32.637 -30.216 -43.295  1.00  0.00     0.015 A 
HETATM   22  C9  UNL     1      32.488 -31.495 -43.850  1.00  0.00     0.051 A 
HETATM   23  C10 UNL     1      33.229 -31.969 -44.899  1.00  0.00     0.103 A 
HETATM   24  C11 UNL     1      34.169 -31.096 -45.408  1.00  0.00     0.039 A 
HETATM   25  C12 UNL     1      34.363 -29.848 -44.918  1.00  0.00     0.040 A 
HETATM   26  C13 UNL     1      33.585 -29.375 -43.830  1.00  0.00     0.077 A 
BRANCH  23  27
HETATM   27  N8  UNL     1      33.067 -33.266 -45.450  1.00  0.00    -0.116 N 
HETATM   28  O1  UNL     1      33.881 -33.684 -46.278  1.00  0.00    -0.532 OA
HETATM   29  O2  UNL     1      32.029 -34.095 -45.100  1.00  0.00    -0.532 OA
ENDBRANCH  23  27
BRANCH  26  30
HETATM   30  O3  UNL     1      33.843 -28.122 -43.406  1.00  0.00    -0.360 OA
ATOM     31  H3  UNL     1      33.868 -27.844 -42.498  1.00  0.00     0.217 HD
ENDBRANCH  26  30
ENDBRANCH  19  21
ENDBRANCH  10  18
BRANCH  14  32
HETATM   32  C15 UNL     1      31.156 -31.091 -37.562  1.00  0.00     0.049 A 
HETATM   33  C16 UNL     1      30.096 -31.974 -37.638  1.00  0.00     0.031 A 
HETATM   34  C17 UNL     1      30.343 -33.326 -37.532  1.00  0.00     0.028 A 
HETATM   35  C18 UNL     1      31.603 -33.857 -37.351  1.00  0.00     0.080 A 
HETATM   36  C19 UNL     1      32.639 -32.942 -37.279  1.00  0.00     0.028 A 
HETATM   37  C20 UNL     1      32.448 -31.602 -37.378  1.00  0.00     0.031 A 
BRANCH  35  38
HETATM   38  S1  UNL     1      31.943 -35.553 -37.213  1.00  0.00     0.137 S 
HETATM   39  O4  UNL     1      31.683 -35.967 -35.772  1.00  0.00    -0.591 OA
HETATM   40  O5  UNL     1      33.389 -35.872 -37.483  1.00  0.00    -0.591 OA
HETATM   41  O6  UNL     1      30.927 -36.492 -38.176  1.00  0.00    -0.591 OA
ENDBRANCH  35  38
ENDBRANCH  14  32
BRANCH   1  42
HETATM   42  N3  UNL     1      30.121 -23.205 -39.967  1.00  0.00    -0.164 N 
HETATM   43  C1  UNL     1      30.971 -22.643 -38.984  1.00  0.00     0.200 C 
HETATM   44  N1  UNL     1      30.506 -22.216 -37.843  1.00  0.00    -0.373 N 
HETATM   45  N2  UNL     1      32.360 -22.542 -39.250  1.00  0.00    -0.063 NA
ATOM     46  H12 UNL     1      31.118 -21.810 -37.134  1.00  0.00     0.158 HD
ATOM     47  H11 UNL     1      29.507 -22.289 -37.651  1.00  0.00     0.158 HD
ATOM     48  H3  UNL     1      29.497 -22.584 -40.482  1.00  0.00     0.187 HD
ENDBRANCH   1  42
TORSDOF 7
ENDMDL
MODEL 3
REMARK VINA RESULT: -8.002714720      4.628      9.066
REMARK  7 active torsions:
REMARK  status: ('A' for Active; 'I' for Inactive)
REMARK       I    between atoms: C1_4  and  N3_6 
REMARK    1  A    between atoms: N3_6  and  C2_8 
REMARK    2  A    between atoms: C6_17  and  N7_18 
REMARK    3  A    between atoms: C7_20  and  C8_21 
REMARK    4  A    between atoms: C10_23  and  N8_24 
REMARK    5  A    between atoms: C13_29  and  O3_30 
REMARK    6  A    between atoms: N10_35  and  C15_37 
REMARK    7  A    between atoms: C18_40  and  S1_41 
ROOT
HETATM    1  C2  UNL     1      29.725 -33.142 -37.721  1.00  0.00     0.687 A 
HETATM    2  N4  UNL     1      30.786 -32.990 -38.538  1.00  0.00    -0.175 N 
ATOM      3  H4  UNL     1      31.410 -33.780 -38.705  1.00  0.00     0.186 HD
HETATM    4  C3  UNL     1      31.031 -31.813 -39.137  1.00  0.00     0.150 A 
HETATM    5  C4  UNL     1      30.204 -30.726 -38.932  1.00  0.00     0.071 A 
HETATM    6  C5  UNL     1      29.130 -30.918 -38.091  1.00  0.00     0.145 A 
HETATM    7  N5  UNL     1      28.192 -29.896 -37.783  1.00  0.00    -0.081 NA
HETATM    8  N6  UNL     1      28.904 -32.127 -37.496  1.00  0.00    -0.178 N 
ATOM      9  H6  UNL     1      28.103 -32.248 -36.877  1.00  0.00     0.185 HD
HETATM   10  C6  UNL     1      30.424 -29.421 -39.567  1.00  0.00     0.240 A 
HETATM   11  N9  UNL     1      31.610 -29.390 -40.398  1.00  0.00    -0.200 N 
ATOM     12  H9  UNL     1      31.837 -28.505 -40.850  1.00  0.00     0.180 HD
HETATM   13  C14 UNL     1      32.478 -30.473 -40.637  1.00  0.00     0.682 A 
HETATM   14  N10 UNL     1      33.516 -30.472 -41.382  1.00  0.00    -0.192 N 
ATOM     15  H10 UNL     1      34.021 -31.357 -41.433  1.00  0.00     0.184 HD
HETATM   16  N11 UNL     1      32.172 -31.722 -39.980  1.00  0.00    -0.175 N 
ATOM     17  H11 UNL     1      32.772 -32.535 -40.121  1.00  0.00     0.186 HD
ENDROOT
BRANCH  10  18
HETATM   18  N7  UNL     1      30.522 -28.329 -38.651  1.00  0.00    -0.373 N 
HETATM   19  C7  UNL     1      31.554 -27.716 -38.302  1.00  0.00     0.099 C 
ATOM     20  H7  UNL     1      29.648 -28.013 -38.233  1.00  0.00     0.161 HD
BRANCH  19  21
HETATM   21  C8  UNL     1      31.667 -26.608 -37.376  1.00  0.00     0.015 A 
HETATM   22  C9  UNL     1      32.903 -26.343 -36.770  1.00  0.00     0.051 A 
HETATM   23  C10 UNL     1      33.121 -25.323 -35.882  1.00  0.00     0.103 A 
HETATM   24  C11 UNL     1      32.024 -24.535 -35.599  1.00  0.00     0.039 A 
HETATM   25  C12 UNL     1      30.803 -24.737 -36.150  1.00  0.00     0.040 A 
HETATM   26  C13 UNL     1      30.598 -25.799 -37.068  1.00  0.00     0.077 A 
BRANCH  23  27
HETATM   27  N8  UNL     1      34.378 -25.067 -35.277  1.00  0.00    -0.116 N 
HETATM   28  O1  UNL     1      35.415 -25.284 -35.908  1.00  0.00    -0.532 OA
HETATM   29  O2  UNL     1      34.498 -24.581 -33.997  1.00  0.00    -0.532 OA
ENDBRANCH  23  27
BRANCH  26  30
HETATM   30  O3  UNL     1      29.353 -25.929 -37.568  1.00  0.00    -0.360 OA
ATOM     31  H3  UNL     1      28.814 -26.709 -37.505  1.00  0.00     0.217 HD
ENDBRANCH  26  30
ENDBRANCH  19  21
ENDBRANCH  10  18
BRANCH  14  32
HETATM   32  C15 UNL     1      34.054 -29.429 -42.139  1.00  0.00     0.049 A 
HETATM   33  C16 UNL     1      34.972 -28.499 -41.690  1.00  0.00     0.031 A 
HETATM   34  C17 UNL     1      35.418 -27.526 -42.557  1.00  0.00     0.028 A 
HETATM   35  C18 UNL     1      34.995 -27.423 -43.866  1.00  0.00     0.080 A 
HETATM   36  C19 UNL     1      34.075 -28.372 -44.280  1.00  0.00     0.028 A 
HETATM   37  C20 UNL     1      33.606 -29.349 -43.464  1.00  0.00     0.031 A 
BRANCH  35  38
HETATM   38  S1  UNL     1      35.538 -26.209 -44.981  1.00  0.00     0.137 S 
HETATM   39  O4  UNL     1      36.344 -26.900 -46.071  1.00  0.00    -0.591 OA
HETATM   40  O5  UNL     1      36.471 -25.218 -44.339  1.00  0.00    -0.591 OA
HETATM   41  O6  UNL     1      34.258 -25.425 -45.749  1.00  0.00    -0.591 OA
ENDBRANCH  35  38
ENDBRANCH  14  32
BRANCH   1  42
HETATM   42  N3  UNL     1      29.524 -34.302 -37.161  1.00  0.00    -0.164 N 
HETATM   43  C1  UNL     1      30.485 -35.341 -37.169  1.00  0.00     0.200 C 
HETATM   44  N1  UNL     1      30.335 -36.406 -37.908  1.00  0.00    -0.373 N 
HETATM   45  N2  UNL     1      31.638 -35.220 -36.351  1.00  0.00    -0.063 NA
ATOM     46  H12 UNL     1      31.028 -37.155 -37.913  1.00  0.00     0.158 HD
ATOM     47  H11 UNL     1      29.507 -36.493 -38.496  1.00  0.00     0.158 HD
ATOM     48  H3  UNL     1      28.632 -34.470 -36.696  1.00  0.00     0.187 HD
ENDBRANCH   1  42
TORSDOF 7
ENDMDL
MODEL 4
REMARK VINA RESULT: -7.980706053      1.519      2.441
REMARK  7 active torsions:
REMARK  status: ('A' for Active; 'I' for Inactive)
REMARK       I    between atoms: C1_4  and  N3_6 
REMARK    1  A    between atoms: N3_6  and  C2_8 
REMARK    2  A    between atoms: C6_17  and  N7_18 
REMARK    3  A    between atoms: C7_20  and  C8_21 
REMARK    4  A    between atoms: C10_23  and  N8_24 
REMARK    5  A    between atoms: C13_29  and  O3_30 
REMARK    6  A    between atoms: N10_35  and  C15_37 
REMARK    7  A    between atoms: C18_40  and  S1_41 
ROOT
HETATM    1  C2  UNL     1      29.818 -24.868 -40.098  1.00  0.00     0.687 A 
HETATM    2  N4  UNL     1      30.128 -25.742 -39.120  1.00  0.00    -0.175 N 
ATOM      3  H4  UNL     1      30.174 -25.421 -38.153  1.00  0.00     0.186 HD
HETATM    4  C3  UNL     1      30.376 -27.032 -39.404  1.00  0.00     0.150 A 
HETATM    5  C4  UNL     1      30.321 -27.497 -40.702  1.00  0.00     0.071 A 
HETATM    6  C5  UNL     1      30.002 -26.576 -41.674  1.00  0.00     0.145 A 
HETATM    7  N5  UNL     1      29.907 -26.904 -43.054  1.00  0.00    -0.081 NA
HETATM    8  N6  UNL     1      29.754 -25.270 -41.359  1.00  0.00    -0.178 N 
ATOM      9  H6  UNL     1      29.519 -24.604 -42.094  1.00  0.00     0.185 HD
HETATM   10  C6  UNL     1      30.576 -28.898 -41.062  1.00  0.00     0.240 A 
HETATM   11  N9  UNL     1      30.921 -29.721 -39.921  1.00  0.00    -0.200 N 
ATOM     12  H9  UNL     1      31.136 -30.700 -40.103  1.00  0.00     0.180 HD
HETATM   13  C14 UNL     1      30.986 -29.289 -38.582  1.00  0.00     0.682 A 
HETATM   14  N10 UNL     1      31.265 -30.003 -37.561  1.00  0.00    -0.192 N 
ATOM     15  H10 UNL     1      31.263 -29.511 -36.667  1.00  0.00     0.184 HD
HETATM   16  N11 UNL     1      30.703 -27.897 -38.323  1.00  0.00    -0.175 N 
ATOM     17  H11 UNL     1      30.738 -27.536 -37.370  1.00  0.00     0.186 HD
ENDROOT
BRANCH  10  18
HETATM   18  N7  UNL     1      31.605 -29.076 -42.037  1.00  0.00    -0.373 N 
HETATM   19  C7  UNL     1      31.794 -30.067 -42.775  1.00  0.00     0.099 C 
ATOM     20  H7  UNL     1      32.263 -28.304 -42.144  1.00  0.00     0.161 HD
BRANCH  19  21
HETATM   21  C8  UNL     1      32.832 -30.260 -43.766  1.00  0.00     0.015 A 
HETATM   22  C9  UNL     1      32.670 -31.251 -44.746  1.00  0.00     0.051 A 
HETATM   23  C10 UNL     1      33.586 -31.515 -45.729  1.00  0.00     0.103 A 
HETATM   24  C11 UNL     1      34.722 -30.733 -45.713  1.00  0.00     0.039 A 
HETATM   25  C12 UNL     1      34.939 -29.760 -44.795  1.00  0.00     0.040 A 
HETATM   26  C13 UNL     1      33.978 -29.501 -43.784  1.00  0.00     0.077 A 
BRANCH  23  27
HETATM   27  N8  UNL     1      33.408 -32.521 -46.714  1.00  0.00    -0.116 N 
HETATM   28  O1  UNL     1      34.230 -33.437 -46.805  1.00  0.00    -0.532 OA
HETATM   29  O2  UNL     1      32.347 -32.524 -47.587  1.00  0.00    -0.532 OA
ENDBRANCH  23  27
BRANCH  26  30
HETATM   30  O3  UNL     1      34.274 -28.517 -42.912  1.00  0.00    -0.360 OA
ATOM     31  H3  UNL     1      34.959 -28.553 -42.255  1.00  0.00     0.217 HD
ENDBRANCH  26  30
ENDBRANCH  19  21
ENDBRANCH  10  18
BRANCH  14  32
HETATM   32  C15 UNL     1      31.575 -31.363 -37.497  1.00  0.00     0.049 A 
HETATM   33  C16 UNL     1      32.842 -31.895 -37.360  1.00  0.00     0.031 A 
HETATM   34  C17 UNL     1      32.991 -33.264 -37.306  1.00  0.00     0.028 A 
HETATM   35  C18 UNL     1      31.935 -34.147 -37.383  1.00  0.00     0.080 A 
HETATM   36  C19 UNL     1      30.680 -33.578 -37.520  1.00  0.00     0.028 A 
HETATM   37  C20 UNL     1      30.482 -32.236 -37.578  1.00  0.00     0.031 A 
BRANCH  35  38
HETATM   38  S1  UNL     1      32.092 -35.874 -37.319  1.00  0.00     0.137 S 
HETATM   39  O4  UNL     1      31.494 -36.351 -36.003  1.00  0.00    -0.591 OA
HETATM   40  O5  UNL     1      33.529 -36.319 -37.309  1.00  0.00    -0.591 OA
HETATM   41  O6  UNL     1      31.230 -36.643 -38.547  1.00  0.00    -0.591 OA
ENDBRANCH  35  38
ENDBRANCH  14  32
BRANCH   1  42
HETATM   42  N3  UNL     1      29.585 -23.625 -39.779  1.00  0.00    -0.164 N 
HETATM   43  C1  UNL     1      30.467 -22.850 -38.989  1.00  0.00     0.200 C 
HETATM   44  N1  UNL     1      30.182 -22.536 -37.755  1.00  0.00    -0.373 N 
HETATM   45  N2  UNL     1      31.689 -22.406 -39.555  1.00  0.00    -0.063 NA
ATOM     46  H12 UNL     1      30.818 -21.977 -37.185  1.00  0.00     0.158 HD
ATOM     47  H11 UNL     1      29.303 -22.855 -37.348  1.00  0.00     0.158 HD
ATOM     48  H3  UNL     1      28.725 -23.191 -40.115  1.00  0.00     0.187 HD
ENDBRANCH   1  42
TORSDOF 7
ENDMDL
MODEL 5
REMARK VINA RESULT: -7.871876354      5.250      7.476
REMARK  7 active torsions:
REMARK  status: ('A' for Active; 'I' for Inactive)
REMARK       I    between atoms: C1_4  and  N3_6 
REMARK    1  A    between atoms: N3_6  and  C2_8 
REMARK    2  A    between atoms: C6_17  and  N7_18 
REMARK    3  A    between atoms: C7_20  and  C8_21 
REMARK    4  A    between atoms: C10_23  and  N8_24 
REMARK    5  A    between atoms: C13_29  and  O3_30 
REMARK    6  A    between atoms: N10_35  and  C15_37 
REMARK    7  A    between atoms: C18_40  and  S1_41 
ROOT
HETATM    1  C2  UNL     1      31.104 -23.245 -40.475  1.00  0.00     0.687 A 
HETATM    2  N4  UNL     1      32.287 -23.369 -39.840  1.00  0.00    -0.175 N 
ATOM      3  H4  UNL     1      33.115 -22.915 -40.225  1.00  0.00     0.186 HD
HETATM    4  C3  UNL     1      32.388 -24.084 -38.707  1.00  0.00     0.150 A 
HETATM    5  C4  UNL     1      31.285 -24.709 -38.161  1.00  0.00     0.071 A 
HETATM    6  C5  UNL     1      30.094 -24.560 -38.837  1.00  0.00     0.145 A 
HETATM    7  N5  UNL     1      28.874 -25.143 -38.399  1.00  0.00    -0.081 NA
HETATM    8  N6  UNL     1      30.020 -23.828 -39.987  1.00  0.00    -0.178 N 
ATOM      9  H6  UNL     1      29.127 -23.729 -40.471  1.00  0.00     0.185 HD
HETATM   10  C6  UNL     1      31.341 -25.495 -36.921  1.00  0.00     0.240 A 
HETATM   11  N9  UNL     1      32.674 -25.567 -36.359  1.00  0.00    -0.200 N 
ATOM     12  H9  UNL     1      32.790 -26.119 -35.509  1.00  0.00     0.180 HD
HETATM   13  C14 UNL     1      33.824 -24.943 -36.879  1.00  0.00     0.682 A 
HETATM   14  N10 UNL     1      35.002 -24.977 -36.387  1.00  0.00    -0.192 N 
ATOM     15  H10 UNL     1      35.711 -24.460 -36.908  1.00  0.00     0.184 HD
HETATM   16  N11 UNL     1      33.667 -24.179 -38.094  1.00  0.00    -0.175 N 
ATOM     17  H11 UNL     1      34.472 -23.709 -38.511  1.00  0.00     0.186 HD
ENDROOT
BRANCH  10  18
HETATM   18  N7  UNL     1      30.865 -26.835 -37.052  1.00  0.00    -0.373 N 
HETATM   19  C7  UNL     1      31.438 -27.799 -37.603  1.00  0.00     0.099 C 
ATOM     20  H7  UNL     1      29.949 -27.029 -36.647  1.00  0.00     0.161 HD
BRANCH  19  21
HETATM   21  C8  UNL     1      30.968 -29.161 -37.742  1.00  0.00     0.015 A 
HETATM   22  C9  UNL     1      29.622 -29.394 -38.063  1.00  0.00     0.051 A 
HETATM   23  C10 UNL     1      29.074 -30.639 -38.219  1.00  0.00     0.103 A 
HETATM   24  C11 UNL     1      29.939 -31.698 -38.039  1.00  0.00     0.039 A 
HETATM   25  C12 UNL     1      31.249 -31.542 -37.728  1.00  0.00     0.040 A 
HETATM   26  C13 UNL     1      31.798 -30.244 -37.571  1.00  0.00     0.077 A 
BRANCH  23  27
HETATM   27  N8  UNL     1      27.711 -30.859 -38.544  1.00  0.00    -0.116 N 
HETATM   28  O1  UNL     1      26.856 -30.050 -38.171  1.00  0.00    -0.532 OA
HETATM   29  O2  UNL     1      27.288 -31.949 -39.266  1.00  0.00    -0.532 OA
ENDBRANCH  23  27
BRANCH  26  30
HETATM   30  O3  UNL     1      33.109 -30.179 -37.262  1.00  0.00    -0.360 OA
ATOM     31  H3  UNL     1      33.701 -30.921 -37.225  1.00  0.00     0.217 HD
ENDBRANCH  26  30
ENDBRANCH  19  21
ENDBRANCH  10  18
BRANCH  14  32
HETATM   32  C15 UNL     1      35.455 -25.622 -35.234  1.00  0.00     0.049 A 
HETATM   33  C16 UNL     1      35.179 -25.238 -33.935  1.00  0.00     0.031 A 
HETATM   34  C17 UNL     1      35.694 -25.980 -32.895  1.00  0.00     0.028 A 
HETATM   35  C18 UNL     1      36.480 -27.100 -33.075  1.00  0.00     0.080 A 
HETATM   36  C19 UNL     1      36.734 -27.453 -34.389  1.00  0.00     0.028 A 
HETATM   37  C20 UNL     1      36.251 -26.755 -35.448  1.00  0.00     0.031 A 
BRANCH  35  38
HETATM   38  S1  UNL     1      37.142 -28.053 -31.785  1.00  0.00     0.137 S 
HETATM   39  O4  UNL     1      38.659 -28.006 -31.899  1.00  0.00    -0.591 OA
HETATM   40  O5  UNL     1      36.761 -29.505 -31.891  1.00  0.00    -0.591 OA
HETATM   41  O6  UNL     1      36.752 -27.435 -30.266  1.00  0.00    -0.591 OA
ENDBRANCH  35  38
ENDBRANCH  14  32
BRANCH   1  42
HETATM   42  N3  UNL     1      31.051 -22.542 -41.572  1.00  0.00    -0.164 N 
HETATM   43  C1  UNL     1      31.305 -23.088 -42.853  1.00  0.00     0.200 C 
HETATM   44  N1  UNL     1      32.401 -22.815 -43.507  1.00  0.00    -0.373 N 
HETATM   45  N2  UNL     1      30.344 -23.951 -43.437  1.00  0.00    -0.063 NA
ATOM     46  H12 UNL     1      32.584 -23.208 -44.431  1.00  0.00     0.158 HD
ATOM     47  H11 UNL     1      33.092 -22.195 -43.087  1.00  0.00     0.158 HD
ATOM     48  H3  UNL     1      30.816 -21.552 -41.504  1.00  0.00     0.187 HD
ENDBRANCH   1  42
TORSDOF 7
ENDMDL
