MODEL 1
REMARK VINA RESULT: -7.507021961      0.000      0.000
REMARK  9 active torsions:
REMARK  status: ('A' for Active; 'I' for Inactive)
REMARK    1  A    between atoms: O1_1  and  C1_3 
REMARK    2  A    between atoms: C3_5  and  C4_6 
REMARK    3  A    between atoms: C4_6  and  N1_7 
REMARK    4  A    between atoms: N1_7  and  C5_10 
REMARK    5  A    between atoms: C5_10  and  C6_11 
REMARK    6  A    between atoms: C9_14  and  C10_15 
REMARK    7  A    between atoms: C10_15  and  N2_16 
REMARK    8  A    between atoms: C28_49  and  O2_50 
REMARK    9  A    between atoms: C29_52  and  O3_53 
ROOT
HETATM    1  C6  UNL     1      34.947 -29.881 -40.850  1.00  0.00     0.051 A 
HETATM    2  C7  UNL     1      33.589 -29.759 -41.121  1.00  0.00     0.030 A 
HETATM    3  C8  UNL     1      33.225 -28.952 -42.164  1.00  0.00     0.030 A 
HETATM    4  C9  UNL     1      34.145 -28.271 -42.934  1.00  0.00     0.054 A 
HETATM    5  N7  UNL     1      35.452 -28.447 -42.606  1.00  0.00    -0.303 N 
ATOM      6  H7  UNL     1      36.171 -27.967 -43.147  1.00  0.00     0.186 HD
HETATM    7  N8  UNL     1      35.812 -29.226 -41.601  1.00  0.00    -0.303 N 
ATOM      8  H8  UNL     1      36.806 -29.326 -41.397  1.00  0.00     0.186 HD
ENDROOT
BRANCH   4   9
HETATM    9  C10 UNL     1      33.660 -27.385 -43.990  1.00  0.00     0.330 C 
BRANCH   9  10
HETATM   10  N2  UNL     1      33.136 -26.143 -43.493  1.00  0.00     0.097 N 
HETATM   11  C11 UNL     1      32.173 -25.541 -44.350  1.00  0.00     0.292 C 
HETATM   12  C12 UNL     1      30.891 -25.142 -43.659  1.00  0.00     0.144 C 
HETATM   13  N3  UNL     1      30.029 -26.231 -43.368  1.00  0.00    -0.419 N 
HETATM   14  C13 UNL     1      30.203 -26.897 -42.134  1.00  0.00     0.115 C 
ATOM     15  H3  UNL     1      29.309 -26.524 -44.028  1.00  0.00     0.153 HD
HETATM   16  C14 UNL     1      30.026 -26.111 -40.889  1.00  0.00     0.046 C 
HETATM   17  C15 UNL     1      28.837 -25.230 -40.810  1.00  0.00     0.234 C 
HETATM   18  N4  UNL     1      29.226 -24.050 -40.012  1.00  0.00    -0.075 N 
HETATM   19  C16 UNL     1      29.610 -24.430 -38.667  1.00  0.00     0.233 C 
ATOM     20  H42 UNL     1      29.959 -23.511 -40.473  1.00  0.00     0.277 HD
ATOM     21  H41 UNL     1      28.490 -23.343 -40.006  1.00  0.00     0.277 HD
HETATM   22  C17 UNL     1      30.579 -23.445 -38.046  1.00  0.00     0.055 C 
HETATM   23  C18 UNL     1      31.992 -23.997 -37.963  1.00  0.00     0.234 C 
HETATM   24  N5  UNL     1      33.002 -22.986 -37.943  1.00  0.00    -0.073 N 
HETATM   25  C19 UNL     1      34.195 -23.354 -38.731  1.00  0.00     0.259 C 
ATOM     26  H52 UNL     1      32.627 -22.088 -38.247  1.00  0.00     0.277 HD
ATOM     27  H51 UNL     1      33.258 -22.744 -36.985  1.00  0.00     0.277 HD
HETATM   28  C20 UNL     1      33.929 -23.057 -40.161  1.00  0.00     0.259 C 
HETATM   29  N6  UNL     1      34.718 -23.869 -41.100  1.00  0.00    -0.072 N 
HETATM   30  C21 UNL     1      33.748 -24.388 -42.033  1.00  0.00     0.262 C 
ATOM     31  H62 UNL     1      35.489 -23.366 -41.539  1.00  0.00     0.277 HD
ATOM     32  H61 UNL     1      35.289 -24.585 -40.652  1.00  0.00     0.277 HD
HETATM   33  C22 UNL     1      34.249 -25.237 -43.133  1.00  0.00     0.300 C 
ENDBRANCH   9  10
ENDBRANCH   4   9
BRANCH   1  34
HETATM   34  C5  UNL     1      35.421 -30.617 -39.665  1.00  0.00     0.291 C 
BRANCH  34  35
HETATM   35  N1  UNL     1      35.534 -29.660 -38.543  1.00  0.00    -0.066 N 
ATOM     36  H12 UNL     1      35.216 -28.721 -38.784  1.00  0.00     0.277 HD
ATOM     37  H11 UNL     1      36.500 -29.416 -38.320  1.00  0.00     0.277 HD
BRANCH  35  38
HETATM   38  C4  UNL     1      34.811 -30.239 -37.413  1.00  0.00     0.271 C 
BRANCH  38  39
HETATM   39  C3  UNL     1      33.359 -30.094 -37.592  1.00  0.00    -0.029 A 
HETATM   40  C2  UNL     1      32.791 -28.820 -37.656  1.00  0.00     0.045 A 
HETATM   41  C1  UNL     1      31.405 -28.647 -37.742  1.00  0.00     0.073 A 
HETATM   42  C25 UNL     1      30.611 -29.782 -37.767  1.00  0.00    -0.016 A 
HETATM   43  C24 UNL     1      31.129 -31.046 -37.713  1.00  0.00    -0.018 A 
HETATM   44  C26 UNL     1      29.117 -29.634 -37.806  1.00  0.00     0.044 C 
HETATM   45  C23 UNL     1      32.494 -31.164 -37.626  1.00  0.00     0.019 A 
HETATM   46  C29 UNL     1      30.322 -32.300 -37.742  1.00  0.00     0.180 C 
HETATM   47  C28 UNL     1      28.852 -32.038 -37.842  1.00  0.00     0.151 C 
HETATM   48  C27 UNL     1      28.551 -30.827 -36.996  1.00  0.00     0.039 C 
BRANCH  41  49
HETATM   49  O1  UNL     1      30.895 -27.362 -37.802  1.00  0.00    -0.360 OA
ATOM     50  H1  UNL     1      30.081 -27.170 -37.351  1.00  0.00     0.217 HD
ENDBRANCH  41  49
BRANCH  46  51
HETATM   51  O3  UNL     1      30.817 -33.073 -38.799  1.00  0.00    -0.388 OA
ATOM     52  H3  UNL     1      31.680 -32.732 -39.005  1.00  0.00     0.210 HD
ENDBRANCH  46  51
BRANCH  47  53
HETATM   53  O2  UNL     1      28.499 -31.885 -39.169  1.00  0.00    -0.393 OA
ATOM     54  H2  UNL     1      28.099 -32.659 -39.548  1.00  0.00     0.210 HD
ENDBRANCH  47  53
ENDBRANCH  38  39
ENDBRANCH  35  38
ENDBRANCH  34  35
ENDBRANCH   1  34
TORSDOF 9
ENDMDL
MODEL 2
REMARK VINA RESULT: -7.469850229      2.726      5.014
REMARK  9 active torsions:
REMARK  status: ('A' for Active; 'I' for Inactive)
REMARK    1  A    between atoms: O1_1  and  C1_3 
REMARK    2  A    between atoms: C3_5  and  C4_6 
REMARK    3  A    between atoms: C4_6  and  N1_7 
REMARK    4  A    between atoms: N1_7  and  C5_10 
REMARK    5  A    between atoms: C5_10  and  C6_11 
REMARK    6  A    between atoms: C9_14  and  C10_15 
REMARK    7  A    between atoms: C10_15  and  N2_16 
REMARK    8  A    between atoms: C28_49  and  O2_50 
REMARK    9  A    between atoms: C29_52  and  O3_53 
ROOT
HETATM    1  C6  UNL     1      28.897 -29.511 -38.891  1.00  0.00     0.051 A 
HETATM    2  C7  UNL     1      29.498 -29.962 -40.061  1.00  0.00     0.030 A 
HETATM    3  C8  UNL     1      30.075 -29.024 -40.874  1.00  0.00     0.030 A 
HETATM    4  C9  UNL     1      30.075 -27.678 -40.574  1.00  0.00     0.054 A 
HETATM    5  N7  UNL     1      29.470 -27.320 -39.411  1.00  0.00    -0.303 N 
ATOM      6  H7  UNL     1      29.445 -26.337 -39.143  1.00  0.00     0.186 HD
HETATM    7  N8  UNL     1      28.912 -28.219 -38.619  1.00  0.00    -0.303 N 
ATOM      8  H8  UNL     1      28.472 -27.900 -37.756  1.00  0.00     0.186 HD
ENDROOT
BRANCH   4   9
HETATM    9  C10 UNL     1      30.664 -26.744 -41.531  1.00  0.00     0.330 C 
BRANCH   9  10
HETATM   10  N2  UNL     1      31.637 -25.865 -40.942  1.00  0.00     0.097 N 
HETATM   11  C11 UNL     1      31.715 -24.591 -41.570  1.00  0.00     0.292 C 
HETATM   12  C12 UNL     1      31.636 -23.423 -40.616  1.00  0.00     0.144 C 
HETATM   13  N3  UNL     1      30.328 -23.162 -40.131  1.00  0.00    -0.419 N 
HETATM   14  C13 UNL     1      29.913 -23.835 -38.959  1.00  0.00     0.115 C 
ATOM     15  H3  UNL     1      29.707 -22.511 -40.611  1.00  0.00     0.153 HD
HETATM   16  C14 UNL     1      30.684 -23.601 -37.713  1.00  0.00     0.046 C 
HETATM   17  C15 UNL     1      31.019 -22.196 -37.382  1.00  0.00     0.234 C 
HETATM   18  N4  UNL     1      32.329 -22.214 -36.701  1.00  0.00    -0.075 N 
HETATM   19  C16 UNL     1      32.272 -22.979 -35.471  1.00  0.00     0.233 C 
ATOM     20  H42 UNL     1      33.068 -22.553 -37.319  1.00  0.00     0.277 HD
ATOM     21  H41 UNL     1      32.681 -21.270 -36.540  1.00  0.00     0.277 HD
HETATM   22  C17 UNL     1      33.617 -23.559 -35.090  1.00  0.00     0.055 C 
HETATM   23  C18 UNL     1      33.687 -25.060 -35.317  1.00  0.00     0.234 C 
HETATM   24  N5  UNL     1      35.014 -25.546 -35.531  1.00  0.00    -0.073 N 
HETATM   25  C19 UNL     1      35.076 -26.603 -36.560  1.00  0.00     0.259 C 
ATOM     26  H52 UNL     1      35.652 -24.782 -35.753  1.00  0.00     0.277 HD
ATOM     27  H51 UNL     1      35.432 -25.864 -34.657  1.00  0.00     0.277 HD
HETATM   28  C20 UNL     1      35.098 -25.961 -37.899  1.00  0.00     0.259 C 
HETATM   29  N6  UNL     1      34.579 -26.810 -38.981  1.00  0.00    -0.072 N 
HETATM   30  C21 UNL     1      33.626 -25.976 -39.671  1.00  0.00     0.262 C 
ATOM     31  H62 UNL     1      35.302 -27.202 -39.585  1.00  0.00     0.277 HD
ATOM     32  H61 UNL     1      34.199 -27.702 -38.664  1.00  0.00     0.277 HD
HETATM   33  C22 UNL     1      32.942 -26.553 -40.846  1.00  0.00     0.300 C 
ENDBRANCH   9  10
ENDBRANCH   4   9
BRANCH   1  34
HETATM   34  C5  UNL     1      28.134 -30.430 -38.028  1.00  0.00     0.291 C 
BRANCH  34  35
HETATM   35  N1  UNL     1      29.067 -31.019 -37.044  1.00  0.00    -0.066 N 
ATOM     36  H12 UNL     1      28.657 -31.121 -36.116  1.00  0.00     0.277 HD
ATOM     37  H11 UNL     1      29.825 -30.388 -36.782  1.00  0.00     0.277 HD
BRANCH  35  38
HETATM   38  C4  UNL     1      29.539 -32.283 -37.607  1.00  0.00     0.271 C 
BRANCH  38  39
HETATM   39  C3  UNL     1      31.003 -32.383 -37.509  1.00  0.00    -0.029 A 
HETATM   40  C2  UNL     1      31.604 -33.630 -37.327  1.00  0.00     0.045 A 
HETATM   41  C1  UNL     1      32.986 -33.750 -37.147  1.00  0.00     0.073 A 
HETATM   42  C25 UNL     1      33.744 -32.590 -37.160  1.00  0.00    -0.016 A 
HETATM   43  C24 UNL     1      33.194 -31.351 -37.341  1.00  0.00    -0.018 A 
HETATM   44  C26 UNL     1      35.224 -32.675 -36.917  1.00  0.00     0.044 C 
HETATM   45  C23 UNL     1      31.833 -31.285 -37.511  1.00  0.00     0.019 A 
HETATM   46  C29 UNL     1      33.963 -30.073 -37.369  1.00  0.00     0.180 C 
HETATM   47  C28 UNL     1      35.433 -30.279 -37.177  1.00  0.00     0.151 C 
HETATM   48  C27 UNL     1      35.605 -31.378 -36.159  1.00  0.00     0.039 C 
BRANCH  41  49
HETATM   49  O1  UNL     1      33.530 -35.010 -36.971  1.00  0.00    -0.360 OA
ATOM     50  H1  UNL     1      34.313 -35.101 -36.441  1.00  0.00     0.217 HD
ENDBRANCH  41  49
BRANCH  46  51
HETATM   51  O3  UNL     1      33.648 -29.441 -38.577  1.00  0.00    -0.388 OA
ATOM     52  H3  UNL     1      33.762 -28.509 -38.434  1.00  0.00     0.210 HD
ENDBRANCH  46  51
BRANCH  47  53
HETATM   53  O2  UNL     1      36.023 -30.558 -38.395  1.00  0.00    -0.393 OA
ATOM     54  H2  UNL     1      36.714 -29.950 -38.630  1.00  0.00     0.210 HD
ENDBRANCH  47  53
ENDBRANCH  38  39
ENDBRANCH  35  38
ENDBRANCH  34  35
ENDBRANCH   1  34
TORSDOF 9
ENDMDL
MODEL 3
REMARK VINA RESULT: -7.465505391      2.149      3.187
REMARK  9 active torsions:
REMARK  status: ('A' for Active; 'I' for Inactive)
REMARK    1  A    between atoms: O1_1  and  C1_3 
REMARK    2  A    between atoms: C3_5  and  C4_6 
REMARK    3  A    between atoms: C4_6  and  N1_7 
REMARK    4  A    between atoms: N1_7  and  C5_10 
REMARK    5  A    between atoms: C5_10  and  C6_11 
REMARK    6  A    between atoms: C9_14  and  C10_15 
REMARK    7  A    between atoms: C10_15  and  N2_16 
REMARK    8  A    between atoms: C28_49  and  O2_50 
REMARK    9  A    between atoms: C29_52  and  O3_53 
ROOT
HETATM    1  C6  UNL     1      36.490 -29.128 -39.011  1.00  0.00     0.051 A 
HETATM    2  C7  UNL     1      36.042 -30.380 -39.415  1.00  0.00     0.030 A 
HETATM    3  C8  UNL     1      35.905 -30.596 -40.759  1.00  0.00     0.030 A 
HETATM    4  C9  UNL     1      36.191 -29.629 -41.701  1.00  0.00     0.054 A 
HETATM    5  N7  UNL     1      36.626 -28.434 -41.223  1.00  0.00    -0.303 N 
ATOM      6  H7  UNL     1      36.853 -27.687 -41.880  1.00  0.00     0.186 HD
HETATM    7  N8  UNL     1      36.763 -28.217 -39.927  1.00  0.00    -0.303 N 
ATOM      8  H8  UNL     1      37.095 -27.303 -39.620  1.00  0.00     0.186 HD
ENDROOT
BRANCH   4   9
HETATM    9  C10 UNL     1      35.959 -29.931 -43.112  1.00  0.00     0.330 C 
BRANCH   9  10
HETATM   10  N2  UNL     1      34.756 -29.338 -43.629  1.00  0.00     0.097 N 
HETATM   11  C11 UNL     1      33.833 -30.280 -44.160  1.00  0.00     0.292 C 
HETATM   12  C12 UNL     1      32.424 -30.133 -43.637  1.00  0.00     0.144 C 
HETATM   13  N3  UNL     1      32.245 -30.623 -42.317  1.00  0.00    -0.419 N 
HETATM   14  C13 UNL     1      32.478 -29.731 -41.246  1.00  0.00     0.115 C 
ATOM     15  H3  UNL     1      31.958 -31.587 -42.147  1.00  0.00     0.153 HD
HETATM   16  C14 UNL     1      31.642 -28.508 -41.164  1.00  0.00     0.046 C 
HETATM   17  C15 UNL     1      30.182 -28.676 -41.358  1.00  0.00     0.234 C 
HETATM   18  N4  UNL     1      29.691 -27.451 -42.022  1.00  0.00    -0.075 N 
HETATM   19  C16 UNL     1      29.918 -26.280 -41.198  1.00  0.00     0.233 C 
ATOM     20  H42 UNL     1      30.098 -27.340 -42.951  1.00  0.00     0.277 HD
ATOM     21  H41 UNL     1      28.710 -27.538 -42.289  1.00  0.00     0.277 HD
HETATM   22  C17 UNL     1      30.043 -25.014 -42.019  1.00  0.00     0.055 C 
HETATM   23  C18 UNL     1      31.474 -24.506 -42.085  1.00  0.00     0.234 C 
HETATM   24  N5  UNL     1      31.749 -23.717 -43.244  1.00  0.00    -0.073 N 
HETATM   25  C19 UNL     1      33.089 -23.975 -43.807  1.00  0.00     0.259 C 
ATOM     26  H52 UNL     1      31.025 -23.842 -43.952  1.00  0.00     0.277 HD
ATOM     27  H51 UNL     1      31.620 -22.724 -43.049  1.00  0.00     0.277 HD
HETATM   28  C20 UNL     1      33.022 -25.192 -44.655  1.00  0.00     0.259 C 
HETATM   29  N6  UNL     1      34.304 -25.898 -44.795  1.00  0.00    -0.072 N 
HETATM   30  C21 UNL     1      33.994 -27.274 -44.492  1.00  0.00     0.262 C 
ATOM     31  H62 UNL     1      34.757 -25.763 -45.699  1.00  0.00     0.277 HD
ATOM     32  H61 UNL     1      35.058 -25.507 -44.230  1.00  0.00     0.277 HD
HETATM   33  C22 UNL     1      35.097 -28.253 -44.574  1.00  0.00     0.300 C 
ENDBRANCH   9  10
ENDBRANCH   4   9
BRANCH   1  34
HETATM   34  C5  UNL     1      36.535 -28.762 -37.584  1.00  0.00     0.291 C 
BRANCH  34  35
HETATM   35  N1  UNL     1      35.211 -29.052 -36.992  1.00  0.00    -0.066 N 
ATOM     36  H12 UNL     1      35.254 -29.250 -35.993  1.00  0.00     0.277 HD
ATOM     37  H11 UNL     1      34.829 -29.951 -37.286  1.00  0.00     0.277 HD
BRANCH  35  38
HETATM   38  C4  UNL     1      34.342 -27.923 -37.318  1.00  0.00     0.271 C 
BRANCH  38  39
HETATM   39  C3  UNL     1      32.957 -28.373 -37.522  1.00  0.00    -0.029 A 
HETATM   40  C2  UNL     1      31.923 -27.437 -37.585  1.00  0.00     0.045 A 
HETATM   41  C1  UNL     1      30.587 -27.836 -37.694  1.00  0.00     0.073 A 
HETATM   42  C25 UNL     1      30.319 -29.195 -37.742  1.00  0.00    -0.016 A 
HETATM   43  C24 UNL     1      31.303 -30.144 -37.689  1.00  0.00    -0.018 A 
HETATM   44  C26 UNL     1      28.893 -29.663 -37.806  1.00  0.00     0.044 C 
HETATM   45  C23 UNL     1      32.598 -29.701 -37.579  1.00  0.00     0.019 A 
HETATM   46  C29 UNL     1      31.072 -31.616 -37.742  1.00  0.00     0.180 C 
HETATM   47  C28 UNL     1      29.622 -31.969 -37.865  1.00  0.00     0.151 C 
HETATM   48  C27 UNL     1      28.847 -30.994 -37.014  1.00  0.00     0.039 C 
BRANCH  41  49
HETATM   49  O1  UNL     1      29.602 -26.867 -37.753  1.00  0.00    -0.360 OA
ATOM     50  H1  UNL     1      29.303 -26.568 -38.603  1.00  0.00     0.217 HD
ENDBRANCH  41  49
BRANCH  46  51
HETATM   51  O3  UNL     1      31.850 -32.107 -38.796  1.00  0.00    -0.388 OA
ATOM     52  H3  UNL     1      31.902 -33.049 -38.681  1.00  0.00     0.210 HD
ENDBRANCH  46  51
BRANCH  47  53
HETATM   53  O2  UNL     1      29.254 -31.951 -39.197  1.00  0.00    -0.393 OA
ATOM     54  H2  UNL     1      28.771 -32.724 -39.467  1.00  0.00     0.210 HD
ENDBRANCH  47  53
ENDBRANCH  38  39
ENDBRANCH  35  38
ENDBRANCH  34  35
ENDBRANCH   1  34
TORSDOF 9
ENDMDL
MODEL 4
REMARK VINA RESULT: -7.465349601      8.453     11.593
REMARK  9 active torsions:
REMARK  status: ('A' for Active; 'I' for Inactive)
REMARK    1  A    between atoms: O1_1  and  C1_3 
REMARK    2  A    between atoms: C3_5  and  C4_6 
REMARK    3  A    between atoms: C4_6  and  N1_7 
REMARK    4  A    between atoms: N1_7  and  C5_10 
REMARK    5  A    between atoms: C5_10  and  C6_11 
REMARK    6  A    between atoms: C9_14  and  C10_15 
REMARK    7  A    between atoms: C10_15  and  N2_16 
REMARK    8  A    between atoms: C28_49  and  O2_50 
REMARK    9  A    between atoms: C29_52  and  O3_53 
ROOT
HETATM    1  C6  UNL     1      31.370 -37.662 -39.780  1.00  0.00     0.051 A 
HETATM    2  C7  UNL     1      31.020 -38.991 -39.986  1.00  0.00     0.030 A 
HETATM    3  C8  UNL     1      30.667 -39.361 -41.256  1.00  0.00     0.030 A 
HETATM    4  C9  UNL     1      30.649 -38.472 -42.311  1.00  0.00     0.054 A 
HETATM    5  N7  UNL     1      31.007 -37.193 -42.026  1.00  0.00    -0.303 N 
ATOM      6  H7  UNL     1      31.011 -36.498 -42.773  1.00  0.00     0.186 HD
HETATM    7  N8  UNL     1      31.350 -36.828 -40.804  1.00  0.00    -0.303 N 
ATOM      8  H8  UNL     1      31.612 -35.856 -40.642  1.00  0.00     0.186 HD
ENDROOT
BRANCH   4   9
HETATM    9  C10 UNL     1      30.202 -38.944 -43.620  1.00  0.00     0.330 C 
BRANCH   9  10
HETATM   10  N2  UNL     1      29.195 -38.107 -44.212  1.00  0.00     0.097 N 
HETATM   11  C11 UNL     1      29.693 -36.866 -44.698  1.00  0.00     0.292 C 
HETATM   12  C12 UNL     1      29.290 -36.550 -46.119  1.00  0.00     0.144 C 
HETATM   13  N3  UNL     1      30.009 -37.283 -47.099  1.00  0.00    -0.419 N 
HETATM   14  C13 UNL     1      29.496 -38.540 -47.490  1.00  0.00     0.115 C 
ATOM     15  H3  UNL     1      30.868 -36.915 -47.507  1.00  0.00     0.153 HD
HETATM   16  C14 UNL     1      28.146 -38.580 -48.102  1.00  0.00     0.046 C 
HETATM   17  C15 UNL     1      27.853 -37.579 -49.155  1.00  0.00     0.234 C 
HETATM   18  N4  UNL     1      26.420 -37.242 -49.043  1.00  0.00    -0.075 N 
HETATM   19  C16 UNL     1      25.587 -38.406 -49.267  1.00  0.00     0.233 C 
ATOM     20  H42 UNL     1      26.209 -36.796 -48.150  1.00  0.00     0.277 HD
ATOM     21  H41 UNL     1      26.166 -36.474 -49.666  1.00  0.00     0.277 HD
HETATM   22  C17 UNL     1      24.248 -38.299 -48.568  1.00  0.00     0.055 C 
HETATM   23  C18 UNL     1      24.153 -39.207 -47.354  1.00  0.00     0.234 C 
HETATM   24  N5  UNL     1      23.219 -38.755 -46.370  1.00  0.00    -0.073 N 
HETATM   25  C19 UNL     1      23.696 -38.965 -44.989  1.00  0.00     0.259 C 
ATOM     26  H52 UNL     1      22.969 -37.778 -46.526  1.00  0.00     0.277 HD
ATOM     27  H51 UNL     1      22.305 -39.185 -46.510  1.00  0.00     0.277 HD
HETATM   28  C20 UNL     1      24.611 -37.852 -44.628  1.00  0.00     0.259 C 
HETATM   29  N6  UNL     1      25.590 -38.193 -43.586  1.00  0.00    -0.072 N 
HETATM   30  C21 UNL     1      26.858 -37.767 -44.126  1.00  0.00     0.262 C 
ATOM     31  H62 UNL     1      25.375 -37.799 -42.669  1.00  0.00     0.277 HD
ATOM     32  H61 UNL     1      25.567 -39.171 -43.298  1.00  0.00     0.277 HD
HETATM   33  C22 UNL     1      28.055 -37.958 -43.281  1.00  0.00     0.300 C 
ENDBRANCH   9  10
ENDBRANCH   4   9
BRANCH   1  34
HETATM   34  C5  UNL     1      31.628 -37.147 -38.424  1.00  0.00     0.291 C 
BRANCH  34  35
HETATM   35  N1  UNL     1      30.558 -36.185 -38.085  1.00  0.00    -0.066 N 
ATOM     36  H12 UNL     1      29.660 -36.632 -37.906  1.00  0.00     0.277 HD
ATOM     37  H11 UNL     1      30.264 -35.615 -38.879  1.00  0.00     0.277 HD
BRANCH  35  38
HETATM   38  C4  UNL     1      31.040 -35.391 -36.956  1.00  0.00     0.271 C 
BRANCH  38  39
HETATM   39  C3  UNL     1      31.043 -33.959 -37.289  1.00  0.00    -0.029 A 
HETATM   40  C2  UNL     1      32.234 -33.233 -37.227  1.00  0.00     0.045 A 
HETATM   41  C1  UNL     1      32.256 -31.853 -37.456  1.00  0.00     0.073 A 
HETATM   42  C25 UNL     1      31.056 -31.226 -37.752  1.00  0.00    -0.016 A 
HETATM   43  C24 UNL     1      29.870 -31.903 -37.829  1.00  0.00    -0.018 A 
HETATM   44  C26 UNL     1      31.033 -29.738 -37.952  1.00  0.00     0.044 C 
HETATM   45  C23 UNL     1      29.900 -33.255 -37.593  1.00  0.00     0.019 A 
HETATM   46  C29 UNL     1      28.553 -31.280 -38.148  1.00  0.00     0.180 C 
HETATM   47  C28 UNL     1      28.654 -29.806 -38.388  1.00  0.00     0.151 C 
HETATM   48  C27 UNL     1      29.663 -29.258 -37.409  1.00  0.00     0.039 C 
BRANCH  41  49
HETATM   49  O1  UNL     1      33.464 -31.182 -37.381  1.00  0.00    -0.360 OA
ATOM     50  H1  UNL     1      34.009 -31.303 -36.612  1.00  0.00     0.217 HD
ENDBRANCH  41  49
BRANCH  46  51
HETATM   51  O3  UNL     1      28.032 -31.981 -39.242  1.00  0.00    -0.388 OA
ATOM     52  H3  UNL     1      28.444 -31.622 -40.018  1.00  0.00     0.210 HD
ENDBRANCH  46  51
BRANCH  47  53
HETATM   53  O2  UNL     1      28.986 -29.573 -39.709  1.00  0.00    -0.393 OA
ATOM     54  H2  UNL     1      28.989 -30.359 -40.243  1.00  0.00     0.210 HD
ENDBRANCH  47  53
ENDBRANCH  38  39
ENDBRANCH  35  38
ENDBRANCH  34  35
ENDBRANCH   1  34
TORSDOF 9
ENDMDL
MODEL 5
REMARK VINA RESULT: -7.322014317      2.431      3.846
REMARK  9 active torsions:
REMARK  status: ('A' for Active; 'I' for Inactive)
REMARK    1  A    between atoms: O1_1  and  C1_3 
REMARK    2  A    between atoms: C3_5  and  C4_6 
REMARK    3  A    between atoms: C4_6  and  N1_7 
REMARK    4  A    between atoms: N1_7  and  C5_10 
REMARK    5  A    between atoms: C5_10  and  C6_11 
REMARK    6  A    between atoms: C9_14  and  C10_15 
REMARK    7  A    between atoms: C10_15  and  N2_16 
REMARK    8  A    between atoms: C28_49  and  O2_50 
REMARK    9  A    between atoms: C29_52  and  O3_53 
ROOT
HETATM    1  C6  UNL     1      32.465 -29.570 -40.792  1.00  0.00     0.051 A 
HETATM    2  C7  UNL     1      31.113 -29.664 -41.101  1.00  0.00     0.030 A 
HETATM    3  C8  UNL     1      30.512 -28.559 -41.641  1.00  0.00     0.030 A 
HETATM    4  C9  UNL     1      31.194 -27.383 -41.879  1.00  0.00     0.054 A 
HETATM    5  N7  UNL     1      32.513 -27.375 -41.551  1.00  0.00    -0.303 N 
ATOM      6  H7  UNL     1      33.061 -26.530 -41.710  1.00  0.00     0.186 HD
HETATM    7  N8  UNL     1      33.101 -28.438 -41.032  1.00  0.00    -0.303 N 
ATOM      8  H8  UNL     1      34.094 -28.382 -40.805  1.00  0.00     0.186 HD
ENDROOT
BRANCH   4   9
HETATM    9  C10 UNL     1      30.456 -26.237 -42.403  1.00  0.00     0.330 C 
BRANCH   9  10
HETATM   10  N2  UNL     1      30.260 -25.195 -41.432  1.00  0.00     0.097 N 
HETATM   11  C11 UNL     1      28.952 -25.169 -40.873  1.00  0.00     0.292 C 
HETATM   12  C12 UNL     1      28.923 -25.131 -39.363  1.00  0.00     0.144 C 
HETATM   13  N3  UNL     1      29.218 -26.376 -38.749  1.00  0.00    -0.419 N 
HETATM   14  C13 UNL     1      30.573 -26.671 -38.474  1.00  0.00     0.115 C 
ATOM     15  H3  UNL     1      28.477 -27.036 -38.514  1.00  0.00     0.153 HD
HETATM   16  C14 UNL     1      31.308 -25.768 -37.555  1.00  0.00     0.046 C 
HETATM   17  C15 UNL     1      30.623 -25.382 -36.299  1.00  0.00     0.234 C 
HETATM   18  N4  UNL     1      31.054 -24.006 -35.978  1.00  0.00    -0.075 N 
HETATM   19  C16 UNL     1      32.486 -23.941 -35.763  1.00  0.00     0.233 C 
ATOM     20  H42 UNL     1      30.752 -23.343 -36.692  1.00  0.00     0.277 HD
ATOM     21  H41 UNL     1      30.538 -23.628 -35.183  1.00  0.00     0.277 HD
HETATM   22  C17 UNL     1      33.052 -22.569 -36.065  1.00  0.00     0.055 C 
HETATM   23  C18 UNL     1      33.848 -22.543 -37.359  1.00  0.00     0.234 C 
HETATM   24  N5  UNL     1      33.904 -21.253 -37.972  1.00  0.00    -0.073 N 
HETATM   25  C19 UNL     1      33.804 -21.315 -39.443  1.00  0.00     0.259 C 
ATOM     26  H52 UNL     1      33.193 -20.633 -37.584  1.00  0.00     0.277 HD
ATOM     27  H51 UNL     1      34.741 -20.747 -37.683  1.00  0.00     0.277 HD
HETATM   28  C20 UNL     1      32.372 -21.429 -39.819  1.00  0.00     0.259 C 
HETATM   29  N6  UNL     1      32.142 -22.071 -41.121  1.00  0.00    -0.072 N 
HETATM   30  C21 UNL     1      31.148 -23.082 -40.855  1.00  0.00     0.262 C 
ATOM     31  H62 UNL     1      31.885 -21.422 -41.865  1.00  0.00     0.277 HD
ATOM     32  H61 UNL     1      32.988 -22.426 -41.565  1.00  0.00     0.277 HD
HETATM   33  C22 UNL     1      30.683 -23.896 -41.997  1.00  0.00     0.300 C 
ENDBRANCH   9  10
ENDBRANCH   4   9
BRANCH   1  34
HETATM   34  C5  UNL     1      33.158 -30.660 -40.083  1.00  0.00     0.291 C 
BRANCH  34  35
HETATM   35  N1  UNL     1      33.757 -30.101 -38.852  1.00  0.00    -0.066 N 
ATOM     36  H12 UNL     1      34.173 -29.181 -38.991  1.00  0.00     0.277 HD
ATOM     37  H11 UNL     1      34.607 -30.586 -38.564  1.00  0.00     0.277 HD
BRANCH  35  38
HETATM   38  C4  UNL     1      32.714 -30.112 -37.827  1.00  0.00     0.271 C 
BRANCH  38  39
HETATM   39  C3  UNL     1      32.148 -31.460 -37.673  1.00  0.00    -0.029 A 
HETATM   40  C2  UNL     1      30.773 -31.657 -37.817  1.00  0.00     0.045 A 
HETATM   41  C1  UNL     1      30.193 -32.911 -37.595  1.00  0.00     0.073 A 
HETATM   42  C25 UNL     1      31.027 -33.956 -37.231  1.00  0.00    -0.016 A 
HETATM   43  C24 UNL     1      32.379 -33.805 -37.087  1.00  0.00    -0.018 A 
HETATM   44  C26 UNL     1      30.433 -35.303 -36.933  1.00  0.00     0.044 C 
HETATM   45  C23 UNL     1      32.900 -32.555 -37.313  1.00  0.00     0.019 A 
HETATM   46  C29 UNL     1      33.322 -34.895 -36.703  1.00  0.00     0.180 C 
HETATM   47  C28 UNL     1      32.633 -36.206 -36.489  1.00  0.00     0.151 C 
HETATM   48  C27 UNL     1      31.314 -35.918 -35.817  1.00  0.00     0.039 C 
BRANCH  41  49
HETATM   49  O1  UNL     1      28.826 -33.051 -37.750  1.00  0.00    -0.360 OA
ATOM     50  H1  UNL     1      28.300 -33.289 -36.996  1.00  0.00     0.217 HD
ENDBRANCH  41  49
BRANCH  46  51
HETATM   51  O3  UNL     1      34.305 -34.945 -37.699  1.00  0.00    -0.388 OA
ATOM     52  H3  UNL     1      34.595 -34.052 -37.840  1.00  0.00     0.210 HD
ENDBRANCH  46  51
BRANCH  47  53
HETATM   53  O2  UNL     1      32.503 -36.863 -37.698  1.00  0.00    -0.393 OA
ATOM     54  H2  UNL     1      32.868 -37.741 -37.694  1.00  0.00     0.210 HD
ENDBRANCH  47  53
ENDBRANCH  38  39
ENDBRANCH  35  38
ENDBRANCH  34  35
ENDBRANCH   1  34
TORSDOF 9
ENDMDL
