MODEL 1
REMARK VINA RESULT: -5.557378780      0.000      0.000
REMARK  8 active torsions:
REMARK  status: ('A' for Active; 'I' for Inactive)
REMARK    1  A    between atoms: C2_2  and  C8_12 
REMARK    2  A    between atoms: C3_3  and  C4_4 
REMARK    3  A    between atoms: C4_4  and  C5_5 
REMARK    4  A    between atoms: C8_12  and  O1_13 
REMARK    5  A    between atoms: C8_12  and  C9_15 
REMARK    6  A    between atoms: C9_15  and  N3_16 
REMARK    7  A    between atoms: C9_15  and  C10_20 
REMARK    8  A    between atoms: C10_20  and  N4_21 
ROOT
HETATM    1  C8  UNL     1      24.957  -5.027  10.053  1.00  0.00     0.178 C 
ENDROOT
BRANCH   1   2
HETATM    2  C2  UNL     1      26.258  -5.829  10.027  1.00  0.00    -0.053 C 
HETATM    3  C1  UNL     1      26.192  -6.956  10.950  1.00  0.00     0.046 C 
HETATM    4  C3  UNL     1      27.420  -4.985   9.920  1.00  0.00     0.009 C 
BRANCH   4   5
HETATM    5  C4  UNL     1      28.484  -4.693  10.511  1.00  0.00     0.048 C 
BRANCH   5   6
HETATM    6  C5  UNL     1      29.362  -3.562  10.697  1.00  0.00     0.096 C 
HETATM    7  N1  UNL     1      30.598  -3.728  11.204  1.00  0.00    -0.375 N 
HETATM    8  C6  UNL     1      31.292  -2.482  11.296  1.00  0.00     0.141 C 
ATOM      9  H1  UNL     1      30.989  -4.627  11.486  1.00  0.00     0.161 HD
HETATM   10  C7  UNL     1      30.586  -1.677  10.173  1.00  0.00     0.141 C 
HETATM   11  N2  UNL     1      29.223  -2.171  10.500  1.00  0.00    -0.375 N 
ATOM     12  H2  UNL     1      28.366  -1.621  10.567  1.00  0.00     0.161 HD
ENDBRANCH   5   6
ENDBRANCH   4   5
ENDBRANCH   1   2
BRANCH   1  13
HETATM   13  O1  UNL     1      25.084  -4.005   9.084  1.00  0.00    -0.389 OA
ATOM     14  H1  UNL     1      25.057  -4.424   8.233  1.00  0.00     0.210 HD
ENDBRANCH   1  13
BRANCH   1  15
HETATM   15  C9  UNL     1      24.607  -4.392  11.337  1.00  0.00     0.241 C 
BRANCH  15  16
HETATM   16  N3  UNL     1      23.282  -4.610  11.829  1.00  0.00    -0.071 N 
ATOM     17  H33 UNL     1      23.205  -5.561  12.188  1.00  0.00     0.274 HD
ATOM     18  H32 UNL     1      23.144  -4.074  12.685  1.00  0.00     0.274 HD
ATOM     19  H31 UNL     1      22.513  -4.426  11.184  1.00  0.00     0.274 HD
ENDBRANCH  15  16
BRANCH  15  20
HETATM   20  C10 UNL     1      24.731  -2.872  11.145  1.00  0.00     0.265 C 
BRANCH  20  21
HETATM   21  N4  UNL     1      23.466  -2.215  11.027  1.00  0.00    -0.077 N 
ATOM     22  H43 UNL     1      23.529  -1.415  10.398  1.00  0.00     0.274 HD
ATOM     23  H42 UNL     1      22.806  -2.789  10.503  1.00  0.00     0.274 HD
ATOM     24  H41 UNL     1      23.072  -1.940  11.927  1.00  0.00     0.274 HD
ENDBRANCH  20  21
ENDBRANCH  15  20
ENDBRANCH   1  15
TORSDOF 8
ENDMDL
MODEL 2
REMARK VINA RESULT: -5.539569504      3.502      5.007
REMARK  8 active torsions:
REMARK  status: ('A' for Active; 'I' for Inactive)
REMARK    1  A    between atoms: C2_2  and  C8_12 
REMARK    2  A    between atoms: C3_3  and  C4_4 
REMARK    3  A    between atoms: C4_4  and  C5_5 
REMARK    4  A    between atoms: C8_12  and  O1_13 
REMARK    5  A    between atoms: C8_12  and  C9_15 
REMARK    6  A    between atoms: C9_15  and  N3_16 
REMARK    7  A    between atoms: C9_15  and  C10_20 
REMARK    8  A    between atoms: C10_20  and  N4_21 
ROOT
HETATM    1  C8  UNL     1      24.974  -5.117  10.141  1.00  0.00     0.178 C 
ENDROOT
BRANCH   1   2
HETATM    2  C2  UNL     1      26.246  -5.955  10.254  1.00  0.00    -0.053 C 
HETATM    3  C1  UNL     1      26.571  -6.583   8.979  1.00  0.00     0.046 C 
HETATM    4  C3  UNL     1      26.328  -6.662  11.506  1.00  0.00     0.009 C 
BRANCH   4   5
HETATM    5  C4  UNL     1      26.418  -7.816  11.982  1.00  0.00     0.048 C 
BRANCH   5   6
HETATM    6  C5  UNL     1      26.383  -8.481  13.264  1.00  0.00     0.096 C 
HETATM    7  N1  UNL     1      26.467  -9.822  13.344  1.00  0.00    -0.375 N 
HETATM    8  C6  UNL     1      26.419 -10.264  14.702  1.00  0.00     0.141 C 
ATOM      9  H1  UNL     1      26.554 -10.443  12.539  1.00  0.00     0.161 HD
HETATM   10  C7  UNL     1      26.972  -9.011  15.431  1.00  0.00     0.141 C 
HETATM   11  N2  UNL     1      26.225  -8.036  14.594  1.00  0.00    -0.375 N 
ATOM     12  H2  UNL     1      25.706  -7.218  14.914  1.00  0.00     0.161 HD
ENDBRANCH   5   6
ENDBRANCH   4   5
ENDBRANCH   1   2
BRANCH   1  13
HETATM   13  O1  UNL     1      25.187  -4.179   9.104  1.00  0.00    -0.389 OA
ATOM     14  H1  UNL     1      24.448  -3.584   9.112  1.00  0.00     0.210 HD
ENDBRANCH   1  13
BRANCH   1  15
HETATM   15  C9  UNL     1      24.573  -4.371  11.349  1.00  0.00     0.241 C 
BRANCH  15  16
HETATM   16  N3  UNL     1      23.236  -4.563  11.816  1.00  0.00    -0.071 N 
ATOM     17  H33 UNL     1      22.890  -5.467  11.496  1.00  0.00     0.274 HD
ATOM     18  H32 UNL     1      23.246  -4.712  12.825  1.00  0.00     0.274 HD
ATOM     19  H31 UNL     1      22.556  -3.838  11.586  1.00  0.00     0.274 HD
ENDBRANCH  15  16
BRANCH  15  20
HETATM   20  C10 UNL     1      24.685  -2.874  11.020  1.00  0.00     0.265 C 
BRANCH  20  21
HETATM   21  N4  UNL     1      23.423  -2.201  11.028  1.00  0.00    -0.077 N 
ATOM     22  H43 UNL     1      23.163  -1.906  10.087  1.00  0.00     0.274 HD
ATOM     23  H42 UNL     1      22.664  -2.855  11.215  1.00  0.00     0.274 HD
ATOM     24  H41 UNL     1      23.392  -1.415  11.677  1.00  0.00     0.274 HD
ENDBRANCH  20  21
ENDBRANCH  15  20
ENDBRANCH   1  15
TORSDOF 8
ENDMDL
MODEL 3
REMARK VINA RESULT: -5.502612523      3.879      6.015
REMARK  8 active torsions:
REMARK  status: ('A' for Active; 'I' for Inactive)
REMARK    1  A    between atoms: C2_2  and  C8_12 
REMARK    2  A    between atoms: C3_3  and  C4_4 
REMARK    3  A    between atoms: C4_4  and  C5_5 
REMARK    4  A    between atoms: C8_12  and  O1_13 
REMARK    5  A    between atoms: C8_12  and  C9_15 
REMARK    6  A    between atoms: C9_15  and  N3_16 
REMARK    7  A    between atoms: C9_15  and  C10_20 
REMARK    8  A    between atoms: C10_20  and  N4_21 
ROOT
HETATM    1  C8  UNL     1      24.833  -4.459  12.724  1.00  0.00     0.178 C 
ENDROOT
BRANCH   1   2
HETATM    2  C2  UNL     1      25.661  -5.735  12.584  1.00  0.00    -0.053 C 
HETATM    3  C1  UNL     1      25.565  -6.271  11.231  1.00  0.00     0.046 C 
HETATM    4  C3  UNL     1      25.581  -6.572  13.754  1.00  0.00     0.009 C 
BRANCH   4   5
HETATM    5  C4  UNL     1      25.245  -7.720  14.123  1.00  0.00     0.048 C 
BRANCH   5   6
HETATM    6  C5  UNL     1      25.815  -8.870  14.785  1.00  0.00     0.096 C 
HETATM    7  N1  UNL     1      25.469 -10.117  14.414  1.00  0.00    -0.375 N 
HETATM    8  C6  UNL     1      26.153 -11.099  15.194  1.00  0.00     0.141 C 
ATOM      9  H1  UNL     1      24.804 -10.333  13.670  1.00  0.00     0.161 HD
HETATM   10  C7  UNL     1      27.425 -10.309  15.597  1.00  0.00     0.141 C 
HETATM   11  N2  UNL     1      26.706  -9.037  15.867  1.00  0.00    -0.375 N 
ATOM     12  H2  UNL     1      26.830  -8.414  16.666  1.00  0.00     0.161 HD
ENDBRANCH   5   6
ENDBRANCH   4   5
ENDBRANCH   1   2
BRANCH   1  13
HETATM   13  O1  UNL     1      23.539  -4.750  12.234  1.00  0.00    -0.389 OA
ATOM     14  H1  UNL     1      22.982  -4.017  12.470  1.00  0.00     0.210 HD
ENDBRANCH   1  13
BRANCH   1  15
HETATM   15  C9  UNL     1      25.333  -3.273  12.002  1.00  0.00     0.241 C 
BRANCH  15  16
HETATM   16  N3  UNL     1      25.361  -2.039  12.723  1.00  0.00    -0.071 N 
ATOM     17  H33 UNL     1      25.158  -1.268  12.086  1.00  0.00     0.274 HD
ATOM     18  H32 UNL     1      24.552  -1.988  13.342  1.00  0.00     0.274 HD
ATOM     19  H31 UNL     1      26.208  -1.830  13.251  1.00  0.00     0.274 HD
ENDBRANCH  15  16
BRANCH  15  20
HETATM   20  C10 UNL     1      24.393  -3.034  10.809  1.00  0.00     0.265 C 
BRANCH  20  21
HETATM   21  N4  UNL     1      23.389  -2.051  11.074  1.00  0.00    -0.077 N 
ATOM     22  H43 UNL     1      22.463  -2.476  11.100  1.00  0.00     0.274 HD
ATOM     23  H42 UNL     1      23.449  -1.720  12.036  1.00  0.00     0.274 HD
ATOM     24  H41 UNL     1      23.412  -1.269  10.419  1.00  0.00     0.274 HD
ENDBRANCH  20  21
ENDBRANCH  15  20
ENDBRANCH   1  15
TORSDOF 8
ENDMDL
MODEL 4
REMARK VINA RESULT: -5.438924457      4.097      5.373
REMARK  8 active torsions:
REMARK  status: ('A' for Active; 'I' for Inactive)
REMARK    1  A    between atoms: C2_2  and  C8_12 
REMARK    2  A    between atoms: C3_3  and  C4_4 
REMARK    3  A    between atoms: C4_4  and  C5_5 
REMARK    4  A    between atoms: C8_12  and  O1_13 
REMARK    5  A    between atoms: C8_12  and  C9_15 
REMARK    6  A    between atoms: C9_15  and  N3_16 
REMARK    7  A    between atoms: C9_15  and  C10_20 
REMARK    8  A    between atoms: C10_20  and  N4_21 
ROOT
HETATM    1  C8  UNL     1      25.074  -4.161  12.993  1.00  0.00     0.178 C 
ENDROOT
BRANCH   1   2
HETATM    2  C2  UNL     1      26.038  -5.346  12.971  1.00  0.00    -0.053 C 
HETATM    3  C1  UNL     1      25.550  -6.398  12.088  1.00  0.00     0.046 C 
HETATM    4  C3  UNL     1      26.594  -5.624  14.271  1.00  0.00     0.009 C 
BRANCH   4   5
HETATM    5  C4  UNL     1      26.681  -6.528  15.133  1.00  0.00     0.048 C 
BRANCH   5   6
HETATM    6  C5  UNL     1      27.592  -7.571  15.542  1.00  0.00     0.096 C 
HETATM    7  N1  UNL     1      27.213  -8.502  16.436  1.00  0.00    -0.375 N 
HETATM    8  C6  UNL     1      28.265  -9.436  16.690  1.00  0.00     0.141 C 
ATOM      9  H1  UNL     1      26.293  -8.537  16.877  1.00  0.00     0.161 HD
HETATM   10  C7  UNL     1      29.055  -9.346  15.358  1.00  0.00     0.141 C 
HETATM   11  N2  UNL     1      28.939  -7.870  15.240  1.00  0.00    -0.375 N 
ATOM     12  H2  UNL     1      29.677  -7.210  14.993  1.00  0.00     0.161 HD
ENDBRANCH   5   6
ENDBRANCH   4   5
ENDBRANCH   1   2
BRANCH   1  13
HETATM   13  O1  UNL     1      23.808  -4.652  12.597  1.00  0.00    -0.389 OA
ATOM     14  H1  UNL     1      23.155  -4.119  13.033  1.00  0.00     0.210 HD
ENDBRANCH   1  13
BRANCH   1  15
HETATM   15  C9  UNL     1      25.413  -3.026  12.114  1.00  0.00     0.241 C 
BRANCH  15  16
HETATM   16  N3  UNL     1      25.255  -1.714  12.659  1.00  0.00    -0.071 N 
ATOM     17  H33 UNL     1      24.482  -1.242  12.191  1.00  0.00     0.274 HD
ATOM     18  H32 UNL     1      24.888  -1.782  13.608  1.00  0.00     0.274 HD
ATOM     19  H31 UNL     1      26.076  -1.109  12.654  1.00  0.00     0.274 HD
ENDBRANCH  15  16
BRANCH  15  20
HETATM   20  C10 UNL     1      24.469  -3.087  10.903  1.00  0.00     0.265 C 
BRANCH  20  21
HETATM   21  N4  UNL     1      23.403  -2.137  10.974  1.00  0.00    -0.077 N 
ATOM     22  H43 UNL     1      22.585  -2.541  11.430  1.00  0.00     0.274 HD
ATOM     23  H42 UNL     1      23.619  -1.397  11.642  1.00  0.00     0.274 HD
ATOM     24  H41 UNL     1      23.155  -1.744  10.065  1.00  0.00     0.274 HD
ENDBRANCH  20  21
ENDBRANCH  15  20
ENDBRANCH   1  15
TORSDOF 8
ENDMDL
MODEL 5
REMARK VINA RESULT: -5.429269396      3.860      5.947
REMARK  8 active torsions:
REMARK  status: ('A' for Active; 'I' for Inactive)
REMARK    1  A    between atoms: C2_2  and  C8_12 
REMARK    2  A    between atoms: C3_3  and  C4_4 
REMARK    3  A    between atoms: C4_4  and  C5_5 
REMARK    4  A    between atoms: C8_12  and  O1_13 
REMARK    5  A    between atoms: C8_12  and  C9_15 
REMARK    6  A    between atoms: C9_15  and  N3_16 
REMARK    7  A    between atoms: C9_15  and  C10_20 
REMARK    8  A    between atoms: C10_20  and  N4_21 
ROOT
HETATM    1  C8  UNL     1      26.038  -3.792  13.272  1.00  0.00     0.178 C 
ENDROOT
BRANCH   1   2
HETATM    2  C2  UNL     1      25.156  -4.772  14.046  1.00  0.00    -0.053 C 
HETATM    3  C1  UNL     1      25.435  -4.707  15.475  1.00  0.00     0.046 C 
HETATM    4  C3  UNL     1      24.981  -6.020  13.349  1.00  0.00     0.009 C 
BRANCH   4   5
HETATM    5  C4  UNL     1      25.169  -7.252  13.471  1.00  0.00     0.048 C 
BRANCH   5   6
HETATM    6  C5  UNL     1      25.724  -8.189  14.420  1.00  0.00     0.096 C 
HETATM    7  N1  UNL     1      25.732  -9.508  14.157  1.00  0.00    -0.375 N 
HETATM    8  C6  UNL     1      26.331 -10.246  15.225  1.00  0.00     0.141 C 
ATOM      9  H1  UNL     1      25.359  -9.929  13.306  1.00  0.00     0.161 HD
HETATM   10  C7  UNL     1      27.268  -9.167  15.828  1.00  0.00     0.141 C 
HETATM   11  N2  UNL     1      26.283  -8.061  15.710  1.00  0.00    -0.375 N 
ATOM     12  H2  UNL     1      26.057  -7.357  16.414  1.00  0.00     0.161 HD
ENDBRANCH   5   6
ENDBRANCH   4   5
ENDBRANCH   1   2
BRANCH   1  13
HETATM   13  O1  UNL     1      25.558  -2.492  13.556  1.00  0.00    -0.389 OA
ATOM     14  H1  UNL     1      26.177  -1.880  13.178  1.00  0.00     0.210 HD
ENDBRANCH   1  13
BRANCH   1  15
HETATM   15  C9  UNL     1      26.063  -3.954  11.806  1.00  0.00     0.241 C 
BRANCH  15  16
HETATM   16  N3  UNL     1      27.343  -3.916  11.171  1.00  0.00    -0.071 N 
ATOM     17  H33 UNL     1      27.648  -2.948  11.077  1.00  0.00     0.274 HD
ATOM     18  H32 UNL     1      28.051  -4.275  11.812  1.00  0.00     0.274 HD
ATOM     19  H31 UNL     1      27.428  -4.389  10.271  1.00  0.00     0.274 HD
ENDBRANCH  15  16
BRANCH  15  20
HETATM   20  C10 UNL     1      25.268  -2.784  11.203  1.00  0.00     0.265 C 
BRANCH  20  21
HETATM   21  N4  UNL     1      23.861  -3.031  11.148  1.00  0.00    -0.077 N 
ATOM     22  H43 UNL     1      23.466  -2.688  10.273  1.00  0.00     0.274 HD
ATOM     23  H42 UNL     1      23.670  -4.027  11.039  1.00  0.00     0.274 HD
ATOM     24  H41 UNL     1      23.356  -2.651  11.948  1.00  0.00     0.274 HD
ENDBRANCH  20  21
ENDBRANCH  15  20
ENDBRANCH   1  15
TORSDOF 8
ENDMDL
