MODEL 1
REMARK VINA RESULT: -5.372556821      0.000      0.000
REMARK  8 active torsions:
REMARK  status: ('A' for Active; 'I' for Inactive)
REMARK    1  A    between atoms: N1_1  and  C1_5 
REMARK    2  A    between atoms: C1_5  and  C2_6 
REMARK    3  A    between atoms: C2_6  and  C3_7 
REMARK    4  A    between atoms: C3_7  and  C4_8 
REMARK    5  A    between atoms: C4_8  and  N2_9 
REMARK    6  A    between atoms: C4_8  and  C5_13 
REMARK    7  A    between atoms: N3_14  and  N4_16 
REMARK    8  A    between atoms: N4_16  and  C6_18 
ROOT
HETATM    1  C5  UNL     1      25.832  -3.343  11.780  1.00  0.00     0.113 C 
HETATM    2  N3  UNL     1      26.254  -3.354  12.993  1.00  0.00    -0.299 N 
ATOM      3  H3  UNL     1      27.220  -3.100  13.199  1.00  0.00     0.186 HD
ENDROOT
BRANCH   1   4
HETATM    4  C4  UNL     1      24.436  -3.706  11.457  1.00  0.00     0.223 C 
BRANCH   4   5
HETATM    5  C3  UNL     1      24.428  -4.859  10.512  1.00  0.00     0.040 C 
BRANCH   5   6
HETATM    6  C2  UNL     1      25.767  -5.019   9.869  1.00  0.00     0.029 C 
BRANCH   6   7
HETATM    7  C1  UNL     1      26.290  -6.432   9.988  1.00  0.00     0.230 C 
BRANCH   7   8
HETATM    8  N1  UNL     1      26.046  -7.010  11.272  1.00  0.00    -0.079 N 
ATOM      9  H13 UNL     1      25.841  -8.006  11.190  1.00  0.00     0.274 HD
ATOM     10  H12 UNL     1      26.905  -7.062  11.818  1.00  0.00     0.274 HD
ATOM     11  H11 UNL     1      25.312  -6.529  11.792  1.00  0.00     0.274 HD
ENDBRANCH   7   8
ENDBRANCH   6   7
ENDBRANCH   5   6
ENDBRANCH   4   5
BRANCH   4  12
HETATM   12  N2  UNL     1      23.665  -2.574  10.979  1.00  0.00    -0.070 N 
ATOM     13  H23 UNL     1      23.945  -2.316  10.033  1.00  0.00     0.275 HD
ATOM     14  H22 UNL     1      22.698  -2.843  10.801  1.00  0.00     0.275 HD
ATOM     15  H21 UNL     1      23.710  -1.768  11.603  1.00  0.00     0.275 HD
ENDBRANCH   4  12
ENDBRANCH   1   4
BRANCH   2  16
HETATM   16  N4  UNL     1      25.402  -3.709  14.013  1.00  0.00    -0.131 N 
ATOM     17  H4  UNL     1      24.619  -3.094  14.232  1.00  0.00     0.205 HD
BRANCH  16  18
HETATM   18  C6  UNL     1      25.554  -4.799  14.709  1.00  0.00     0.712 A 
HETATM   19  N5  UNL     1      26.527  -5.723  14.606  1.00  0.00    -0.184 N 
HETATM   20  C7  UNL     1      26.280  -6.688  15.536  1.00  0.00     0.215 A 
ATOM     21  H5  UNL     1      27.308  -5.704  13.951  1.00  0.00     0.185 HD
HETATM   22  N6  UNL     1      25.160  -6.358  16.206  1.00  0.00    -0.281 N 
HETATM   23  N7  UNL     1      24.739  -5.215  15.691  1.00  0.00    -0.130 N 
ATOM     24  H6  UNL     1      24.723  -6.884  16.962  1.00  0.00     0.188 HD
ATOM     25  H7  UNL     1      23.905  -4.715  15.999  1.00  0.00     0.205 HD
ENDBRANCH  16  18
ENDBRANCH   2  16
TORSDOF 8
ENDMDL
MODEL 2
REMARK VINA RESULT: -5.327862509      1.679      5.175
REMARK  8 active torsions:
REMARK  status: ('A' for Active; 'I' for Inactive)
REMARK    1  A    between atoms: N1_1  and  C1_5 
REMARK    2  A    between atoms: C1_5  and  C2_6 
REMARK    3  A    between atoms: C2_6  and  C3_7 
REMARK    4  A    between atoms: C3_7  and  C4_8 
REMARK    5  A    between atoms: C4_8  and  N2_9 
REMARK    6  A    between atoms: C4_8  and  C5_13 
REMARK    7  A    between atoms: N3_14  and  N4_16 
REMARK    8  A    between atoms: N4_16  and  C6_18 
ROOT
HETATM    1  C5  UNL     1      26.273  -7.776  12.700  1.00  0.00     0.113 C 
HETATM    2  N3  UNL     1      25.823  -6.872  11.908  1.00  0.00    -0.299 N 
ATOM      3  H3  UNL     1      26.217  -6.771  10.972  1.00  0.00     0.186 HD
ENDROOT
BRANCH   1   4
HETATM    4  C4  UNL     1      25.716  -7.942  14.059  1.00  0.00     0.223 C 
BRANCH   4   5
HETATM    5  C3  UNL     1      26.730  -7.521  15.068  1.00  0.00     0.040 C 
BRANCH   5   6
HETATM    6  C2  UNL     1      26.108  -6.632  16.095  1.00  0.00     0.029 C 
BRANCH   6   7
HETATM    7  C1  UNL     1      25.874  -5.234  15.571  1.00  0.00     0.230 C 
BRANCH   7   8
HETATM    8  N1  UNL     1      24.571  -4.734  15.877  1.00  0.00    -0.079 N 
ATOM      9  H13 UNL     1      24.415  -4.714  16.885  1.00  0.00     0.274 HD
ATOM     10  H12 UNL     1      24.507  -3.736  15.679  1.00  0.00     0.274 HD
ATOM     11  H11 UNL     1      23.827  -5.248  15.403  1.00  0.00     0.274 HD
ENDBRANCH   7   8
ENDBRANCH   6   7
ENDBRANCH   5   6
ENDBRANCH   4   5
BRANCH   4  12
HETATM   12  N2  UNL     1      25.207  -9.281  14.290  1.00  0.00    -0.070 N 
ATOM     13  H23 UNL     1      25.460  -9.611  15.221  1.00  0.00     0.275 HD
ATOM     14  H22 UNL     1      24.191  -9.272  14.386  1.00  0.00     0.275 HD
ATOM     15  H21 UNL     1      25.499  -9.949  13.577  1.00  0.00     0.275 HD
ENDBRANCH   4  12
ENDBRANCH   1   4
BRANCH   2  16
HETATM   16  N4  UNL     1      24.808  -6.040  12.322  1.00  0.00    -0.131 N 
ATOM     17  H4  UNL     1      24.088  -6.416  12.939  1.00  0.00     0.205 HD
BRANCH  16  18
HETATM   18  C6  UNL     1      24.728  -4.793  11.957  1.00  0.00     0.712 A 
HETATM   19  N5  UNL     1      25.701  -3.863  11.954  1.00  0.00    -0.184 N 
HETATM   20  C7  UNL     1      25.160  -2.701  11.492  1.00  0.00     0.215 A 
ATOM     21  H5  UNL     1      26.668  -4.003  12.244  1.00  0.00     0.185 HD
HETATM   22  N6  UNL     1      23.861  -2.916  11.214  1.00  0.00    -0.281 N 
HETATM   23  N7  UNL     1      23.622  -4.185  11.501  1.00  0.00    -0.130 N 
ATOM     24  H6  UNL     1      23.193  -2.236  10.852  1.00  0.00     0.188 HD
ATOM     25  H7  UNL     1      22.717  -4.640  11.391  1.00  0.00     0.205 HD
ENDBRANCH  16  18
ENDBRANCH   2  16
TORSDOF 8
ENDMDL
MODEL 3
REMARK VINA RESULT: -5.275682709      1.697      2.231
REMARK  8 active torsions:
REMARK  status: ('A' for Active; 'I' for Inactive)
REMARK    1  A    between atoms: N1_1  and  C1_5 
REMARK    2  A    between atoms: C1_5  and  C2_6 
REMARK    3  A    between atoms: C2_6  and  C3_7 
REMARK    4  A    between atoms: C3_7  and  C4_8 
REMARK    5  A    between atoms: C4_8  and  N2_9 
REMARK    6  A    between atoms: C4_8  and  C5_13 
REMARK    7  A    between atoms: N3_14  and  N4_16 
REMARK    8  A    between atoms: N4_16  and  C6_18 
ROOT
HETATM    1  C5  UNL     1      25.598  -2.804  12.183  1.00  0.00     0.113 C 
HETATM    2  N3  UNL     1      25.583  -3.346  13.346  1.00  0.00    -0.299 N 
ATOM      3  H3  UNL     1      26.243  -3.039  14.061  1.00  0.00     0.186 HD
ENDROOT
BRANCH   1   4
HETATM    4  C4  UNL     1      24.651  -3.231  11.132  1.00  0.00     0.223 C 
BRANCH   4   5
HETATM    5  C3  UNL     1      25.393  -3.482   9.863  1.00  0.00     0.040 C 
BRANCH   5   6
HETATM    6  C2  UNL     1      26.867  -3.444  10.104  1.00  0.00     0.029 C 
BRANCH   6   7
HETATM    7  C1  UNL     1      27.569  -2.467   9.189  1.00  0.00     0.230 C 
BRANCH   7   8
HETATM    8  N1  UNL     1      28.196  -1.395   9.895  1.00  0.00    -0.079 N 
ATOM      9  H13 UNL     1      27.522  -0.664  10.122  1.00  0.00     0.274 HD
ATOM     10  H12 UNL     1      28.455  -1.681  10.838  1.00  0.00     0.274 HD
ATOM     11  H11 UNL     1      28.999  -1.008   9.398  1.00  0.00     0.274 HD
ENDBRANCH   7   8
ENDBRANCH   6   7
ENDBRANCH   5   6
ENDBRANCH   4   5
BRANCH   4  12
HETATM   12  N2  UNL     1      23.546  -2.305  10.971  1.00  0.00    -0.070 N 
ATOM     13  H23 UNL     1      22.689  -2.688  11.370  1.00  0.00     0.275 HD
ATOM     14  H22 UNL     1      23.663  -1.492  11.574  1.00  0.00     0.275 HD
ATOM     15  H21 UNL     1      23.399  -2.022  10.002  1.00  0.00     0.275 HD
ENDBRANCH   4  12
ENDBRANCH   1   4
BRANCH   2  16
HETATM   16  N4  UNL     1      24.676  -4.341  13.628  1.00  0.00    -0.131 N 
ATOM     17  H4  UNL     1      23.748  -4.291  13.208  1.00  0.00     0.205 HD
BRANCH  16  18
HETATM   18  C6  UNL     1      24.954  -5.346  14.409  1.00  0.00     0.712 A 
HETATM   19  N5  UNL     1      25.416  -6.562  14.068  1.00  0.00    -0.184 N 
HETATM   20  C7  UNL     1      25.560  -7.286  15.213  1.00  0.00     0.215 A 
ATOM     21  H5  UNL     1      25.622  -6.884  13.122  1.00  0.00     0.185 HD
HETATM   22  N6  UNL     1      25.187  -6.517  16.253  1.00  0.00    -0.281 N 
HETATM   23  N7  UNL     1      24.825  -5.351  15.745  1.00  0.00    -0.130 N 
ATOM     24  H6  UNL     1      25.184  -6.781  17.238  1.00  0.00     0.188 HD
ATOM     25  H7  UNL     1      24.492  -4.560  16.295  1.00  0.00     0.205 HD
ENDBRANCH  16  18
ENDBRANCH   2  16
TORSDOF 8
ENDMDL
MODEL 4
REMARK VINA RESULT: -5.199665397      1.081      1.255
REMARK  8 active torsions:
REMARK  status: ('A' for Active; 'I' for Inactive)
REMARK    1  A    between atoms: N1_1  and  C1_5 
REMARK    2  A    between atoms: C1_5  and  C2_6 
REMARK    3  A    between atoms: C2_6  and  C3_7 
REMARK    4  A    between atoms: C3_7  and  C4_8 
REMARK    5  A    between atoms: C4_8  and  N2_9 
REMARK    6  A    between atoms: C4_8  and  C5_13 
REMARK    7  A    between atoms: N3_14  and  N4_16 
REMARK    8  A    between atoms: N4_16  and  C6_18 
ROOT
HETATM    1  C5  UNL     1      24.757  -2.977  11.461  1.00  0.00     0.113 C 
HETATM    2  N3  UNL     1      25.510  -2.604  12.431  1.00  0.00    -0.299 N 
ATOM      3  H3  UNL     1      25.541  -1.622  12.705  1.00  0.00     0.186 HD
ENDROOT
BRANCH   1   4
HETATM    4  C4  UNL     1      24.694  -4.395  11.046  1.00  0.00     0.223 C 
BRANCH   4   5
HETATM    5  C3  UNL     1      25.214  -4.531   9.656  1.00  0.00     0.040 C 
BRANCH   5   6
HETATM    6  C2  UNL     1      25.992  -5.799   9.510  1.00  0.00     0.029 C 
BRANCH   6   7
HETATM    7  C1  UNL     1      26.694  -6.186  10.790  1.00  0.00     0.230 C 
BRANCH   7   8
HETATM    8  N1  UNL     1      26.391  -7.518  11.211  1.00  0.00    -0.079 N 
ATOM      9  H13 UNL     1      26.405  -8.162  10.420  1.00  0.00     0.274 HD
ATOM     10  H12 UNL     1      27.157  -7.911  11.758  1.00  0.00     0.274 HD
ATOM     11  H11 UNL     1      25.509  -7.583  11.720  1.00  0.00     0.274 HD
ENDBRANCH   7   8
ENDBRANCH   6   7
ENDBRANCH   5   6
ENDBRANCH   4   5
BRANCH   4  12
HETATM   12  N2  UNL     1      23.371  -4.965  11.218  1.00  0.00    -0.070 N 
ATOM     13  H23 UNL     1      22.651  -4.249  11.119  1.00  0.00     0.275 HD
ATOM     14  H22 UNL     1      23.127  -5.560  10.426  1.00  0.00     0.275 HD
ATOM     15  H21 UNL     1      23.264  -5.468  12.098  1.00  0.00     0.275 HD
ENDBRANCH   4  12
ENDBRANCH   1   4
BRANCH   2  16
HETATM   16  N4  UNL     1      26.276  -3.531  13.100  1.00  0.00    -0.131 N 
ATOM     17  H4  UNL     1      27.250  -3.653  12.823  1.00  0.00     0.205 HD
BRANCH  16  18
HETATM   18  C6  UNL     1      25.807  -4.260  14.073  1.00  0.00     0.712 A 
HETATM   19  N5  UNL     1      26.178  -5.501  14.437  1.00  0.00    -0.184 N 
HETATM   20  C7  UNL     1      25.416  -5.863  15.506  1.00  0.00     0.215 A 
ATOM     21  H5  UNL     1      26.900  -6.068  13.992  1.00  0.00     0.185 HD
HETATM   22  N6  UNL     1      24.580  -4.849  15.797  1.00  0.00    -0.281 N 
HETATM   23  N7  UNL     1      24.834  -3.892  14.920  1.00  0.00    -0.130 N 
ATOM     24  H6  UNL     1      23.889  -4.824  16.546  1.00  0.00     0.188 HD
ATOM     25  H7  UNL     1      24.352  -2.994  14.891  1.00  0.00     0.205 HD
ENDBRANCH  16  18
ENDBRANCH   2  16
TORSDOF 8
ENDMDL
MODEL 5
REMARK VINA RESULT: -5.191933389      1.611      2.163
REMARK  8 active torsions:
REMARK  status: ('A' for Active; 'I' for Inactive)
REMARK    1  A    between atoms: N1_1  and  C1_5 
REMARK    2  A    between atoms: C1_5  and  C2_6 
REMARK    3  A    between atoms: C2_6  and  C3_7 
REMARK    4  A    between atoms: C3_7  and  C4_8 
REMARK    5  A    between atoms: C4_8  and  N2_9 
REMARK    6  A    between atoms: C4_8  and  C5_13 
REMARK    7  A    between atoms: N3_14  and  N4_16 
REMARK    8  A    between atoms: N4_16  and  C6_18 
ROOT
HETATM    1  C5  UNL     1      24.807  -2.812  11.589  1.00  0.00     0.113 C 
HETATM    2  N3  UNL     1      25.534  -2.577  12.621  1.00  0.00    -0.299 N 
ATOM      3  H3  UNL     1      25.530  -1.650  13.048  1.00  0.00     0.186 HD
ENDROOT
BRANCH   1   4
HETATM    4  C4  UNL     1      24.796  -4.147  10.955  1.00  0.00     0.223 C 
BRANCH   4   5
HETATM    5  C3  UNL     1      25.243  -4.030   9.537  1.00  0.00     0.040 C 
BRANCH   5   6
HETATM    6  C2  UNL     1      26.734  -4.083   9.453  1.00  0.00     0.029 C 
BRANCH   6   7
HETATM    7  C1  UNL     1      27.323  -2.785   8.954  1.00  0.00     0.230 C 
BRANCH   7   8
HETATM    8  N1  UNL     1      27.943  -2.020   9.990  1.00  0.00    -0.079 N 
ATOM      9  H13 UNL     1      28.496  -2.619  10.604  1.00  0.00     0.274 HD
ATOM     10  H12 UNL     1      28.689  -1.434   9.615  1.00  0.00     0.274 HD
ATOM     11  H11 UNL     1      27.277  -1.463  10.526  1.00  0.00     0.274 HD
ENDBRANCH   7   8
ENDBRANCH   6   7
ENDBRANCH   5   6
ENDBRANCH   4   5
BRANCH   4  12
HETATM   12  N2  UNL     1      23.516  -4.816  11.094  1.00  0.00    -0.070 N 
ATOM     13  H23 UNL     1      22.899  -4.295  11.717  1.00  0.00     0.275 HD
ATOM     14  H22 UNL     1      22.977  -4.752  10.231  1.00  0.00     0.275 HD
ATOM     15  H21 UNL     1      23.603  -5.786  11.398  1.00  0.00     0.275 HD
ENDBRANCH   4  12
ENDBRANCH   1   4
BRANCH   2  16
HETATM   16  N4  UNL     1      26.317  -3.577  13.151  1.00  0.00    -0.131 N 
ATOM     17  H4  UNL     1      27.235  -3.748  12.742  1.00  0.00     0.205 HD
BRANCH  16  18
HETATM   18  C6  UNL     1      25.933  -4.313  14.154  1.00  0.00     0.712 A 
HETATM   19  N5  UNL     1      26.559  -5.374  14.696  1.00  0.00    -0.184 N 
HETATM   20  C7  UNL     1      25.789  -5.828  15.724  1.00  0.00     0.215 A 
ATOM     21  H5  UNL     1      27.450  -5.767  14.392  1.00  0.00     0.185 HD
HETATM   22  N6  UNL     1      24.695  -5.050  15.813  1.00  0.00    -0.281 N 
HETATM   23  N7  UNL     1      24.802  -4.143  14.857  1.00  0.00    -0.130 N 
ATOM     24  H6  UNL     1      23.933  -5.142  16.484  1.00  0.00     0.188 HD
ATOM     25  H7  UNL     1      24.116  -3.410  14.677  1.00  0.00     0.205 HD
ENDBRANCH  16  18
ENDBRANCH   2  16
TORSDOF 8
ENDMDL
