MODEL 1
REMARK VINA RESULT: -5.591848746      0.000      0.000
REMARK  7 active torsions:
REMARK  status: ('A' for Active; 'I' for Inactive)
REMARK    1  A    between atoms: N1_1  and  C1_5 
REMARK    2  A    between atoms: C1_5  and  C2_6 
REMARK    3  A    between atoms: C2_6  and  C3_7 
REMARK    4  A    between atoms: C3_7  and  N2_8 
REMARK    5  A    between atoms: C7_12  and  C8_13 
REMARK    6  A    between atoms: C8_13  and  N3_14 
REMARK    7  A    between atoms: N3_14  and  N4_15 
ROOT
HETATM    1  N2  UNL     1      24.740  -5.477  13.276  1.00  0.00    -0.234 NA
HETATM    2  C4  UNL     1      25.837  -6.194  12.743  1.00  0.00     0.109 C 
HETATM    3  C5  UNL     1      25.758  -6.487  11.276  1.00  0.00     0.018 C 
HETATM    4  C6  UNL     1      25.193  -5.346  10.464  1.00  0.00     0.025 C 
HETATM    5  C7  UNL     1      25.052  -4.163  11.400  1.00  0.00     0.110 C 
HETATM    6  N5  UNL     1      24.145  -4.560  12.450  1.00  0.00    -0.159 NA
ENDROOT
BRANCH   1   7
HETATM    7  C3  UNL     1      25.184  -4.783  14.485  1.00  0.00     0.111 C 
BRANCH   7   8
HETATM    8  C2  UNL     1      26.351  -5.457  15.112  1.00  0.00     0.043 C 
BRANCH   8   9
HETATM    9  C1  UNL     1      25.879  -6.561  16.021  1.00  0.00     0.231 C 
BRANCH   9  10
HETATM   10  N1  UNL     1      24.464  -6.579  16.181  1.00  0.00    -0.079 N 
ATOM     11  H13 UNL     1      24.068  -5.652  16.028  1.00  0.00     0.274 HD
ATOM     12  H12 UNL     1      24.017  -7.080  15.413  1.00  0.00     0.274 HD
ATOM     13  H11 UNL     1      24.172  -6.956  17.082  1.00  0.00     0.274 HD
ENDBRANCH   9  10
ENDBRANCH   8   9
ENDBRANCH   7   8
ENDBRANCH   1   7
BRANCH   5  14
HETATM   14  C8  UNL     1      24.525  -2.998  10.597  1.00  0.00     0.156 C 
BRANCH  14  15
HETATM   15  N3  UNL     1      24.116  -1.896  11.425  1.00  0.00    -0.147 NA
BRANCH  15  16
HETATM   16  N4  UNL     1      25.106  -1.669  12.383  1.00  0.00    -0.348 N 
ATOM     17  H42 UNL     1      26.101  -1.568  12.182  1.00  0.00     0.172 HD
ATOM     18  H41 UNL     1      24.665  -1.623  13.302  1.00  0.00     0.172 HD
ENDBRANCH  15  16
ENDBRANCH  14  15
ENDBRANCH   5  14
TORSDOF 7
ENDMDL
MODEL 2
REMARK VINA RESULT: -5.402154152      1.229      1.566
REMARK  7 active torsions:
REMARK  status: ('A' for Active; 'I' for Inactive)
REMARK    1  A    between atoms: N1_1  and  C1_5 
REMARK    2  A    between atoms: C1_5  and  C2_6 
REMARK    3  A    between atoms: C2_6  and  C3_7 
REMARK    4  A    between atoms: C3_7  and  N2_8 
REMARK    5  A    between atoms: C7_12  and  C8_13 
REMARK    6  A    between atoms: C8_13  and  N3_14 
REMARK    7  A    between atoms: N3_14  and  N4_15 
ROOT
HETATM    1  N2  UNL     1      24.888  -7.132  13.431  1.00  0.00    -0.234 NA
HETATM    2  C4  UNL     1      26.080  -7.636  12.858  1.00  0.00     0.109 C 
HETATM    3  C5  UNL     1      26.279  -7.313  11.408  1.00  0.00     0.018 C 
HETATM    4  C6  UNL     1      25.851  -5.914  11.039  1.00  0.00     0.025 C 
HETATM    5  C7  UNL     1      25.514  -5.197  12.331  1.00  0.00     0.110 C 
HETATM    6  N5  UNL     1      24.437  -5.930  12.953  1.00  0.00    -0.159 NA
ENDROOT
BRANCH   1   7
HETATM    7  C3  UNL     1      25.086  -7.005  14.875  1.00  0.00     0.111 C 
BRANCH   7   8
HETATM    8  C2  UNL     1      26.340  -6.273  15.198  1.00  0.00     0.043 C 
BRANCH   8   9
HETATM    9  C1  UNL     1      26.012  -4.965  15.868  1.00  0.00     0.231 C 
BRANCH   9  10
HETATM   10  N1  UNL     1      24.631  -4.631  15.785  1.00  0.00    -0.079 N 
ATOM     11  H13 UNL     1      24.248  -4.888  14.875  1.00  0.00     0.274 HD
ATOM     12  H12 UNL     1      24.072  -5.243  16.380  1.00  0.00     0.274 HD
ATOM     13  H11 UNL     1      24.447  -3.650  15.993  1.00  0.00     0.274 HD
ENDBRANCH   9  10
ENDBRANCH   8   9
ENDBRANCH   7   8
ENDBRANCH   1   7
BRANCH   5  14
HETATM   14  C8  UNL     1      25.120  -3.781  11.987  1.00  0.00     0.156 C 
BRANCH  14  15
HETATM   15  N3  UNL     1      25.414  -2.852  13.044  1.00  0.00    -0.147 NA
BRANCH  15  16
HETATM   16  N4  UNL     1      25.167  -1.558  12.581  1.00  0.00    -0.348 N 
ATOM     17  H42 UNL     1      24.648  -1.331  11.732  1.00  0.00     0.172 HD
ATOM     18  H41 UNL     1      25.589  -0.895  13.230  1.00  0.00     0.172 HD
ENDBRANCH  15  16
ENDBRANCH  14  15
ENDBRANCH   5  14
TORSDOF 7
ENDMDL
MODEL 3
REMARK VINA RESULT: -5.288732507      1.431      4.335
REMARK  7 active torsions:
REMARK  status: ('A' for Active; 'I' for Inactive)
REMARK    1  A    between atoms: N1_1  and  C1_5 
REMARK    2  A    between atoms: C1_5  and  C2_6 
REMARK    3  A    between atoms: C2_6  and  C3_7 
REMARK    4  A    between atoms: C3_7  and  N2_8 
REMARK    5  A    between atoms: C7_12  and  C8_13 
REMARK    6  A    between atoms: C8_13  and  N3_14 
REMARK    7  A    between atoms: N3_14  and  N4_15 
ROOT
HETATM    1  N2  UNL     1      25.816  -5.482  12.267  1.00  0.00    -0.234 NA
HETATM    2  C4  UNL     1      25.793  -6.804  11.764  1.00  0.00     0.109 C 
HETATM    3  C5  UNL     1      26.823  -7.727  12.341  1.00  0.00     0.018 C 
HETATM    4  C6  UNL     1      27.039  -7.534  13.823  1.00  0.00     0.025 C 
HETATM    5  C7  UNL     1      25.980  -6.563  14.304  1.00  0.00     0.110 C 
HETATM    6  N5  UNL     1      26.177  -5.329  13.580  1.00  0.00    -0.159 NA
ENDROOT
BRANCH   1   7
HETATM    7  C3  UNL     1      24.488  -4.895  12.087  1.00  0.00     0.111 C 
BRANCH   7   8
HETATM    8  C2  UNL     1      24.459  -3.930  10.957  1.00  0.00     0.043 C 
BRANCH   8   9
HETATM    9  C1  UNL     1      25.330  -2.743  11.274  1.00  0.00     0.231 C 
BRANCH   9  10
HETATM   10  N1  UNL     1      25.374  -2.445  12.665  1.00  0.00    -0.079 N 
ATOM     11  H13 UNL     1      25.214  -3.283  13.223  1.00  0.00     0.274 HD
ATOM     12  H12 UNL     1      26.326  -2.227  12.961  1.00  0.00     0.274 HD
ATOM     13  H11 UNL     1      24.729  -1.701  12.932  1.00  0.00     0.274 HD
ENDBRANCH   9  10
ENDBRANCH   8   9
ENDBRANCH   7   8
ENDBRANCH   1   7
BRANCH   5  14
HETATM   14  C8  UNL     1      26.155  -6.387  15.793  1.00  0.00     0.156 C 
BRANCH  14  15
HETATM   15  N3  UNL     1      25.907  -5.037  16.223  1.00  0.00    -0.147 NA
BRANCH  15  16
HETATM   16  N4  UNL     1      24.581  -4.713  15.928  1.00  0.00    -0.348 N 
ATOM     17  H42 UNL     1      24.059  -5.064  15.125  1.00  0.00     0.172 HD
ATOM     18  H41 UNL     1      24.235  -4.076  16.645  1.00  0.00     0.172 HD
ENDBRANCH  15  16
ENDBRANCH  14  15
ENDBRANCH   5  14
TORSDOF 7
ENDMDL
MODEL 4
REMARK VINA RESULT: -5.246165535      1.175      1.175
REMARK  7 active torsions:
REMARK  status: ('A' for Active; 'I' for Inactive)
REMARK    1  A    between atoms: N1_1  and  C1_5 
REMARK    2  A    between atoms: C1_5  and  C2_6 
REMARK    3  A    between atoms: C2_6  and  C3_7 
REMARK    4  A    between atoms: C3_7  and  N2_8 
REMARK    5  A    between atoms: C7_12  and  C8_13 
REMARK    6  A    between atoms: C8_13  and  N3_14 
REMARK    7  A    between atoms: N3_14  and  N4_15 
ROOT
HETATM    1  N2  UNL     1      25.969  -5.882  13.016  1.00  0.00    -0.234 NA
HETATM    2  C4  UNL     1      26.615  -6.742  12.097  1.00  0.00     0.109 C 
HETATM    3  C5  UNL     1      26.092  -6.689  10.694  1.00  0.00     0.018 C 
HETATM    4  C6  UNL     1      25.741  -5.295  10.235  1.00  0.00     0.025 C 
HETATM    5  C7  UNL     1      26.217  -4.340  11.311  1.00  0.00     0.110 C 
HETATM    6  N5  UNL     1      25.515  -4.686  12.524  1.00  0.00    -0.159 NA
ENDROOT
BRANCH   1   7
HETATM    7  C3  UNL     1      26.891  -5.603  14.117  1.00  0.00     0.111 C 
BRANCH   7   8
HETATM    8  C2  UNL     1      26.630  -6.478  15.290  1.00  0.00     0.043 C 
BRANCH   8   9
HETATM    9  C1  UNL     1      25.178  -6.395  15.679  1.00  0.00     0.231 C 
BRANCH   9  10
HETATM   10  N1  UNL     1      24.700  -5.056  15.753  1.00  0.00    -0.079 N 
ATOM     11  H13 UNL     1      25.280  -4.431  15.195  1.00  0.00     0.274 HD
ATOM     12  H12 UNL     1      23.817  -4.956  15.253  1.00  0.00     0.274 HD
ATOM     13  H11 UNL     1      24.617  -4.718  16.712  1.00  0.00     0.274 HD
ENDBRANCH   9  10
ENDBRANCH   8   9
ENDBRANCH   7   8
ENDBRANCH   1   7
BRANCH   5  14
HETATM   14  C8  UNL     1      25.910  -2.935  10.853  1.00  0.00     0.156 C 
BRANCH  14  15
HETATM   15  N3  UNL     1      24.736  -2.393  11.482  1.00  0.00    -0.147 NA
BRANCH  15  16
HETATM   16  N4  UNL     1      25.137  -1.540  12.512  1.00  0.00    -0.348 N 
ATOM     17  H42 UNL     1      26.015  -1.022  12.533  1.00  0.00     0.172 HD
ATOM     18  H41 UNL     1      24.409  -1.528  13.226  1.00  0.00     0.172 HD
ENDBRANCH  15  16
ENDBRANCH  14  15
ENDBRANCH   5  14
TORSDOF 7
ENDMDL
MODEL 5
REMARK VINA RESULT: -5.187190284      1.613      2.328
REMARK  7 active torsions:
REMARK  status: ('A' for Active; 'I' for Inactive)
REMARK    1  A    between atoms: N1_1  and  C1_5 
REMARK    2  A    between atoms: C1_5  and  C2_6 
REMARK    3  A    between atoms: C2_6  and  C3_7 
REMARK    4  A    between atoms: C3_7  and  N2_8 
REMARK    5  A    between atoms: C7_12  and  C8_13 
REMARK    6  A    between atoms: C8_13  and  N3_14 
REMARK    7  A    between atoms: N3_14  and  N4_15 
ROOT
HETATM    1  N2  UNL     1      25.793  -7.826  13.281  1.00  0.00    -0.234 NA
HETATM    2  C4  UNL     1      26.892  -8.180  12.463  1.00  0.00     0.109 C 
HETATM    3  C5  UNL     1      26.763  -7.804  11.018  1.00  0.00     0.018 C 
HETATM    4  C6  UNL     1      26.124  -6.453  10.804  1.00  0.00     0.025 C 
HETATM    5  C7  UNL     1      25.980  -5.808  12.167  1.00  0.00     0.110 C 
HETATM    6  N5  UNL     1      25.131  -6.671  12.955  1.00  0.00    -0.159 NA
ENDROOT
BRANCH   1   7
HETATM    7  C3  UNL     1      26.261  -7.711  14.662  1.00  0.00     0.111 C 
BRANCH   7   8
HETATM    8  C2  UNL     1      25.240  -7.081  15.540  1.00  0.00     0.043 C 
BRANCH   8   9
HETATM    9  C1  UNL     1      25.672  -5.686  15.910  1.00  0.00     0.231 C 
BRANCH   9  10
HETATM   10  N1  UNL     1      24.639  -4.722  15.735  1.00  0.00    -0.079 N 
ATOM     11  H13 UNL     1      24.971  -3.929  15.186  1.00  0.00     0.274 HD
ATOM     12  H12 UNL     1      23.918  -5.072  15.103  1.00  0.00     0.274 HD
ATOM     13  H11 UNL     1      24.233  -4.412  16.617  1.00  0.00     0.274 HD
ENDBRANCH   9  10
ENDBRANCH   8   9
ENDBRANCH   7   8
ENDBRANCH   1   7
BRANCH   5  14
HETATM   14  C8  UNL     1      25.378  -4.438  11.970  1.00  0.00     0.156 C 
BRANCH  14  15
HETATM   15  N3  UNL     1      24.144  -4.268  12.690  1.00  0.00    -0.147 NA
BRANCH  15  16
HETATM   16  N4  UNL     1      23.096  -4.725  11.889  1.00  0.00    -0.348 N 
ATOM     17  H42 UNL     1      23.189  -5.410  11.139  1.00  0.00     0.172 HD
ATOM     18  H41 UNL     1      22.236  -4.261  12.182  1.00  0.00     0.172 HD
ENDBRANCH  15  16
ENDBRANCH  14  15
ENDBRANCH   5  14
TORSDOF 7
ENDMDL
