MODEL 1
REMARK VINA RESULT: -5.582755666      0.000      0.000
REMARK  7 active torsions:
REMARK  status: ('A' for Active; 'I' for Inactive)
REMARK    1  A    between atoms: N1_1  and  O1_4 
REMARK    2  A    between atoms: O1_4  and  C1_5 
REMARK    3  A    between atoms: C1_5  and  C2_6 
REMARK    4  A    between atoms: C2_6  and  C3_7 
REMARK    5  A    between atoms: C3_7  and  N2_8 
REMARK    6  A    between atoms: N2_8  and  C4_11 
REMARK    7  A    between atoms: C4_11  and  C5_12 
ROOT
HETATM    1  N2  UNL     1      23.639  -4.823  12.534  1.00  0.00    -0.073 N 
ATOM      2  H21 UNL     1      22.741  -5.277  12.703  1.00  0.00     0.277 HD
ATOM      3  H22 UNL     1      23.356  -3.890  12.835  1.00  0.00     0.277 HD
ENDROOT
BRANCH   1   4
HETATM    4  C3  UNL     1      24.080  -4.886  11.151  1.00  0.00     0.234 C 
BRANCH   4   5
HETATM    5  C2  UNL     1      25.503  -4.416  10.982  1.00  0.00     0.056 C 
BRANCH   5   6
HETATM    6  C1  UNL     1      25.410  -2.933  10.631  1.00  0.00     0.202 C 
BRANCH   6   7
HETATM    7  O1  UNL     1      24.466  -2.277  11.376  1.00  0.00    -0.287 OA
BRANCH   7   8
HETATM    8  N1  UNL     1      25.135  -1.608  12.366  1.00  0.00    -0.311 N 
ATOM      9  H12 UNL     1      25.858  -0.903  12.226  1.00  0.00     0.184 HD
ATOM     10  H11 UNL     1      24.769  -1.950  13.254  1.00  0.00     0.184 HD
ENDBRANCH   7   8
ENDBRANCH   6   7
ENDBRANCH   5   6
ENDBRANCH   4   5
ENDBRANCH   1   4
BRANCH   1  11
HETATM   11  C4  UNL     1      24.744  -5.386  13.309  1.00  0.00     0.258 C 
BRANCH  11  12
HETATM   12  C5  UNL     1      25.180  -4.493  14.414  1.00  0.00     0.129 C 
HETATM   13  C6  UNL     1      26.560  -4.796  14.943  1.00  0.00     0.159 C 
HETATM   14  S1  UNL     1      25.797  -6.326  15.507  1.00  0.00     0.112 S 
HETATM   15  O2  UNL     1      26.407  -6.865  16.974  1.00  0.00    -0.236 OA
HETATM   16  N3  UNL     1      24.677  -5.012  15.716  1.00  0.00    -0.334 N 
ATOM     17  H3  UNL     1      23.988  -4.726  16.413  1.00  0.00     0.170 HD
ENDBRANCH  11  12
ENDBRANCH   1  11
TORSDOF 7
ENDMDL
MODEL 2
REMARK VINA RESULT: -5.238605335      1.276      1.276
REMARK  7 active torsions:
REMARK  status: ('A' for Active; 'I' for Inactive)
REMARK    1  A    between atoms: N1_1  and  O1_4 
REMARK    2  A    between atoms: O1_4  and  C1_5 
REMARK    3  A    between atoms: C1_5  and  C2_6 
REMARK    4  A    between atoms: C2_6  and  C3_7 
REMARK    5  A    between atoms: C3_7  and  N2_8 
REMARK    6  A    between atoms: N2_8  and  C4_11 
REMARK    7  A    between atoms: C4_11  and  C5_12 
ROOT
HETATM    1  N2  UNL     1      23.678  -4.962  12.490  1.00  0.00    -0.073 N 
ATOM      2  H21 UNL     1      22.774  -5.425  12.588  1.00  0.00     0.277 HD
ATOM      3  H22 UNL     1      23.446  -4.135  13.039  1.00  0.00     0.277 HD
ENDROOT
BRANCH   1   4
HETATM    4  C3  UNL     1      24.044  -4.672  11.114  1.00  0.00     0.234 C 
BRANCH   4   5
HETATM    5  C2  UNL     1      25.518  -4.389  10.961  1.00  0.00     0.056 C 
BRANCH   5   6
HETATM    6  C1  UNL     1      25.639  -2.870  10.855  1.00  0.00     0.202 C 
BRANCH   6   7
HETATM    7  O1  UNL     1      24.614  -2.218  11.487  1.00  0.00    -0.287 OA
BRANCH   7   8
HETATM    8  N1  UNL     1      25.163  -1.546  12.546  1.00  0.00    -0.311 N 
ATOM      9  H12 UNL     1      25.485  -1.967  13.418  1.00  0.00     0.184 HD
ATOM     10  H11 UNL     1      25.185  -0.558  12.292  1.00  0.00     0.184 HD
ENDBRANCH   7   8
ENDBRANCH   6   7
ENDBRANCH   5   6
ENDBRANCH   4   5
ENDBRANCH   1   4
BRANCH   1  11
HETATM   11  C4  UNL     1      24.801  -5.733  13.024  1.00  0.00     0.258 C 
BRANCH  11  12
HETATM   12  C5  UNL     1      25.026  -5.486  14.471  1.00  0.00     0.129 C 
HETATM   13  C6  UNL     1      26.212  -4.603  14.769  1.00  0.00     0.159 C 
HETATM   14  S1  UNL     1      27.160  -5.986  14.116  1.00  0.00     0.112 S 
HETATM   15  O2  UNL     1      28.629  -6.206  14.896  1.00  0.00    -0.236 OA
HETATM   16  N3  UNL     1      25.830  -6.592  15.059  1.00  0.00    -0.334 N 
ATOM     17  H3  UNL     1      25.673  -7.358  15.715  1.00  0.00     0.170 HD
ENDBRANCH  11  12
ENDBRANCH   1  11
TORSDOF 7
ENDMDL
MODEL 3
REMARK VINA RESULT: -5.225961777      1.177      1.220
REMARK  7 active torsions:
REMARK  status: ('A' for Active; 'I' for Inactive)
REMARK    1  A    between atoms: N1_1  and  O1_4 
REMARK    2  A    between atoms: O1_4  and  C1_5 
REMARK    3  A    between atoms: C1_5  and  C2_6 
REMARK    4  A    between atoms: C2_6  and  C3_7 
REMARK    5  A    between atoms: C3_7  and  N2_8 
REMARK    6  A    between atoms: N2_8  and  C4_11 
REMARK    7  A    between atoms: C4_11  and  C5_12 
ROOT
HETATM    1  N2  UNL     1      24.379  -4.682  13.094  1.00  0.00    -0.073 N 
ATOM      2  H21 UNL     1      23.732  -4.388  13.825  1.00  0.00     0.277 HD
ATOM      3  H22 UNL     1      25.022  -3.895  13.185  1.00  0.00     0.277 HD
ENDROOT
BRANCH   1   4
HETATM    4  C3  UNL     1      23.771  -4.797  11.780  1.00  0.00     0.234 C 
BRANCH   4   5
HETATM    5  C2  UNL     1      24.732  -4.446  10.671  1.00  0.00     0.056 C 
BRANCH   5   6
HETATM    6  C1  UNL     1      25.384  -3.130  11.090  1.00  0.00     0.202 C 
BRANCH   6   7
HETATM    7  O1  UNL     1      24.465  -2.178  11.441  1.00  0.00    -0.287 OA
BRANCH   7   8
HETATM    8  N1  UNL     1      25.023  -1.439  12.449  1.00  0.00    -0.311 N 
ATOM      9  H12 UNL     1      25.819  -1.718  13.023  1.00  0.00     0.184 HD
ATOM     10  H11 UNL     1      24.492  -0.570  12.510  1.00  0.00     0.184 HD
ENDBRANCH   7   8
ENDBRANCH   6   7
ENDBRANCH   5   6
ENDBRANCH   4   5
ENDBRANCH   1   4
BRANCH   1  11
HETATM   11  C4  UNL     1      24.999  -5.985  13.338  1.00  0.00     0.258 C 
BRANCH  11  12
HETATM   12  C5  UNL     1      26.453  -5.882  13.620  1.00  0.00     0.129 C 
HETATM   13  C6  UNL     1      27.039  -7.100  14.289  1.00  0.00     0.159 C 
HETATM   14  S1  UNL     1      25.997  -6.605  15.670  1.00  0.00     0.112 S 
HETATM   15  O2  UNL     1      26.694  -6.910  17.166  1.00  0.00    -0.236 OA
HETATM   16  N3  UNL     1      26.672  -5.188  14.919  1.00  0.00    -0.334 N 
ATOM     17  H3  UNL     1      27.046  -4.291  15.229  1.00  0.00     0.170 HD
ENDBRANCH  11  12
ENDBRANCH   1  11
TORSDOF 7
ENDMDL
MODEL 4
REMARK VINA RESULT: -5.055054052      2.366      4.889
REMARK  7 active torsions:
REMARK  status: ('A' for Active; 'I' for Inactive)
REMARK    1  A    between atoms: N1_1  and  O1_4 
REMARK    2  A    between atoms: O1_4  and  C1_5 
REMARK    3  A    between atoms: C1_5  and  C2_6 
REMARK    4  A    between atoms: C2_6  and  C3_7 
REMARK    5  A    between atoms: C3_7  and  N2_8 
REMARK    6  A    between atoms: N2_8  and  C4_11 
REMARK    7  A    between atoms: C4_11  and  C5_12 
ROOT
HETATM    1  N2  UNL     1      26.550  -6.271  13.471  1.00  0.00    -0.073 N 
ATOM      2  H21 UNL     1      27.545  -6.482  13.538  1.00  0.00     0.277 HD
ATOM      3  H22 UNL     1      26.469  -5.797  14.371  1.00  0.00     0.277 HD
ENDROOT
BRANCH   1   4
HETATM    4  C3  UNL     1      25.706  -7.448  13.347  1.00  0.00     0.234 C 
BRANCH   4   5
HETATM    5  C2  UNL     1      25.263  -7.978  14.688  1.00  0.00     0.056 C 
BRANCH   5   6
HETATM    6  C1  UNL     1      25.527  -6.852  15.686  1.00  0.00     0.202 C 
BRANCH   6   7
HETATM    7  O1  UNL     1      24.391  -6.154  16.001  1.00  0.00    -0.287 OA
BRANCH   7   8
HETATM    8  N1  UNL     1      24.721  -4.826  15.977  1.00  0.00    -0.311 N 
ATOM      9  H12 UNL     1      25.608  -4.425  16.283  1.00  0.00     0.184 HD
ATOM     10  H11 UNL     1      23.916  -4.327  15.597  1.00  0.00     0.184 HD
ENDBRANCH   7   8
ENDBRANCH   6   7
ENDBRANCH   5   6
ENDBRANCH   4   5
ENDBRANCH   1   4
BRANCH   1  11
HETATM   11  C4  UNL     1      26.196  -5.432  12.325  1.00  0.00     0.258 C 
BRANCH  11  12
HETATM   12  C5  UNL     1      24.752  -5.507  11.987  1.00  0.00     0.129 C 
HETATM   13  C6  UNL     1      24.393  -4.863  10.671  1.00  0.00     0.159 C 
HETATM   14  S1  UNL     1      24.862  -3.341  11.508  1.00  0.00     0.112 S 
HETATM   15  O2  UNL     1      23.927  -2.023  11.055  1.00  0.00    -0.236 OA
HETATM   16  N3  UNL     1      24.020  -4.377  12.624  1.00  0.00    -0.334 N 
ATOM     17  H3  UNL     1      23.337  -4.263  13.373  1.00  0.00     0.170 HD
ENDBRANCH  11  12
ENDBRANCH   1  11
TORSDOF 7
ENDMDL
MODEL 5
REMARK VINA RESULT: -5.035086475      2.831      5.518
REMARK  7 active torsions:
REMARK  status: ('A' for Active; 'I' for Inactive)
REMARK    1  A    between atoms: N1_1  and  O1_4 
REMARK    2  A    between atoms: O1_4  and  C1_5 
REMARK    3  A    between atoms: C1_5  and  C2_6 
REMARK    4  A    between atoms: C2_6  and  C3_7 
REMARK    5  A    between atoms: C3_7  and  N2_8 
REMARK    6  A    between atoms: N2_8  and  C4_11 
REMARK    7  A    between atoms: C4_11  and  C5_12 
ROOT
HETATM    1  N2  UNL     1      24.840  -4.310  14.271  1.00  0.00    -0.073 N 
ATOM      2  H21 UNL     1      24.556  -3.387  14.599  1.00  0.00     0.277 HD
ATOM      3  H22 UNL     1      23.942  -4.770  14.427  1.00  0.00     0.277 HD
ENDROOT
BRANCH   1   4
HETATM    4  C3  UNL     1      25.937  -4.891  15.024  1.00  0.00     0.234 C 
BRANCH   4   5
HETATM    5  C2  UNL     1      26.986  -5.503  14.129  1.00  0.00     0.056 C 
BRANCH   5   6
HETATM    6  C1  UNL     1      27.445  -6.775  14.839  1.00  0.00     0.202 C 
BRANCH   6   7
HETATM    7  O1  UNL     1      28.775  -6.744  15.164  1.00  0.00    -0.287 OA
BRANCH   7   8
HETATM    8  N1  UNL     1      29.181  -8.044  15.304  1.00  0.00    -0.311 N 
ATOM      9  H12 UNL     1      28.650  -8.868  15.024  1.00  0.00     0.184 HD
ATOM     10  H11 UNL     1      30.105  -8.021  15.737  1.00  0.00     0.184 HD
ENDBRANCH   7   8
ENDBRANCH   6   7
ENDBRANCH   5   6
ENDBRANCH   4   5
ENDBRANCH   1   4
BRANCH   1  11
HETATM   11  C4  UNL     1      25.285  -4.334  12.877  1.00  0.00     0.258 C 
BRANCH  11  12
HETATM   12  C5  UNL     1      24.177  -4.619  11.929  1.00  0.00     0.129 C 
HETATM   13  C6  UNL     1      24.632  -5.128  10.584  1.00  0.00     0.159 C 
HETATM   14  S1  UNL     1      25.327  -3.477  10.410  1.00  0.00     0.112 S 
HETATM   15  O2  UNL     1      25.252  -2.893   8.839  1.00  0.00    -0.236 OA
HETATM   16  N3  UNL     1      23.787  -3.374  11.212  1.00  0.00    -0.334 N 
ATOM     17  H3  UNL     1      22.983  -2.746  11.198  1.00  0.00     0.170 HD
ENDBRANCH  11  12
ENDBRANCH   1  11
TORSDOF 7
ENDMDL
