MODEL 1
REMARK VINA RESULT: -7.846117403      0.000      0.000
REMARK  2 active torsions:
REMARK  status: ('A' for Active; 'I' for Inactive)
REMARK    1  A    between atoms: C8_10  and  N2_11 
REMARK    2  A    between atoms: N2_11  and  C9_13 
ROOT
HETATM    1  C1  UNL     1      30.910  -2.856   3.223  1.00  0.00     0.048 C 
HETATM    2  C2  UNL     1      29.816  -1.878   3.510  1.00  0.00    -0.060 A 
HETATM    3  C3  UNL     1      28.555  -2.407   3.687  1.00  0.00     0.007 A 
HETATM    4  C4  UNL     1      27.494  -1.567   3.955  1.00  0.00     0.015 A 
HETATM    5  C5  UNL     1      27.716  -0.210   4.042  1.00  0.00     0.002 A 
HETATM    6  C6  UNL     1      28.970   0.342   3.867  1.00  0.00     0.045 A 
HETATM    7  C7  UNL     1      30.030  -0.524   3.597  1.00  0.00     0.037 A 
HETATM    8  N1  UNL     1      29.199   1.677   3.951  1.00  0.00    -0.341 N 
ATOM      9  H1  UNL     1      30.149   2.022   3.813  1.00  0.00     0.167 HD
HETATM   10  C8  UNL     1      28.227   2.557   4.207  1.00  0.00     0.118 A 
HETATM   11  C14 UNL     1      26.947   2.054   4.390  1.00  0.00     0.019 A 
HETATM   12  C15 UNL     1      25.937   2.967   4.656  1.00  0.00     0.016 A 
HETATM   13  C16 UNL     1      24.670   2.464   4.836  1.00  0.00     0.001 A 
HETATM   14  C17 UNL     1      24.392   1.120   4.761  1.00  0.00     0.001 A 
HETATM   15  C18 UNL     1      25.415   0.192   4.492  1.00  0.00     0.013 A 
HETATM   16  C19 UNL     1      26.681   0.689   4.311  1.00  0.00    -0.010 A 
ENDROOT
BRANCH  10  17
HETATM   17  N2  UNL     1      28.452   3.940   4.295  1.00  0.00    -0.328 N 
ATOM     18  H2  UNL     1      29.382   4.244   4.585  1.00  0.00     0.169 HD
BRANCH  17  19
HETATM   19  C9  UNL     1      27.588   4.854   4.042  1.00  0.00     0.106 A 
HETATM   20  C10 UNL     1      27.043   5.098   2.823  1.00  0.00     0.048 A 
HETATM   21  C11 UNL     1      26.109   6.123   2.667  1.00  0.00     0.005 A 
HETATM   22  C12 UNL     1      25.729   6.900   3.742  1.00  0.00     0.017 A 
HETATM   23  C13 UNL     1      26.305   6.621   4.963  1.00  0.00     0.089 A 
HETATM   24  N3  UNL     1      27.201   5.627   5.084  1.00  0.00    -0.352 N 
ATOM     25  H3  UNL     1      27.608   5.447   6.002  1.00  0.00     0.166 HD
ENDBRANCH  17  19
ENDBRANCH  10  17
TORSDOF 2
ENDMDL
MODEL 2
REMARK VINA RESULT: -6.824228124      1.288      1.453
REMARK  2 active torsions:
REMARK  status: ('A' for Active; 'I' for Inactive)
REMARK    1  A    between atoms: C8_10  and  N2_11 
REMARK    2  A    between atoms: N2_11  and  C9_13 
ROOT
HETATM    1  C1  UNL     1      31.073  -2.783   3.532  1.00  0.00     0.048 C 
HETATM    2  C2  UNL     1      29.869  -1.897   3.536  1.00  0.00    -0.060 A 
HETATM    3  C3  UNL     1      28.843  -2.257   2.687  1.00  0.00     0.007 A 
HETATM    4  C4  UNL     1      27.699  -1.487   2.635  1.00  0.00     0.015 A 
HETATM    5  C5  UNL     1      27.603  -0.369   3.435  1.00  0.00     0.002 A 
HETATM    6  C6  UNL     1      28.618   0.009   4.292  1.00  0.00     0.045 A 
HETATM    7  C7  UNL     1      29.767  -0.781   4.331  1.00  0.00     0.037 A 
HETATM    8  N1  UNL     1      28.532   1.108   5.085  1.00  0.00    -0.341 N 
ATOM      9  H1  UNL     1      29.317   1.333   5.697  1.00  0.00     0.167 HD
HETATM   10  C8  UNL     1      27.460   1.905   5.094  1.00  0.00     0.118 A 
HETATM   11  C14 UNL     1      26.412   1.569   4.250  1.00  0.00     0.019 A 
HETATM   12  C15 UNL     1      25.299   2.395   4.259  1.00  0.00     0.016 A 
HETATM   13  C16 UNL     1      24.261   2.058   3.420  1.00  0.00     0.001 A 
HETATM   14  C17 UNL     1      24.305   0.955   2.601  1.00  0.00     0.001 A 
HETATM   15  C18 UNL     1      25.433   0.115   2.591  1.00  0.00     0.013 A 
HETATM   16  C19 UNL     1      26.470   0.447   3.426  1.00  0.00    -0.010 A 
ENDROOT
BRANCH  10  17
HETATM   17  N2  UNL     1      27.362   3.043   5.909  1.00  0.00    -0.328 N 
ATOM     18  H2  UNL     1      27.441   2.904   6.916  1.00  0.00     0.169 HD
BRANCH  17  19
HETATM   19  C9  UNL     1      27.180   4.244   5.495  1.00  0.00     0.106 A 
HETATM   20  C10 UNL     1      28.151   5.056   5.002  1.00  0.00     0.048 A 
HETATM   21  C11 UNL     1      27.834   6.348   4.580  1.00  0.00     0.005 A 
HETATM   22  C12 UNL     1      26.538   6.817   4.657  1.00  0.00     0.017 A 
HETATM   23  C13 UNL     1      25.582   5.962   5.163  1.00  0.00     0.089 A 
HETATM   24  N3  UNL     1      25.916   4.723   5.561  1.00  0.00    -0.352 N 
ATOM     25  H3  UNL     1      25.183   4.116   5.930  1.00  0.00     0.166 HD
ENDBRANCH  17  19
ENDBRANCH  10  17
TORSDOF 2
ENDMDL
MODEL 3
REMARK VINA RESULT: -6.821690829      0.846      1.147
REMARK  2 active torsions:
REMARK  status: ('A' for Active; 'I' for Inactive)
REMARK    1  A    between atoms: C8_10  and  N2_11 
REMARK    2  A    between atoms: N2_11  and  C9_13 
ROOT
HETATM    1  C1  UNL     1      30.914  -2.715   3.593  1.00  0.00     0.048 C 
HETATM    2  C2  UNL     1      29.764  -1.770   3.726  1.00  0.00    -0.060 A 
HETATM    3  C3  UNL     1      28.609  -2.287   4.276  1.00  0.00     0.007 A 
HETATM    4  C4  UNL     1      27.504  -1.475   4.430  1.00  0.00     0.015 A 
HETATM    5  C5  UNL     1      27.576  -0.158   4.031  1.00  0.00     0.002 A 
HETATM    6  C6  UNL     1      28.722   0.380   3.479  1.00  0.00     0.045 A 
HETATM    7  C7  UNL     1      29.829  -0.456   3.331  1.00  0.00     0.037 A 
HETATM    8  N1  UNL     1      28.802   1.677   3.084  1.00  0.00    -0.341 N 
ATOM      9  H1  UNL     1      29.678   2.014   2.684  1.00  0.00     0.167 HD
HETATM   10  C8  UNL     1      27.779   2.527   3.199  1.00  0.00     0.118 A 
HETATM   11  C14 UNL     1      26.604   2.036   3.747  1.00  0.00     0.019 A 
HETATM   12  C15 UNL     1      25.540   2.918   3.868  1.00  0.00     0.016 A 
HETATM   13  C16 UNL     1      24.377   2.427   4.412  1.00  0.00     0.001 A 
HETATM   14  C17 UNL     1      24.250   1.122   4.826  1.00  0.00     0.001 A 
HETATM   15  C18 UNL     1      25.328   0.225   4.706  1.00  0.00     0.013 A 
HETATM   16  C19 UNL     1      26.490   0.711   4.163  1.00  0.00    -0.010 A 
ENDROOT
BRANCH  10  17
HETATM   17  N2  UNL     1      27.852   3.869   2.793  1.00  0.00    -0.328 N 
ATOM     18  H2  UNL     1      28.286   4.061   1.890  1.00  0.00     0.169 HD
BRANCH  17  19
HETATM   19  C9  UNL     1      27.418   4.875   3.461  1.00  0.00     0.106 A 
HETATM   20  C10 UNL     1      28.044   5.432   4.530  1.00  0.00     0.048 A 
HETATM   21  C11 UNL     1      27.476   6.529   5.180  1.00  0.00     0.005 A 
HETATM   22  C12 UNL     1      26.278   7.060   4.748  1.00  0.00     0.017 A 
HETATM   23  C13 UNL     1      25.675   6.468   3.660  1.00  0.00     0.089 A 
HETATM   24  N3  UNL     1      26.245   5.413   3.053  1.00  0.00    -0.352 N 
ATOM     25  H3  UNL     1      25.772   4.999   2.249  1.00  0.00     0.166 HD
ENDBRANCH  17  19
ENDBRANCH  10  17
TORSDOF 2
ENDMDL
MODEL 4
REMARK VINA RESULT: -6.524015625      1.854      6.735
REMARK  2 active torsions:
REMARK  status: ('A' for Active; 'I' for Inactive)
REMARK    1  A    between atoms: C8_10  and  N2_11 
REMARK    2  A    between atoms: N2_11  and  C9_13 
ROOT
HETATM    1  C1  UNL     1      24.645   7.489   3.294  1.00  0.00     0.048 C 
HETATM    2  C2  UNL     1      25.447   6.335   3.803  1.00  0.00    -0.060 A 
HETATM    3  C3  UNL     1      26.598   6.649   4.495  1.00  0.00     0.007 A 
HETATM    4  C4  UNL     1      27.391   5.636   4.995  1.00  0.00     0.015 A 
HETATM    5  C5  UNL     1      27.016   4.325   4.793  1.00  0.00     0.002 A 
HETATM    6  C6  UNL     1      25.868   3.989   4.102  1.00  0.00     0.045 A 
HETATM    7  C7  UNL     1      25.079   5.026   3.604  1.00  0.00     0.037 A 
HETATM    8  N1  UNL     1      25.491   2.701   3.898  1.00  0.00    -0.341 N 
ATOM      9  H1  UNL     1      24.631   2.518   3.380  1.00  0.00     0.167 HD
HETATM   10  C8  UNL     1      26.202   1.664   4.349  1.00  0.00     0.118 A 
HETATM   11  C14 UNL     1      27.365   1.949   5.049  1.00  0.00     0.019 A 
HETATM   12  C15 UNL     1      28.105   0.873   5.518  1.00  0.00     0.016 A 
HETATM   13  C16 UNL     1      29.258   1.160   6.211  1.00  0.00     0.001 A 
HETATM   14  C17 UNL     1      29.678   2.448   6.442  1.00  0.00     0.001 A 
HETATM   15  C18 UNL     1      28.929   3.541   5.967  1.00  0.00     0.013 A 
HETATM   16  C19 UNL     1      27.779   3.259   5.275  1.00  0.00    -0.010 A 
ENDROOT
BRANCH  10  17
HETATM   17  N2  UNL     1      25.821   0.329   4.143  1.00  0.00    -0.328 N 
ATOM     18  H2  UNL     1      24.823   0.118   4.174  1.00  0.00     0.169 HD
BRANCH  17  19
HETATM   19  C9  UNL     1      26.620  -0.649   3.919  1.00  0.00     0.106 A 
HETATM   20  C10 UNL     1      26.722  -1.766   4.684  1.00  0.00     0.048 A 
HETATM   21  C11 UNL     1      27.631  -2.769   4.341  1.00  0.00     0.005 A 
HETATM   22  C12 UNL     1      28.433  -2.640   3.226  1.00  0.00     0.017 A 
HETATM   23  C13 UNL     1      28.299  -1.492   2.475  1.00  0.00     0.089 A 
HETATM   24  N3  UNL     1      27.416  -0.544   2.829  1.00  0.00    -0.352 N 
ATOM     25  H3  UNL     1      27.342   0.293   2.250  1.00  0.00     0.166 HD
ENDBRANCH  17  19
ENDBRANCH  10  17
TORSDOF 2
ENDMDL
MODEL 5
REMARK VINA RESULT: -6.401338501      1.944      6.714
REMARK  2 active torsions:
REMARK  status: ('A' for Active; 'I' for Inactive)
REMARK    1  A    between atoms: C8_10  and  N2_11 
REMARK    2  A    between atoms: N2_11  and  C9_13 
ROOT
HETATM    1  C1  UNL     1      24.644   7.513   3.336  1.00  0.00     0.048 C 
HETATM    2  C2  UNL     1      25.442   6.352   3.835  1.00  0.00    -0.060 A 
HETATM    3  C3  UNL     1      26.582   6.655   4.549  1.00  0.00     0.007 A 
HETATM    4  C4  UNL     1      27.371   5.636   5.041  1.00  0.00     0.015 A 
HETATM    5  C5  UNL     1      27.003   4.328   4.810  1.00  0.00     0.002 A 
HETATM    6  C6  UNL     1      25.865   4.002   4.098  1.00  0.00     0.045 A 
HETATM    7  C7  UNL     1      25.080   5.046   3.608  1.00  0.00     0.037 A 
HETATM    8  N1  UNL     1      25.493   2.717   3.865  1.00  0.00    -0.341 N 
ATOM      9  H1  UNL     1      24.641   2.542   3.333  1.00  0.00     0.167 HD
HETATM   10  C8  UNL     1      26.201   1.674   4.307  1.00  0.00     0.118 A 
HETATM   11  C14 UNL     1      27.354   1.948   5.028  1.00  0.00     0.019 A 
HETATM   12  C15 UNL     1      28.089   0.866   5.487  1.00  0.00     0.016 A 
HETATM   13  C16 UNL     1      29.232   1.142   6.201  1.00  0.00     0.001 A 
HETATM   14  C17 UNL     1      29.646   2.427   6.461  1.00  0.00     0.001 A 
HETATM   15  C18 UNL     1      28.901   3.527   5.996  1.00  0.00     0.013 A 
HETATM   16  C19 UNL     1      27.761   3.255   5.283  1.00  0.00    -0.010 A 
ENDROOT
BRANCH  10  17
HETATM   17  N2  UNL     1      25.826   0.341   4.072  1.00  0.00    -0.328 N 
ATOM     18  H2  UNL     1      24.829   0.127   4.088  1.00  0.00     0.169 HD
BRANCH  17  19
HETATM   19  C9  UNL     1      26.631  -0.630   3.837  1.00  0.00     0.106 A 
HETATM   20  C10 UNL     1      27.505  -0.687   2.800  1.00  0.00     0.048 A 
HETATM   21  C11 UNL     1      28.335  -1.799   2.645  1.00  0.00     0.005 A 
HETATM   22  C12 UNL     1      28.278  -2.850   3.538  1.00  0.00     0.017 A 
HETATM   23  C13 UNL     1      27.378  -2.754   4.577  1.00  0.00     0.089 A 
HETATM   24  N3  UNL     1      26.592  -1.671   4.702  1.00  0.00    -0.352 N 
ATOM     25  H3  UNL     1      25.937  -1.632   5.483  1.00  0.00     0.166 HD
ENDBRANCH  17  19
ENDBRANCH  10  17
TORSDOF 2
ENDMDL
