MODEL 1
REMARK VINA RESULT: -3.232338867      0.000      0.000
REMARK  1 active torsions:
REMARK  status: ('A' for Active; 'I' for Inactive)
REMARK    1  A    between atoms: C4_5  and  C5_6 
ROOT
HETATM    1  C5  UNL     1      28.458   2.334   4.165  1.00  0.00     0.024 C 
HETATM    2  C6  UNL     1      27.294   2.863   4.078  1.00  0.00    -0.010 A 
HETATM    3  C7  UNL     1      27.138   4.327   4.351  1.00  0.00     0.002 A 
HETATM    4  C8  UNL     1      28.199   5.085   4.719  1.00  0.00     0.014 A 
HETATM    5  C9  UNL     1      28.094   6.459   4.987  1.00  0.00     0.001 A 
HETATM    6  C10 UNL     1      26.854   7.023   4.860  1.00  0.00     0.002 A 
HETATM    7  C11 UNL     1      25.749   6.319   4.493  1.00  0.00     0.030 A 
HETATM    8  C12 UNL     1      25.907   4.954   4.238  1.00  0.00     0.043 A 
HETATM    9  N2  UNL     1      24.759   4.224   3.860  1.00  0.00    -0.355 N 
ATOM     10  H2  UNL     1      23.860   4.698   3.782  1.00  0.00     0.166 HD
HETATM   11  C13 UNL     1      24.848   2.846   3.590  1.00  0.00     0.043 A 
HETATM   12  C14 UNL     1      23.725   2.194   3.210  1.00  0.00     0.030 A 
HETATM   13  C15 UNL     1      23.722   0.848   2.902  1.00  0.00     0.002 A 
HETATM   14  C16 UNL     1      24.882   0.162   2.985  1.00  0.00     0.001 A 
HETATM   15  C17 UNL     1      26.046   0.828   3.380  1.00  0.00     0.014 A 
HETATM   16  C18 UNL     1      26.056   2.181   3.690  1.00  0.00     0.002 A 
ENDROOT
BRANCH   1  17
HETATM   17  C4  UNL     1      29.105   1.069   4.025  1.00  0.00    -0.033 A 
HETATM   18  C3  UNL     1      29.425   0.236   5.075  1.00  0.00     0.028 A 
HETATM   19  C2  UNL     1      29.950  -1.000   4.824  1.00  0.00     0.090 A 
HETATM   20  N1  UNL     1      30.163  -1.427   3.576  1.00  0.00    -0.371 N 
HETATM   21  C1  UNL     1      30.724  -2.730   3.337  1.00  0.00     0.154 C 
HETATM   22  C20 UNL     1      29.869  -0.655   2.505  1.00  0.00     0.090 A 
HETATM   23  C19 UNL     1      29.339   0.595   2.722  1.00  0.00     0.028 A 
ENDBRANCH   1  17
TORSDOF 1
ENDMDL
MODEL 2
REMARK VINA RESULT: -2.046565547      0.332      1.031
REMARK  1 active torsions:
REMARK  status: ('A' for Active; 'I' for Inactive)
REMARK    1  A    between atoms: C4_5  and  C5_6 
ROOT
HETATM    1  C5  UNL     1      28.502   2.121   3.934  1.00  0.00     0.024 C 
HETATM    2  C6  UNL     1      27.366   2.712   3.930  1.00  0.00    -0.010 A 
HETATM    3  C7  UNL     1      27.296   4.160   4.307  1.00  0.00     0.002 A 
HETATM    4  C8  UNL     1      28.408   4.836   4.684  1.00  0.00     0.014 A 
HETATM    5  C9  UNL     1      28.386   6.192   5.049  1.00  0.00     0.001 A 
HETATM    6  C10 UNL     1      27.173   6.824   5.009  1.00  0.00     0.002 A 
HETATM    7  C11 UNL     1      26.020   6.204   4.639  1.00  0.00     0.030 A 
HETATM    8  C12 UNL     1      26.097   4.853   4.286  1.00  0.00     0.043 A 
HETATM    9  N2  UNL     1      24.900   4.210   3.905  1.00  0.00    -0.355 N 
ATOM     10  H2  UNL     1      24.024   4.733   3.895  1.00  0.00     0.166 HD
HETATM   11  C13 UNL     1      24.906   2.851   3.539  1.00  0.00     0.043 A 
HETATM   12  C14 UNL     1      23.738   2.284   3.159  1.00  0.00     0.030 A 
HETATM   13  C15 UNL     1      23.653   0.965   2.761  1.00  0.00     0.002 A 
HETATM   14  C16 UNL     1      24.778   0.218   2.752  1.00  0.00     0.001 A 
HETATM   15  C17 UNL     1      25.988   0.796   3.145  1.00  0.00     0.014 A 
HETATM   16  C18 UNL     1      26.081   2.121   3.546  1.00  0.00     0.002 A 
ENDROOT
BRANCH   1  17
HETATM   17  C4  UNL     1      29.076   0.838   3.683  1.00  0.00    -0.033 A 
HETATM   18  C3  UNL     1      29.747   0.496   2.529  1.00  0.00     0.028 A 
HETATM   19  C2  UNL     1      30.348  -0.727   2.431  1.00  0.00     0.090 A 
HETATM   20  N1  UNL     1      30.305  -1.608   3.435  1.00  0.00    -0.371 N 
HETATM   21  C1  UNL     1      30.940  -2.892   3.306  1.00  0.00     0.154 C 
HETATM   22  C20 UNL     1      29.663  -1.329   4.592  1.00  0.00     0.090 A 
HETATM   23  C19 UNL     1      29.046  -0.107   4.724  1.00  0.00     0.028 A 
ENDBRANCH   1  17
TORSDOF 1
ENDMDL
MODEL 3
REMARK VINA RESULT: -1.552839602      1.693      3.764
REMARK  1 active torsions:
REMARK  status: ('A' for Active; 'I' for Inactive)
REMARK    1  A    between atoms: C4_5  and  C5_6 
ROOT
HETATM    1  C5  UNL     1      26.582   1.064   3.740  1.00  0.00     0.024 C 
HETATM    2  C6  UNL     1      26.584   2.206   4.321  1.00  0.00    -0.010 A 
HETATM    3  C7  UNL     1      25.362   3.068   4.237  1.00  0.00     0.002 A 
HETATM    4  C8  UNL     1      24.276   2.672   3.530  1.00  0.00     0.014 A 
HETATM    5  C9  UNL     1      23.113   3.451   3.424  1.00  0.00     0.001 A 
HETATM    6  C10 UNL     1      23.112   4.654   4.075  1.00  0.00     0.002 A 
HETATM    7  C11 UNL     1      24.168   5.111   4.801  1.00  0.00     0.030 A 
HETATM    8  C12 UNL     1      25.302   4.297   4.876  1.00  0.00     0.043 A 
HETATM    9  N2  UNL     1      26.398   4.772   5.627  1.00  0.00    -0.355 N 
ATOM     10  H2  UNL     1      26.340   5.679   6.090  1.00  0.00     0.166 HD
HETATM   11  C13 UNL     1      27.571   4.003   5.741  1.00  0.00     0.043 A 
HETATM   12  C14 UNL     1      28.586   4.491   6.491  1.00  0.00     0.030 A 
HETATM   13  C15 UNL     1      29.764   3.795   6.679  1.00  0.00     0.002 A 
HETATM   14  C16 UNL     1      29.904   2.588   6.091  1.00  0.00     0.001 A 
HETATM   15  C17 UNL     1      28.861   2.078   5.313  1.00  0.00     0.014 A 
HETATM   16  C18 UNL     1      27.674   2.771   5.121  1.00  0.00     0.002 A 
ENDROOT
BRANCH   1  17
HETATM   17  C4  UNL     1      27.433  -0.060   3.521  1.00  0.00    -0.033 A 
HETATM   18  C3  UNL     1      28.489  -0.079   2.635  1.00  0.00     0.028 A 
HETATM   19  C2  UNL     1      29.305  -1.173   2.576  1.00  0.00     0.090 A 
HETATM   20  N1  UNL     1      29.106  -2.235   3.363  1.00  0.00    -0.371 N 
HETATM   21  C1  UNL     1      29.975  -3.379   3.277  1.00  0.00     0.154 C 
HETATM   22  C20 UNL     1      28.087  -2.275   4.251  1.00  0.00     0.090 A 
HETATM   23  C19 UNL     1      27.246  -1.191   4.336  1.00  0.00     0.028 A 
ENDBRANCH   1  17
TORSDOF 1
ENDMDL
MODEL 4
REMARK VINA RESULT: -0.016872079      2.036      6.906
REMARK  1 active torsions:
REMARK  status: ('A' for Active; 'I' for Inactive)
REMARK    1  A    between atoms: C4_5  and  C5_6 
ROOT
HETATM    1  C5  UNL     1      25.960   1.924   4.009  1.00  0.00     0.024 C 
HETATM    2  C6  UNL     1      26.910   1.252   4.543  1.00  0.00    -0.010 A 
HETATM    3  C7  UNL     1      26.955  -0.232   4.344  1.00  0.00     0.002 A 
HETATM    4  C8  UNL     1      25.989  -0.870   3.640  1.00  0.00     0.014 A 
HETATM    5  C9  UNL     1      25.992  -2.259   3.434  1.00  0.00     0.001 A 
HETATM    6  C10 UNL     1      27.028  -2.964   3.980  1.00  0.00     0.002 A 
HETATM    7  C11 UNL     1      28.030  -2.385   4.697  1.00  0.00     0.030 A 
HETATM    8  C12 UNL     1      27.980  -1.000   4.874  1.00  0.00     0.043 A 
HETATM    9  N2  UNL     1      29.018  -0.399   5.619  1.00  0.00    -0.355 N 
ATOM     10  H2  UNL     1      29.765  -0.977   6.003  1.00  0.00     0.166 HD
HETATM   11  C13 UNL     1      29.028   0.991   5.836  1.00  0.00     0.043 A 
HETATM   12  C14 UNL     1      30.055   1.522   6.537  1.00  0.00     0.030 A 
HETATM   13  C15 UNL     1      30.160   2.878   6.778  1.00  0.00     0.002 A 
HETATM   14  C16 UNL     1      29.202   3.698   6.296  1.00  0.00     0.001 A 
HETATM   15  C17 UNL     1      28.136   3.156   5.572  1.00  0.00     0.014 A 
HETATM   16  C18 UNL     1      28.024   1.795   5.326  1.00  0.00     0.002 A 
ENDROOT
BRANCH   1  17
HETATM   17  C4  UNL     1      25.482   3.265   3.906  1.00  0.00    -0.033 A 
HETATM   18  C3  UNL     1      24.318   3.725   4.482  1.00  0.00     0.028 A 
HETATM   19  C2  UNL     1      24.004   5.053   4.410  1.00  0.00     0.090 A 
HETATM   20  N1  UNL     1      24.805   5.927   3.792  1.00  0.00    -0.371 N 
HETATM   21  C1  UNL     1      24.450   7.319   3.723  1.00  0.00     0.154 C 
HETATM   22  C20 UNL     1      25.960   5.535   3.209  1.00  0.00     0.090 A 
HETATM   23  C19 UNL     1      26.306   4.205   3.262  1.00  0.00     0.028 A 
ENDBRANCH   1  17
TORSDOF 1
ENDMDL
MODEL 5
REMARK VINA RESULT: 0.136911498      1.850      6.840
REMARK  1 active torsions:
REMARK  status: ('A' for Active; 'I' for Inactive)
REMARK    1  A    between atoms: C4_5  and  C5_6 
ROOT
HETATM    1  C5  UNL     1      26.603   2.491   3.409  1.00  0.00     0.024 C 
HETATM    2  C6  UNL     1      27.530   1.833   4.001  1.00  0.00    -0.010 A 
HETATM    3  C7  UNL     1      27.889   0.468   3.497  1.00  0.00     0.002 A 
HETATM    4  C8  UNL     1      27.226  -0.087   2.454  1.00  0.00     0.014 A 
HETATM    5  C9  UNL     1      27.529  -1.363   1.954  1.00  0.00     0.001 A 
HETATM    6  C10 UNL     1      28.542  -2.045   2.570  1.00  0.00     0.002 A 
HETATM    7  C11 UNL     1      29.247  -1.546   3.620  1.00  0.00     0.030 A 
HETATM    8  C12 UNL     1      28.906  -0.271   4.080  1.00  0.00     0.043 A 
HETATM    9  N2  UNL     1      29.637   0.246   5.172  1.00  0.00    -0.355 N 
ATOM     10  H2  UNL     1      30.381  -0.309   5.592  1.00  0.00     0.166 HD
HETATM   11  C13 UNL     1      29.343   1.523   5.685  1.00  0.00     0.043 A 
HETATM   12  C14 UNL     1      30.086   1.985   6.718  1.00  0.00     0.030 A 
HETATM   13  C15 UNL     1      29.885   3.235   7.270  1.00  0.00     0.002 A 
HETATM   14  C16 UNL     1      28.913   4.020   6.759  1.00  0.00     0.001 A 
HETATM   15  C17 UNL     1      28.141   3.549   5.693  1.00  0.00     0.014 A 
HETATM   16  C18 UNL     1      28.337   2.295   5.133  1.00  0.00     0.002 A 
ENDROOT
BRANCH   1  17
HETATM   17  C4  UNL     1      25.918   3.740   3.491  1.00  0.00    -0.033 A 
HETATM   18  C3  UNL     1      24.666   3.909   4.043  1.00  0.00     0.028 A 
HETATM   19  C2  UNL     1      24.142   5.164   4.164  1.00  0.00     0.090 A 
HETATM   20  N1  UNL     1      24.818   6.245   3.759  1.00  0.00    -0.371 N 
HETATM   21  C1  UNL     1      24.242   7.556   3.891  1.00  0.00     0.154 C 
HETATM   22  C20 UNL     1      26.050   6.142   3.211  1.00  0.00     0.090 A 
HETATM   23  C19 UNL     1      26.607   4.892   3.073  1.00  0.00     0.028 A 
ENDBRANCH   1  17
TORSDOF 1
ENDMDL
