MODEL 1
REMARK VINA RESULT: 1.289229930      0.000      0.000
REMARK  0 active torsions:
REMARK  status: ('A' for Active; 'I' for Inactive)
ROOT
HETATM    1  C1  UNL     1      22.775   0.434   1.085  1.00  0.00     0.068 C 
HETATM    2  C2  UNL     1      23.893   0.903   1.948  1.00  0.00     0.008 A 
HETATM    3  C3  UNL     1      23.896   2.098   2.639  1.00  0.00     0.056 A 
HETATM    4  C4  UNL     1      25.122   2.122   3.302  1.00  0.00     0.064 A 
HETATM    5  C5  UNL     1      25.821   0.971   3.010  1.00  0.00     0.088 A 
HETATM    6  N1  UNL     1      25.053   0.248   2.186  1.00  0.00    -0.356 N 
ATOM      7  H1  UNL     1      25.304  -0.660   1.795  1.00  0.00     0.166 HD
HETATM    8  C6  UNL     1      27.155   0.519   3.456  1.00  0.00     0.090 A 
HETATM    9  N2  UNL     1      27.467  -0.684   2.959  1.00  0.00    -0.351 N 
ATOM     10  H2  UNL     1      26.825  -1.190   2.348  1.00  0.00     0.166 HD
HETATM   11  C7  UNL     1      28.681  -1.205   3.306  1.00  0.00     0.059 A 
HETATM   12  C8  UNL     1      29.051  -2.455   2.813  1.00  0.00     0.032 A 
HETATM   13  C9  UNL     1      30.254  -3.054   3.110  1.00  0.00     0.002 A 
HETATM   14  C10 UNL     1      31.095  -2.344   3.939  1.00  0.00     0.002 A 
HETATM   15  C11 UNL     1      30.767  -1.109   4.446  1.00  0.00     0.032 A 
HETATM   16  C12 UNL     1      29.549  -0.526   4.131  1.00  0.00     0.059 A 
HETATM   17  N3  UNL     1      29.212   0.687   4.621  1.00  0.00    -0.352 N 
ATOM     18  H3  UNL     1      29.848   1.200   5.233  1.00  0.00     0.166 HD
HETATM   19  C13 UNL     1      28.020   1.201   4.282  1.00  0.00     0.074 A 
HETATM   20  C14 UNL     1      27.803   2.523   4.895  1.00  0.00     0.020 A 
HETATM   21  C15 UNL     1      28.913   2.857   5.625  1.00  0.00     0.016 A 
HETATM   22  C16 UNL     1      28.957   4.062   6.304  1.00  0.00     0.001 A 
HETATM   23  C17 UNL     1      27.868   4.893   6.218  1.00  0.00     0.002 A 
HETATM   24  C18 UNL     1      26.732   4.593   5.492  1.00  0.00     0.030 A 
HETATM   25  C19 UNL     1      26.728   3.380   4.830  1.00  0.00     0.045 A 
HETATM   26  N4  UNL     1      25.508   3.205   4.131  1.00  0.00    -0.354 N 
ATOM     27  H4  UNL     1      24.822   3.951   4.239  1.00  0.00     0.166 HD
ENDROOT
TORSDOF 0
ENDMDL
MODEL 2
REMARK VINA RESULT: 1.777704560      1.898      5.163
REMARK  0 active torsions:
REMARK  status: ('A' for Active; 'I' for Inactive)
ROOT
HETATM    1  C1  UNL     1      22.557   0.409   0.971  1.00  0.00     0.068 C 
HETATM    2  C2  UNL     1      23.720   0.561   1.887  1.00  0.00     0.008 A 
HETATM    3  C3  UNL     1      24.427  -0.492   2.432  1.00  0.00     0.056 A 
HETATM    4  C4  UNL     1      25.412   0.108   3.214  1.00  0.00     0.064 A 
HETATM    5  C5  UNL     1      25.289   1.478   3.131  1.00  0.00     0.088 A 
HETATM    6  N1  UNL     1      24.254   1.727   2.319  1.00  0.00    -0.356 N 
ATOM      7  H1  UNL     1      23.918   2.656   2.065  1.00  0.00     0.166 HD
HETATM    8  C6  UNL     1      26.081   2.552   3.764  1.00  0.00     0.090 A 
HETATM    9  N2  UNL     1      25.650   3.768   3.407  1.00  0.00    -0.351 N 
ATOM     10  H2  UNL     1      24.863   3.886   2.769  1.00  0.00     0.166 HD
HETATM   11  C7  UNL     1      26.309   4.842   3.934  1.00  0.00     0.059 A 
HETATM   12  C8  UNL     1      25.896   6.129   3.591  1.00  0.00     0.032 A 
HETATM   13  C9  UNL     1      26.502   7.266   4.075  1.00  0.00     0.002 A 
HETATM   14  C10 UNL     1      27.561   7.069   4.932  1.00  0.00     0.002 A 
HETATM   15  C11 UNL     1      27.999   5.817   5.295  1.00  0.00     0.032 A 
HETATM   16  C12 UNL     1      27.372   4.686   4.794  1.00  0.00     0.059 A 
HETATM   17  N3  UNL     1      27.790   3.449   5.141  1.00  0.00    -0.352 N 
ATOM     18  H3  UNL     1      28.576   3.322   5.779  1.00  0.00     0.166 HD
HETATM   19  C13 UNL     1      27.144   2.393   4.625  1.00  0.00     0.074 A 
HETATM   20  C14 UNL     1      27.717   1.120   5.098  1.00  0.00     0.020 A 
HETATM   21  C15 UNL     1      28.746   1.395   5.959  1.00  0.00     0.016 A 
HETATM   22  C16 UNL     1      29.453   0.358   6.545  1.00  0.00     0.001 A 
HETATM   23  C17 UNL     1      29.091  -0.928   6.234  1.00  0.00     0.002 A 
HETATM   24  C18 UNL     1      28.060  -1.246   5.370  1.00  0.00     0.030 A 
HETATM   25  C19 UNL     1      27.380  -0.183   4.808  1.00  0.00     0.045 A 
HETATM   26  N4  UNL     1      26.356  -0.653   3.948  1.00  0.00    -0.354 N 
ATOM     27  H4  UNL     1      26.291  -1.665   3.845  1.00  0.00     0.166 HD
ENDROOT
TORSDOF 0
ENDMDL
MODEL 3
REMARK VINA RESULT: 2.986358213      1.016      4.471
REMARK  0 active torsions:
REMARK  status: ('A' for Active; 'I' for Inactive)
ROOT
HETATM    1  C1  UNL     1      30.100   4.621   7.957  1.00  0.00     0.068 C 
HETATM    2  C2  UNL     1      29.189   3.947   6.993  1.00  0.00     0.008 A 
HETATM    3  C3  UNL     1      27.958   4.439   6.609  1.00  0.00     0.056 A 
HETATM    4  C4  UNL     1      27.463   3.496   5.709  1.00  0.00     0.064 A 
HETATM    5  C5  UNL     1      28.380   2.476   5.567  1.00  0.00     0.088 A 
HETATM    6  N1  UNL     1      29.418   2.774   6.357  1.00  0.00    -0.356 N 
ATOM      7  H1  UNL     1      30.256   2.203   6.465  1.00  0.00     0.166 HD
HETATM    8  C6  UNL     1      28.333   1.253   4.740  1.00  0.00     0.090 A 
HETATM    9  N2  UNL     1      29.446   0.521   4.868  1.00  0.00    -0.351 N 
ATOM     10  H2  UNL     1      30.209   0.816   5.477  1.00  0.00     0.166 HD
HETATM   11  C7  UNL     1      29.515  -0.637   4.147  1.00  0.00     0.059 A 
HETATM   12  C8  UNL     1      30.655  -1.434   4.247  1.00  0.00     0.032 A 
HETATM   13  C9  UNL     1      30.809  -2.615   3.558  1.00  0.00     0.002 A 
HETATM   14  C10 UNL     1      29.760  -2.981   2.744  1.00  0.00     0.002 A 
HETATM   15  C11 UNL     1      28.620  -2.224   2.617  1.00  0.00     0.032 A 
HETATM   16  C12 UNL     1      28.488  -1.037   3.323  1.00  0.00     0.059 A 
HETATM   17  N3  UNL     1      27.374  -0.282   3.210  1.00  0.00    -0.352 N 
ATOM     18  H3  UNL     1      26.605  -0.570   2.603  1.00  0.00     0.166 HD
HETATM   19  C13 UNL     1      27.303   0.856   3.917  1.00  0.00     0.074 A 
HETATM   20  C14 UNL     1      26.032   1.562   3.685  1.00  0.00     0.020 A 
HETATM   21  C15 UNL     1      25.270   0.825   2.818  1.00  0.00     0.016 A 
HETATM   22  C16 UNL     1      24.018   1.278   2.438  1.00  0.00     0.001 A 
HETATM   23  C17 UNL     1      23.579   2.472   2.954  1.00  0.00     0.002 A 
HETATM   24  C18 UNL     1      24.316   3.245   3.831  1.00  0.00     0.030 A 
HETATM   25  C19 UNL     1      25.560   2.756   4.184  1.00  0.00     0.045 A 
HETATM   26  N4  UNL     1      26.201   3.645   5.082  1.00  0.00    -0.354 N 
ATOM     27  H4  UNL     1      25.690   4.499   5.304  1.00  0.00     0.166 HD
ENDROOT
TORSDOF 0
ENDMDL
MODEL 4
REMARK VINA RESULT: 3.385510553      1.808      5.419
REMARK  0 active torsions:
REMARK  status: ('A' for Active; 'I' for Inactive)
ROOT
HETATM    1  C1  UNL     1      24.585   0.250  -0.700  1.00  0.00     0.068 C 
HETATM    2  C2  UNL     1      25.383   0.548   0.519  1.00  0.00     0.008 A 
HETATM    3  C3  UNL     1      26.289  -0.324   1.090  1.00  0.00     0.056 A 
HETATM    4  C4  UNL     1      26.793   0.360   2.195  1.00  0.00     0.064 A 
HETATM    5  C5  UNL     1      26.201   1.602   2.271  1.00  0.00     0.088 A 
HETATM    6  N1  UNL     1      25.349   1.691   1.243  1.00  0.00    -0.356 N 
ATOM      7  H1  UNL     1      24.761   2.499   1.035  1.00  0.00     0.166 HD
HETATM    8  C6  UNL     1      26.389   2.696   3.246  1.00  0.00     0.090 A 
HETATM    9  N2  UNL     1      25.633   3.761   2.954  1.00  0.00    -0.351 N 
ATOM     10  H2  UNL     1      25.016   3.768   2.142  1.00  0.00     0.166 HD
HETATM   11  C7  UNL     1      25.725   4.837   3.789  1.00  0.00     0.059 A 
HETATM   12  C8  UNL     1      24.956   5.971   3.526  1.00  0.00     0.032 A 
HETATM   13  C9  UNL     1      24.986   7.098   4.315  1.00  0.00     0.002 A 
HETATM   14  C10 UNL     1      25.831   7.055   5.401  1.00  0.00     0.002 A 
HETATM   15  C11 UNL     1      26.605   5.957   5.696  1.00  0.00     0.032 A 
HETATM   16  C12 UNL     1      26.557   4.832   4.886  1.00  0.00     0.059 A 
HETATM   17  N3  UNL     1      27.311   3.745   5.161  1.00  0.00    -0.352 N 
ATOM     18  H3  UNL     1      27.931   3.730   5.972  1.00  0.00     0.166 HD
HETATM   19  C13 UNL     1      27.223   2.687   4.342  1.00  0.00     0.074 A 
HETATM   20  C14 UNL     1      28.103   1.588   4.776  1.00  0.00     0.020 A 
HETATM   21  C15 UNL     1      28.748   1.968   5.923  1.00  0.00     0.016 A 
HETATM   22  C16 UNL     1      29.639   1.103   6.535  1.00  0.00     0.001 A 
HETATM   23  C17 UNL     1      29.847  -0.125   5.958  1.00  0.00     0.002 A 
HETATM   24  C18 UNL     1      29.217  -0.546   4.803  1.00  0.00     0.030 A 
HETATM   25  C19 UNL     1      28.336   0.348   4.224  1.00  0.00     0.045 A 
HETATM   26  N4  UNL     1      27.766  -0.210   3.053  1.00  0.00    -0.354 N 
ATOM     27  H4  UNL     1      28.098  -1.140   2.796  1.00  0.00     0.166 HD
ENDROOT
TORSDOF 0
ENDMDL
MODEL 5
REMARK VINA RESULT: 3.572435634      1.933      6.600
REMARK  0 active torsions:
REMARK  status: ('A' for Active; 'I' for Inactive)
ROOT
HETATM    1  C1  UNL     1      30.877  -0.191   7.121  1.00  0.00     0.068 C 
HETATM    2  C2  UNL     1      29.675   0.166   6.320  1.00  0.00     0.008 A 
HETATM    3  C3  UNL     1      28.805  -0.753   5.768  1.00  0.00     0.056 A 
HETATM    4  C4  UNL     1      27.843   0.016   5.115  1.00  0.00     0.064 A 
HETATM    5  C5  UNL     1      28.139   1.352   5.279  1.00  0.00     0.088 A 
HETATM    6  N1  UNL     1      29.256   1.416   6.014  1.00  0.00    -0.356 N 
ATOM      7  H1  UNL     1      29.722   2.277   6.301  1.00  0.00     0.166 HD
HETATM    8  C6  UNL     1      27.439   2.557   4.789  1.00  0.00     0.090 A 
HETATM    9  N2  UNL     1      28.042   3.683   5.189  1.00  0.00    -0.351 N 
ATOM     10  H2  UNL     1      28.884   3.660   5.764  1.00  0.00     0.166 HD
HETATM   11  C7  UNL     1      27.481   4.864   4.794  1.00  0.00     0.059 A 
HETATM   12  C8  UNL     1      28.073   6.064   5.186  1.00  0.00     0.032 A 
HETATM   13  C9  UNL     1      27.576   7.297   4.833  1.00  0.00     0.002 A 
HETATM   14  C10 UNL     1      26.438   7.292   4.057  1.00  0.00     0.002 A 
HETATM   15  C11 UNL     1      25.823   6.131   3.650  1.00  0.00     0.032 A 
HETATM   16  C12 UNL     1      26.344   4.900   4.019  1.00  0.00     0.059 A 
HETATM   17  N3  UNL     1      25.752   3.750   3.626  1.00  0.00    -0.352 N 
ATOM     18  H3  UNL     1      24.910   3.764   3.051  1.00  0.00     0.166 HD
HETATM   19  C13 UNL     1      26.302   2.589   4.014  1.00  0.00     0.074 A 
HETATM   20  C14 UNL     1      25.542   1.432   3.508  1.00  0.00     0.020 A 
HETATM   21  C15 UNL     1      24.492   1.890   2.757  1.00  0.00     0.016 A 
HETATM   22  C16 UNL     1      23.620   0.992   2.166  1.00  0.00     0.001 A 
HETATM   23  C17 UNL     1      23.845  -0.349   2.358  1.00  0.00     0.002 A 
HETATM   24  C18 UNL     1      24.892  -0.850   3.107  1.00  0.00     0.030 A 
HETATM   25  C19 UNL     1      25.738   0.081   3.680  1.00  0.00     0.045 A 
HETATM   26  N4  UNL     1      26.760  -0.570   4.415  1.00  0.00    -0.354 N 
ATOM     27  H4  UNL     1      26.708  -1.588   4.444  1.00  0.00     0.166 HD
ENDROOT
TORSDOF 0
ENDMDL
