MODEL 1
REMARK VINA RESULT: -1.002446132      0.000      0.000
REMARK  2 active torsions:
REMARK  status: ('A' for Active; 'I' for Inactive)
REMARK    1  A    between atoms: C11_17  and  C12_18 
REMARK    2  A    between atoms: C13_19  and  C14_20 
ROOT
HETATM    1  C1  UNL     1      24.335   0.004   2.866  1.00  0.00     0.070 C 
HETATM    2  C2  UNL     1      24.703   1.380   3.259  1.00  0.00     0.026 A 
HETATM    3  N1  UNL     1      23.788   2.355   3.341  1.00  0.00    -0.367 N 
ATOM      4  H1  UNL     1      22.810   2.160   3.131  1.00  0.00     0.165 HD
HETATM    5  C3  UNL     1      24.169   3.595   3.703  1.00  0.00     0.102 A 
HETATM    6  C4  UNL     1      25.471   3.920   3.999  1.00  0.00     0.021 A 
HETATM    7  C5  UNL     1      26.428   2.929   3.920  1.00  0.00     0.066 A 
HETATM    8  N2  UNL     1      27.602   3.487   4.250  1.00  0.00    -0.353 N 
ATOM      9  H2  UNL     1      28.486   2.977   4.276  1.00  0.00     0.166 HD
HETATM   10  C6  UNL     1      27.483   4.792   4.544  1.00  0.00     0.046 A 
HETATM   11  C7  UNL     1      28.339   5.800   4.930  1.00  0.00     0.047 A 
HETATM   12  C8  UNL     1      27.867   7.068   5.157  1.00  0.00     0.090 A 
HETATM   13  N3  UNL     1      26.554   7.307   4.995  1.00  0.00    -0.374 N 
ATOM     14  H3  UNL     1      26.200   8.249   5.163  1.00  0.00     0.164 HD
HETATM   15  C9  UNL     1      25.703   6.357   4.624  1.00  0.00     0.102 A 
HETATM   16  C10 UNL     1      26.125   5.071   4.385  1.00  0.00     0.020 A 
HETATM   17  C11 UNL     1      26.023   1.644   3.543  1.00  0.00     0.067 A 
ENDROOT
BRANCH  17  18
HETATM   18  C12 UNL     1      27.022   0.611   3.460  1.00  0.00    -0.057 C 
HETATM   19  C13 UNL     1      27.868  -0.250   3.411  1.00  0.00    -0.061 C 
BRANCH  19  20
HETATM   20  C14 UNL     1      28.885  -1.268   3.340  1.00  0.00     0.018 A 
HETATM   21  C15 UNL     1      28.518  -2.588   3.622  1.00  0.00     0.020 A 
HETATM   22  C16 UNL     1      29.495  -3.541   3.550  1.00  0.00     0.001 A 
HETATM   23  C17 UNL     1      30.806  -3.282   3.219  1.00  0.00     0.000 A 
HETATM   24  C18 UNL     1      31.144  -1.972   2.945  1.00  0.00     0.001 A 
HETATM   25  C19 UNL     1      30.188  -0.991   3.008  1.00  0.00     0.020 A 
ENDBRANCH  19  20
ENDBRANCH  17  18
TORSDOF 2
ENDMDL
MODEL 2
REMARK VINA RESULT: -0.976982863      0.052      1.012
REMARK  2 active torsions:
REMARK  status: ('A' for Active; 'I' for Inactive)
REMARK    1  A    between atoms: C11_17  and  C12_18 
REMARK    2  A    between atoms: C13_19  and  C14_20 
ROOT
HETATM    1  C1  UNL     1      24.303  -0.007   2.878  1.00  0.00     0.070 C 
HETATM    2  C2  UNL     1      24.676   1.369   3.267  1.00  0.00     0.026 A 
HETATM    3  N1  UNL     1      23.764   2.348   3.350  1.00  0.00    -0.367 N 
ATOM      4  H1  UNL     1      22.785   2.154   3.144  1.00  0.00     0.165 HD
HETATM    5  C3  UNL     1      24.150   3.587   3.707  1.00  0.00     0.102 A 
HETATM    6  C4  UNL     1      25.454   3.909   3.997  1.00  0.00     0.021 A 
HETATM    7  C5  UNL     1      26.407   2.915   3.917  1.00  0.00     0.066 A 
HETATM    8  N2  UNL     1      27.585   3.470   4.242  1.00  0.00    -0.353 N 
ATOM      9  H2  UNL     1      28.467   2.958   4.265  1.00  0.00     0.166 HD
HETATM   10  C6  UNL     1      27.470   4.776   4.533  1.00  0.00     0.046 A 
HETATM   11  C7  UNL     1      28.331   5.783   4.913  1.00  0.00     0.047 A 
HETATM   12  C8  UNL     1      27.863   7.053   5.138  1.00  0.00     0.090 A 
HETATM   13  N3  UNL     1      26.550   7.295   4.981  1.00  0.00    -0.374 N 
ATOM     14  H3  UNL     1      26.199   8.238   5.147  1.00  0.00     0.164 HD
HETATM   15  C9  UNL     1      25.695   6.347   4.615  1.00  0.00     0.102 A 
HETATM   16  C10 UNL     1      26.113   5.059   4.378  1.00  0.00     0.020 A 
HETATM   17  C11 UNL     1      25.998   1.630   3.545  1.00  0.00     0.067 A 
ENDROOT
BRANCH  17  18
HETATM   18  C12 UNL     1      26.994   0.594   3.461  1.00  0.00    -0.057 C 
HETATM   19  C13 UNL     1      27.837  -0.269   3.410  1.00  0.00    -0.061 C 
BRANCH  19  20
HETATM   20  C14 UNL     1      28.852  -1.289   3.337  1.00  0.00     0.018 A 
HETATM   21  C15 UNL     1      30.143  -0.909   2.957  1.00  0.00     0.020 A 
HETATM   22  C16 UNL     1      31.094  -1.889   2.893  1.00  0.00     0.001 A 
HETATM   23  C17 UNL     1      30.858  -3.216   3.178  1.00  0.00     0.000 A 
HETATM   24  C18 UNL     1      29.576  -3.566   3.551  1.00  0.00     0.001 A 
HETATM   25  C19 UNL     1      28.599  -2.607   3.625  1.00  0.00     0.020 A 
ENDBRANCH  19  20
ENDBRANCH  17  18
TORSDOF 2
ENDMDL
MODEL 3
REMARK VINA RESULT: 0.653944362      2.469      7.279
REMARK  2 active torsions:
REMARK  status: ('A' for Active; 'I' for Inactive)
REMARK    1  A    between atoms: C11_17  and  C12_18 
REMARK    2  A    between atoms: C13_19  and  C14_20 
ROOT
HETATM    1  C1  UNL     1      24.584   0.743   5.778  1.00  0.00     0.070 C 
HETATM    2  C2  UNL     1      25.769   0.076   5.198  1.00  0.00     0.026 A 
HETATM    3  N1  UNL     1      26.027  -1.219   5.423  1.00  0.00    -0.367 N 
ATOM      4  H1  UNL     1      25.401  -1.772   6.006  1.00  0.00     0.165 HD
HETATM    5  C3  UNL     1      27.118  -1.784   4.875  1.00  0.00     0.102 A 
HETATM    6  C4  UNL     1      28.000  -1.091   4.080  1.00  0.00     0.021 A 
HETATM    7  C5  UNL     1      27.751   0.244   3.837  1.00  0.00     0.066 A 
HETATM    8  N2  UNL     1      28.739   0.692   3.047  1.00  0.00    -0.353 N 
ATOM      9  H2  UNL     1      28.804   1.653   2.709  1.00  0.00     0.166 HD
HETATM   10  C6  UNL     1      29.630  -0.267   2.751  1.00  0.00     0.046 A 
HETATM   11  C7  UNL     1      30.788  -0.345   2.008  1.00  0.00     0.047 A 
HETATM   12  C8  UNL     1      31.478  -1.527   1.912  1.00  0.00     0.090 A 
HETATM   13  N3  UNL     1      31.002  -2.606   2.557  1.00  0.00    -0.374 N 
ATOM     14  H3  UNL     1      31.513  -3.487   2.488  1.00  0.00     0.164 HD
HETATM   15  C9  UNL     1      29.889  -2.564   3.281  1.00  0.00     0.102 A 
HETATM   16  C10 UNL     1      29.162  -1.406   3.407  1.00  0.00     0.020 A 
HETATM   17  C11 UNL     1      26.615   0.824   4.411  1.00  0.00     0.067 A 
ENDROOT
BRANCH  17  18
HETATM   18  C12 UNL     1      26.357   2.217   4.157  1.00  0.00    -0.057 C 
HETATM   19  C13 UNL     1      26.136   3.389   3.965  1.00  0.00    -0.061 C 
BRANCH  19  20
HETATM   20  C14 UNL     1      25.858   4.782   3.728  1.00  0.00     0.018 A 
HETATM   21  C15 UNL     1      24.930   5.420   4.558  1.00  0.00     0.020 A 
HETATM   22  C16 UNL     1      24.678   6.743   4.320  1.00  0.00     0.001 A 
HETATM   23  C17 UNL     1      25.279   7.477   3.321  1.00  0.00     0.000 A 
HETATM   24  C18 UNL     1      26.189   6.825   2.515  1.00  0.00     0.001 A 
HETATM   25  C19 UNL     1      26.466   5.499   2.727  1.00  0.00     0.020 A 
ENDBRANCH  19  20
ENDBRANCH  17  18
TORSDOF 2
ENDMDL
MODEL 4
REMARK VINA RESULT: 1.619059480      1.569      1.690
REMARK  2 active torsions:
REMARK  status: ('A' for Active; 'I' for Inactive)
REMARK    1  A    between atoms: C11_17  and  C12_18 
REMARK    2  A    between atoms: C13_19  and  C14_20 
ROOT
HETATM    1  C1  UNL     1      25.315  -0.238   5.633  1.00  0.00     0.070 C 
HETATM    2  C2  UNL     1      25.209   1.191   5.272  1.00  0.00     0.026 A 
HETATM    3  N1  UNL     1      24.200   1.954   5.713  1.00  0.00    -0.367 N 
ATOM      4  H1  UNL     1      23.479   1.555   6.313  1.00  0.00     0.165 HD
HETATM    5  C3  UNL     1      24.142   3.251   5.358  1.00  0.00     0.102 A 
HETATM    6  C4  UNL     1      25.083   3.848   4.552  1.00  0.00     0.021 A 
HETATM    7  C5  UNL     1      26.130   3.078   4.088  1.00  0.00     0.066 A 
HETATM    8  N2  UNL     1      26.901   3.876   3.333  1.00  0.00    -0.353 N 
ATOM      9  H2  UNL     1      27.751   3.564   2.863  1.00  0.00     0.166 HD
HETATM   10  C6  UNL     1      26.428   5.131   3.268  1.00  0.00     0.046 A 
HETATM   11  C7  UNL     1      26.816   6.302   2.655  1.00  0.00     0.047 A 
HETATM   12  C8  UNL     1      26.073   7.446   2.804  1.00  0.00     0.090 A 
HETATM   13  N3  UNL     1      24.961   7.401   3.557  1.00  0.00    -0.374 N 
ATOM     14  H3  UNL     1      24.406   8.250   3.669  1.00  0.00     0.164 HD
HETATM   15  C9  UNL     1      24.560   6.288   4.160  1.00  0.00     0.102 A 
HETATM   16  C10 UNL     1      25.268   5.116   4.044  1.00  0.00     0.020 A 
HETATM   17  C11 UNL     1      26.181   1.732   4.462  1.00  0.00     0.067 A 
ENDROOT
BRANCH  17  18
HETATM   18  C12 UNL     1      27.274   0.930   3.976  1.00  0.00    -0.057 C 
HETATM   19  C13 UNL     1      28.181   0.240   3.577  1.00  0.00    -0.061 C 
BRANCH  19  20
HETATM   20  C14 UNL     1      29.273  -0.577   3.113  1.00  0.00     0.018 A 
HETATM   21  C15 UNL     1      29.478  -1.817   3.729  1.00  0.00     0.020 A 
HETATM   22  C16 UNL     1      30.518  -2.580   3.276  1.00  0.00     0.001 A 
HETATM   23  C17 UNL     1      31.368  -2.204   2.260  1.00  0.00     0.000 A 
HETATM   24  C18 UNL     1      31.147  -0.977   1.669  1.00  0.00     0.001 A 
HETATM   25  C19 UNL     1      30.112  -0.186   2.099  1.00  0.00     0.020 A 
ENDBRANCH  19  20
ENDBRANCH  17  18
TORSDOF 2
ENDMDL
MODEL 5
REMARK VINA RESULT: 2.034583413      1.682      3.453
REMARK  2 active torsions:
REMARK  status: ('A' for Active; 'I' for Inactive)
REMARK    1  A    between atoms: C11_17  and  C12_18 
REMARK    2  A    between atoms: C13_19  and  C14_20 
ROOT
HETATM    1  C1  UNL     1      30.696   3.112   5.420  1.00  0.00     0.070 C 
HETATM    2  C2  UNL     1      29.313   3.603   5.244  1.00  0.00     0.026 A 
HETATM    3  N1  UNL     1      28.977   4.870   5.520  1.00  0.00    -0.367 N 
ATOM      4  H1  UNL     1      29.680   5.525   5.859  1.00  0.00     0.165 HD
HETATM    5  C3  UNL     1      27.704   5.273   5.346  1.00  0.00     0.102 A 
HETATM    6  C4  UNL     1      26.711   4.438   4.892  1.00  0.00     0.021 A 
HETATM    7  C5  UNL     1      27.038   3.129   4.603  1.00  0.00     0.066 A 
HETATM    8  N2  UNL     1      25.915   2.526   4.184  1.00  0.00    -0.353 N 
ATOM      9  H2  UNL     1      25.869   1.546   3.901  1.00  0.00     0.166 HD
HETATM   10  C6  UNL     1      24.861   3.357   4.178  1.00  0.00     0.046 A 
HETATM   11  C7  UNL     1      23.526   3.257   3.850  1.00  0.00     0.047 A 
HETATM   12  C8  UNL     1      22.697   4.344   3.964  1.00  0.00     0.090 A 
HETATM   13  N3  UNL     1      23.211   5.507   4.401  1.00  0.00    -0.374 N 
ATOM     14  H3  UNL     1      22.597   6.316   4.488  1.00  0.00     0.164 HD
HETATM   15  C9  UNL     1      24.493   5.635   4.725  1.00  0.00     0.102 A 
HETATM   16  C10 UNL     1      25.365   4.578   4.628  1.00  0.00     0.020 A 
HETATM   17  C11 UNL     1      28.363   2.719   4.787  1.00  0.00     0.067 A 
ENDROOT
BRANCH  17  18
HETATM   18  C12 UNL     1      28.702   1.353   4.485  1.00  0.00    -0.057 C 
HETATM   19  C13 UNL     1      28.994   0.213   4.214  1.00  0.00    -0.061 C 
BRANCH  19  20
HETATM   20  C14 UNL     1      29.326  -1.150   3.887  1.00  0.00     0.018 A 
HETATM   21  C15 UNL     1      28.294  -2.095   3.870  1.00  0.00     0.020 A 
HETATM   22  C16 UNL     1      28.626  -3.384   3.558  1.00  0.00     0.001 A 
HETATM   23  C17 UNL     1      29.904  -3.803   3.261  1.00  0.00     0.000 A 
HETATM   24  C18 UNL     1      30.905  -2.853   3.285  1.00  0.00     0.001 A 
HETATM   25  C19 UNL     1      30.606  -1.551   3.594  1.00  0.00     0.020 A 
ENDBRANCH  19  20
ENDBRANCH  17  18
TORSDOF 2
ENDMDL
