MODEL 1
REMARK VINA RESULT: -8.528975769      0.000      0.000
REMARK  9 active torsions:
REMARK  status: ('A' for Active; 'I' for Inactive)
REMARK    1  A    between atoms: C2_3  and  O1_4 
REMARK    2  A    between atoms: C3_6  and  O2_7 
REMARK    3  A    between atoms: C4_9  and  N2_10 
REMARK       I    between atoms: N2_10  and  C5_12 
REMARK    4  A    between atoms: C5_12  and  C6_14 
REMARK    5  A    between atoms: C6_14  and  N3_15 
REMARK    6  A    between atoms: N3_15  and  N4_17 
REMARK    7  A    between atoms: N5_19  and  N6_20 
REMARK    8  A    between atoms: C16_33  and  C17_34 
REMARK    9  A    between atoms: C18_37  and  O7_38 
ROOT
HETATM    1  N4  UNL     1      -9.321   3.314  55.493  1.00  0.00    -0.298 N 
HETATM    2  C7  UNL     1      -8.136   2.515  55.435  1.00  0.00     0.262 C 
HETATM    3  N5  UNL     1      -7.051   3.431  55.053  1.00  0.00    -0.184 NA
HETATM    4  C8  UNL     1      -7.520   4.660  55.585  1.00  0.00     0.053 C 
HETATM    5  C9  UNL     1      -6.768   5.870  55.446  1.00  0.00    -0.012 A 
HETATM    6  C10 UNL     1      -6.183   6.309  54.277  1.00  0.00     0.016 A 
HETATM    7  C11 UNL     1      -5.472   7.495  54.256  1.00  0.00     0.040 A 
HETATM    8  C12 UNL     1      -5.320   8.286  55.403  1.00  0.00     0.105 A 
HETATM    9  C13 UNL     1      -5.896   7.866  56.576  1.00  0.00     0.105 A 
HETATM   10  C14 UNL     1      -6.588   6.701  56.575  1.00  0.00     0.053 A 
HETATM   11  O4  UNL     1      -5.627   8.786  57.579  1.00  0.00    -0.323 OA
HETATM   12  C15 UNL     1      -4.634   9.658  57.050  1.00  0.00     0.352 C 
HETATM   13  O5  UNL     1      -4.682   9.475  55.651  1.00  0.00    -0.323 OA
HETATM   14  C16 UNL     1      -9.002   4.688  55.276  1.00  0.00     0.239 C 
ENDROOT
BRANCH   1  15
HETATM   15  N3  UNL     1     -10.212   3.009  56.486  1.00  0.00    -0.328 N 
ATOM     16  H3  UNL     1     -11.187   3.307  56.443  1.00  0.00     0.180 HD
BRANCH  15  17
HETATM   17  C6  UNL     1      -9.710   2.258  57.578  1.00  0.00     0.242 C 
BRANCH  17  18
HETATM   18  C5  UNL     1     -10.782   1.410  58.143  1.00  0.00     0.241 C 
HETATM   19  N2  UNL     1     -12.130   1.628  57.823  1.00  0.00    -0.320 N 
ATOM     20  H2  UNL     1     -12.376   2.386  57.187  1.00  0.00     0.169 HD
HETATM   21  O3  UNL     1     -10.502   0.445  58.943  1.00  0.00    -0.271 OA
BRANCH  19  22
HETATM   22  C4  UNL     1     -13.178   0.797  58.377  1.00  0.00     0.124 A 
HETATM   23  C3  UNL     1     -14.101   0.169  57.572  1.00  0.00     0.148 A 
HETATM   24  C2  UNL     1     -14.938  -0.527  58.426  1.00  0.00     0.180 A 
HETATM   25  N1  UNL     1     -14.515  -0.307  59.686  1.00  0.00    -0.309 N 
HETATM   26  C1  UNL     1     -15.128  -0.860  60.884  1.00  0.00     0.161 C 
HETATM   27  C18 UNL     1     -13.439   0.500  59.686  1.00  0.00     0.174 A 
BRANCH  23  28
HETATM   28  O2  UNL     1     -14.197   0.205  56.189  1.00  0.00    -0.355 OA
ATOM     29  H2  UNL     1     -13.928   0.925  55.631  1.00  0.00     0.218 HD
ENDBRANCH  23  28
BRANCH  24  30
HETATM   30  O1  UNL     1     -16.015  -1.301  58.002  1.00  0.00    -0.344 OA
ATOM     31  H1  UNL     1     -16.845  -1.007  57.642  1.00  0.00     0.219 HD
ENDBRANCH  24  30
BRANCH  27  32
HETATM   32  O7  UNL     1     -12.713   0.959  60.785  1.00  0.00    -0.344 OA
ATOM     33  H7  UNL     1     -12.208   1.761  60.857  1.00  0.00     0.219 HD
ENDBRANCH  27  32
ENDBRANCH  19  22
ENDBRANCH  17  18
ENDBRANCH  15  17
ENDBRANCH   1  15
BRANCH  14  34
HETATM   34  C17 UNL     1      -9.367   5.031  53.909  1.00  0.00     0.261 C 
HETATM   35  N7  UNL     1     -10.259   6.098  53.619  1.00  0.00    -0.060 NA
HETATM   36  O6  UNL     1      -8.917   4.405  52.915  1.00  0.00    -0.274 OA
ENDBRANCH  14  34
BRANCH   3  37
HETATM   37  N6  UNL     1      -6.744   3.351  53.732  1.00  0.00    -0.357 NA
ATOM     38  H62 UNL     1      -6.246   2.532  53.384  1.00  0.00     0.171 HD
ATOM     39  H61 UNL     1      -6.130   4.106  53.427  1.00  0.00     0.171 HD
ENDBRANCH   3  37
TORSDOF 9
ENDMDL
MODEL 2
REMARK VINA RESULT: -7.970636982      2.409      9.930
REMARK  9 active torsions:
REMARK  status: ('A' for Active; 'I' for Inactive)
REMARK    1  A    between atoms: C2_3  and  O1_4 
REMARK    2  A    between atoms: C3_6  and  O2_7 
REMARK    3  A    between atoms: C4_9  and  N2_10 
REMARK       I    between atoms: N2_10  and  C5_12 
REMARK    4  A    between atoms: C5_12  and  C6_14 
REMARK    5  A    between atoms: C6_14  and  N3_15 
REMARK    6  A    between atoms: N3_15  and  N4_17 
REMARK    7  A    between atoms: N5_19  and  N6_20 
REMARK    8  A    between atoms: C16_33  and  C17_34 
REMARK    9  A    between atoms: C18_37  and  O7_38 
ROOT
HETATM    1  N4  UNL     1      -8.798   3.134  57.979  1.00  0.00    -0.298 N 
HETATM    2  C7  UNL     1      -8.147   1.866  58.099  1.00  0.00     0.262 C 
HETATM    3  N5  UNL     1      -9.095   0.991  58.806  1.00  0.00    -0.184 NA
HETATM    4  C8  UNL     1     -10.339   1.553  58.417  1.00  0.00     0.053 C 
HETATM    5  C9  UNL     1     -11.580   1.013  58.881  1.00  0.00    -0.012 A 
HETATM    6  C10 UNL     1     -11.856   0.672  60.188  1.00  0.00     0.016 A 
HETATM    7  C11 UNL     1     -13.092   0.151  60.526  1.00  0.00     0.040 A 
HETATM    8  C12 UNL     1     -14.098  -0.049  59.570  1.00  0.00     0.105 A 
HETATM    9  C13 UNL     1     -13.841   0.285  58.264  1.00  0.00     0.105 A 
HETATM   10  C14 UNL     1     -12.625   0.794  57.953  1.00  0.00     0.053 A 
HETATM   11  O4  UNL     1     -14.959   0.012  57.488  1.00  0.00    -0.323 OA
HETATM   12  C15 UNL     1     -15.825  -0.758  58.315  1.00  0.00     0.352 C 
HETATM   13  O5  UNL     1     -15.378  -0.536  59.635  1.00  0.00    -0.323 OA
HETATM   14  C16 UNL     1     -10.135   3.052  58.473  1.00  0.00     0.239 C 
ENDROOT
BRANCH   1  15
HETATM   15  N3  UNL     1      -8.584   3.819  56.813  1.00  0.00    -0.328 N 
ATOM     16  H3  UNL     1      -8.848   4.799  56.710  1.00  0.00     0.180 HD
BRANCH  15  17
HETATM   17  C6  UNL     1      -7.976   3.096  55.756  1.00  0.00     0.242 C 
BRANCH  17  18
HETATM   18  C5  UNL     1      -7.262   4.025  54.854  1.00  0.00     0.241 C 
HETATM   19  N2  UNL     1      -7.161   5.392  55.146  1.00  0.00    -0.320 N 
ATOM     20  H2  UNL     1      -7.589   5.754  55.999  1.00  0.00     0.169 HD
HETATM   21  O3  UNL     1      -6.712   3.597  53.775  1.00  0.00    -0.271 OA
BRANCH  19  22
HETATM   22  C4  UNL     1      -6.463   6.301  54.262  1.00  0.00     0.124 A 
HETATM   23  C3  UNL     1      -7.122   6.988  53.268  1.00  0.00     0.148 A 
HETATM   24  C2  UNL     1      -6.159   7.749  52.630  1.00  0.00     0.180 A 
HETATM   25  N1  UNL     1      -4.979   7.510  53.234  1.00  0.00    -0.309 N 
HETATM   26  C1  UNL     1      -3.709   8.116  52.863  1.00  0.00     0.161 C 
HETATM   27  C18 UNL     1      -5.135   6.627  54.237  1.00  0.00     0.174 A 
BRANCH  23  28
HETATM   28  O2  UNL     1      -8.471   6.947  52.947  1.00  0.00    -0.355 OA
ATOM     29  H2  UNL     1      -8.862   6.436  52.248  1.00  0.00     0.218 HD
ENDBRANCH  23  28
BRANCH  24  30
HETATM   30  O1  UNL     1      -6.420   8.596  51.555  1.00  0.00    -0.344 OA
ATOM     31  H1  UNL     1      -6.459   9.546  51.551  1.00  0.00     0.219 HD
ENDBRANCH  24  30
BRANCH  27  32
HETATM   32  O7  UNL     1      -4.158   6.126  55.097  1.00  0.00    -0.344 OA
ATOM     33  H7  UNL     1      -3.921   5.217  55.245  1.00  0.00     0.219 HD
ENDBRANCH  27  32
ENDBRANCH  19  22
ENDBRANCH  17  18
ENDBRANCH  15  17
ENDBRANCH   1  15
BRANCH  14  34
HETATM   34  C17 UNL     1     -10.169   3.656  59.797  1.00  0.00     0.261 C 
HETATM   35  N7  UNL     1      -9.775   5.003  60.014  1.00  0.00    -0.060 NA
HETATM   36  O6  UNL     1     -10.546   3.022  60.817  1.00  0.00    -0.274 OA
ENDBRANCH  14  34
BRANCH   3  37
HETATM   37  N6  UNL     1      -8.804   0.870  60.128  1.00  0.00    -0.357 NA
ATOM     38  H62 UNL     1      -8.137   1.514  60.553  1.00  0.00     0.171 HD
ATOM     39  H61 UNL     1      -8.386  -0.032  60.354  1.00  0.00     0.171 HD
ENDBRANCH   3  37
TORSDOF 9
ENDMDL
MODEL 3
REMARK VINA RESULT: -7.950685344      0.996      1.045
REMARK  9 active torsions:
REMARK  status: ('A' for Active; 'I' for Inactive)
REMARK    1  A    between atoms: C2_3  and  O1_4 
REMARK    2  A    between atoms: C3_6  and  O2_7 
REMARK    3  A    between atoms: C4_9  and  N2_10 
REMARK       I    between atoms: N2_10  and  C5_12 
REMARK    4  A    between atoms: C5_12  and  C6_14 
REMARK    5  A    between atoms: C6_14  and  N3_15 
REMARK    6  A    between atoms: N3_15  and  N4_17 
REMARK    7  A    between atoms: N5_19  and  N6_20 
REMARK    8  A    between atoms: C16_33  and  C17_34 
REMARK    9  A    between atoms: C18_37  and  O7_38 
ROOT
HETATM    1  N4  UNL     1      -9.271   3.135  55.441  1.00  0.00    -0.298 N 
HETATM    2  C7  UNL     1      -8.049   2.400  55.326  1.00  0.00     0.262 C 
HETATM    3  N5  UNL     1      -7.014   3.388  54.987  1.00  0.00    -0.184 NA
HETATM    4  C8  UNL     1      -7.536   4.560  55.594  1.00  0.00     0.053 C 
HETATM    5  C9  UNL     1      -6.845   5.811  55.519  1.00  0.00    -0.012 A 
HETATM    6  C10 UNL     1      -6.296   6.344  54.371  1.00  0.00     0.016 A 
HETATM    7  C11 UNL     1      -5.643   7.563  54.413  1.00  0.00     0.040 A 
HETATM    8  C12 UNL     1      -5.514   8.293  55.603  1.00  0.00     0.105 A 
HETATM    9  C13 UNL     1      -6.055   7.778  56.754  1.00  0.00     0.105 A 
HETATM   10  C14 UNL     1      -6.690   6.583  56.693  1.00  0.00     0.053 A 
HETATM   11  O4  UNL     1      -5.818   8.651  57.807  1.00  0.00    -0.323 OA
HETATM   12  C15 UNL     1      -4.874   9.599  57.320  1.00  0.00     0.352 C 
HETATM   13  O5  UNL     1      -4.932   9.496  55.913  1.00  0.00    -0.323 OA
HETATM   14  C16 UNL     1      -9.020   4.534  55.302  1.00  0.00     0.239 C 
ENDROOT
BRANCH   1  15
HETATM   15  N3  UNL     1     -10.133   2.730  56.424  1.00  0.00    -0.328 N 
ATOM     16  H3  UNL     1     -11.134   2.632  56.253  1.00  0.00     0.180 HD
BRANCH  15  17
HETATM   17  C6  UNL     1      -9.564   2.454  57.692  1.00  0.00     0.242 C 
BRANCH  17  18
HETATM   18  C5  UNL     1     -10.618   2.025  58.637  1.00  0.00     0.241 C 
HETATM   19  N2  UNL     1     -11.400   0.888  58.390  1.00  0.00    -0.320 N 
ATOM     20  H2  UNL     1     -11.239   0.345  57.542  1.00  0.00     0.169 HD
HETATM   21  O3  UNL     1     -10.841   2.688  59.714  1.00  0.00    -0.271 OA
BRANCH  19  22
HETATM   22  C4  UNL     1     -12.433   0.471  59.314  1.00  0.00     0.124 A 
HETATM   23  C3  UNL     1     -13.736   0.298  58.909  1.00  0.00     0.148 A 
HETATM   24  C2  UNL     1     -14.435  -0.097  60.036  1.00  0.00     0.180 A 
HETATM   25  N1  UNL     1     -13.564  -0.151  61.063  1.00  0.00    -0.309 N 
HETATM   26  C1  UNL     1     -13.899  -0.526  62.427  1.00  0.00     0.161 C 
HETATM   27  C18 UNL     1     -12.330   0.192  60.650  1.00  0.00     0.174 A 
BRANCH  23  28
HETATM   28  O2  UNL     1     -14.270   0.476  57.642  1.00  0.00    -0.355 OA
ATOM     29  H2  UNL     1     -13.809   0.351  56.820  1.00  0.00     0.218 HD
ENDBRANCH  23  28
BRANCH  24  30
HETATM   30  O1  UNL     1     -15.800  -0.376  60.049  1.00  0.00    -0.344 OA
ATOM     31  H1  UNL     1     -16.516   0.180  59.764  1.00  0.00     0.219 HD
ENDBRANCH  24  30
BRANCH  27  32
HETATM   32  O7  UNL     1     -11.161   0.258  61.408  1.00  0.00    -0.344 OA
ATOM     33  H7  UNL     1     -10.314  -0.123  61.208  1.00  0.00     0.219 HD
ENDBRANCH  27  32
ENDBRANCH  19  22
ENDBRANCH  17  18
ENDBRANCH  15  17
ENDBRANCH   1  15
BRANCH  14  34
HETATM   34  C17 UNL     1      -9.419   4.937  53.962  1.00  0.00     0.261 C 
HETATM   35  N7  UNL     1     -10.323   6.010  53.742  1.00  0.00    -0.060 NA
HETATM   36  O6  UNL     1      -8.989   4.360  52.929  1.00  0.00    -0.274 OA
ENDBRANCH  14  34
BRANCH   3  37
HETATM   37  N6  UNL     1      -6.721   3.399  53.660  1.00  0.00    -0.357 NA
ATOM     38  H62 UNL     1      -5.788   3.127  53.353  1.00  0.00     0.171 HD
ATOM     39  H61 UNL     1      -6.806   4.329  53.250  1.00  0.00     0.171 HD
ENDBRANCH   3  37
TORSDOF 9
ENDMDL
MODEL 4
REMARK VINA RESULT: -7.942724367      2.498      9.298
REMARK  9 active torsions:
REMARK  status: ('A' for Active; 'I' for Inactive)
REMARK    1  A    between atoms: C2_3  and  O1_4 
REMARK    2  A    between atoms: C3_6  and  O2_7 
REMARK    3  A    between atoms: C4_9  and  N2_10 
REMARK       I    between atoms: N2_10  and  C5_12 
REMARK    4  A    between atoms: C5_12  and  C6_14 
REMARK    5  A    between atoms: C6_14  and  N3_15 
REMARK    6  A    between atoms: N3_15  and  N4_17 
REMARK    7  A    between atoms: N5_19  and  N6_20 
REMARK    8  A    between atoms: C16_33  and  C17_34 
REMARK    9  A    between atoms: C18_37  and  O7_38 
ROOT
HETATM    1  N4  UNL     1      -9.490   1.702  60.750  1.00  0.00    -0.298 N 
HETATM    2  C7  UNL     1      -9.120   0.333  60.563  1.00  0.00     0.262 C 
HETATM    3  N5  UNL     1     -10.374  -0.393  60.311  1.00  0.00    -0.184 NA
HETATM    4  C8  UNL     1     -11.170   0.620  59.714  1.00  0.00     0.053 C 
HETATM    5  C9  UNL     1     -12.513   0.363  59.294  1.00  0.00    -0.012 A 
HETATM    6  C10 UNL     1     -13.465  -0.297  60.043  1.00  0.00     0.016 A 
HETATM    7  C11 UNL     1     -14.736  -0.496  59.535  1.00  0.00     0.040 A 
HETATM    8  C12 UNL     1     -15.103  -0.043  58.260  1.00  0.00     0.105 A 
HETATM    9  C13 UNL     1     -14.169   0.616  57.500  1.00  0.00     0.105 A 
HETATM   10  C14 UNL     1     -12.930   0.800  58.016  1.00  0.00     0.053 A 
HETATM   11  O4  UNL     1     -14.732   0.976  56.284  1.00  0.00    -0.323 OA
HETATM   12  C15 UNL     1     -15.970   0.278  56.208  1.00  0.00     0.352 C 
HETATM   13  O5  UNL     1     -16.265  -0.106  57.535  1.00  0.00    -0.323 OA
HETATM   14  C16 UNL     1     -10.889   1.872  60.516  1.00  0.00     0.239 C 
ENDROOT
BRANCH   1  15
HETATM   15  N3  UNL     1      -8.633   2.640  60.238  1.00  0.00    -0.328 N 
ATOM     16  H3  UNL     1      -8.572   3.580  60.627  1.00  0.00     0.180 HD
BRANCH  15  17
HETATM   17  C6  UNL     1      -7.836   2.235  59.139  1.00  0.00     0.242 C 
BRANCH  17  18
HETATM   18  C5  UNL     1      -7.995   3.190  58.021  1.00  0.00     0.241 C 
HETATM   19  N2  UNL     1      -7.731   2.814  56.696  1.00  0.00    -0.320 N 
ATOM     20  H2  UNL     1      -7.423   1.861  56.499  1.00  0.00     0.169 HD
HETATM   21  O3  UNL     1      -8.384   4.394  58.239  1.00  0.00    -0.271 OA
BRANCH  19  22
HETATM   22  C4  UNL     1      -7.886   3.750  55.604  1.00  0.00     0.124 A 
HETATM   23  C3  UNL     1      -8.769   3.517  54.574  1.00  0.00     0.148 A 
HETATM   24  C2  UNL     1      -8.655   4.601  53.723  1.00  0.00     0.180 A 
HETATM   25  N1  UNL     1      -7.733   5.436  54.241  1.00  0.00    -0.309 N 
HETATM   26  C1  UNL     1      -7.317   6.698  53.648  1.00  0.00     0.161 C 
HETATM   27  C18 UNL     1      -7.245   4.941  55.393  1.00  0.00     0.174 A 
BRANCH  23  28
HETATM   28  O2  UNL     1      -9.612   2.430  54.399  1.00  0.00    -0.355 OA
ATOM     29  H2  UNL     1     -10.499   2.354  54.732  1.00  0.00     0.218 HD
ENDBRANCH  23  28
BRANCH  24  30
HETATM   30  O1  UNL     1      -9.387   4.751  52.548  1.00  0.00    -0.344 OA
ATOM     31  H1  UNL     1      -9.891   4.093  52.081  1.00  0.00     0.219 HD
ENDBRANCH  24  30
BRANCH  27  32
HETATM   32  O7  UNL     1      -6.280   5.504  56.228  1.00  0.00    -0.344 OA
ATOM     33  H7  UNL     1      -5.954   6.397  56.222  1.00  0.00     0.219 HD
ENDBRANCH  27  32
ENDBRANCH  19  22
ENDBRANCH  17  18
ENDBRANCH  15  17
ENDBRANCH   1  15
BRANCH  14  34
HETATM   34  C17 UNL     1     -11.557   1.975  61.804  1.00  0.00     0.261 C 
HETATM   35  N7  UNL     1     -10.889   1.669  63.020  1.00  0.00    -0.060 NA
HETATM   36  O6  UNL     1     -12.758   2.335  61.913  1.00  0.00    -0.274 OA
ENDBRANCH  14  34
BRANCH   3  37
HETATM   37  N6  UNL     1     -10.833  -1.035  61.417  1.00  0.00    -0.357 NA
ATOM     38  H62 UNL     1     -10.166  -1.454  62.064  1.00  0.00     0.171 HD
ATOM     39  H61 UNL     1     -11.422  -1.836  61.187  1.00  0.00     0.171 HD
ENDBRANCH   3  37
TORSDOF 9
ENDMDL
MODEL 5
REMARK VINA RESULT: -7.697637844      3.160      9.247
REMARK  9 active torsions:
REMARK  status: ('A' for Active; 'I' for Inactive)
REMARK    1  A    between atoms: C2_3  and  O1_4 
REMARK    2  A    between atoms: C3_6  and  O2_7 
REMARK    3  A    between atoms: C4_9  and  N2_10 
REMARK       I    between atoms: N2_10  and  C5_12 
REMARK    4  A    between atoms: C5_12  and  C6_14 
REMARK    5  A    between atoms: C6_14  and  N3_15 
REMARK    6  A    between atoms: N3_15  and  N4_17 
REMARK    7  A    between atoms: N5_19  and  N6_20 
REMARK    8  A    between atoms: C16_33  and  C17_34 
REMARK    9  A    between atoms: C18_37  and  O7_38 
ROOT
HETATM    1  N4  UNL     1      -9.802   1.526  61.489  1.00  0.00    -0.298 N 
HETATM    2  C7  UNL     1      -9.437   0.155  61.307  1.00  0.00     0.262 C 
HETATM    3  N5  UNL     1     -10.660  -0.533  60.867  1.00  0.00    -0.184 NA
HETATM    4  C8  UNL     1     -11.350   0.515  60.204  1.00  0.00     0.053 C 
HETATM    5  C9  UNL     1     -12.630   0.303  59.601  1.00  0.00    -0.012 A 
HETATM    6  C10 UNL     1     -13.685  -0.357  60.195  1.00  0.00     0.016 A 
HETATM    7  C11 UNL     1     -14.881  -0.510  59.517  1.00  0.00     0.040 A 
HETATM    8  C12 UNL     1     -15.066  -0.011  58.221  1.00  0.00     0.105 A 
HETATM    9  C13 UNL     1     -14.026   0.649  57.614  1.00  0.00     0.105 A 
HETATM   10  C14 UNL     1     -12.864   0.789  58.294  1.00  0.00     0.053 A 
HETATM   11  O4  UNL     1     -14.416   1.059  56.347  1.00  0.00    -0.323 OA
HETATM   12  C15 UNL     1     -15.646   0.393  56.084  1.00  0.00     0.352 C 
HETATM   13  O5  UNL     1     -16.123  -0.024  57.346  1.00  0.00    -0.323 OA
HETATM   14  C16 UNL     1     -11.154   1.736  61.078  1.00  0.00     0.239 C 
ENDROOT
BRANCH   1  15
HETATM   15  N3  UNL     1      -8.867   2.458  61.127  1.00  0.00    -0.328 N 
ATOM     16  H3  UNL     1      -8.936   3.431  61.423  1.00  0.00     0.180 HD
BRANCH  15  17
HETATM   17  C6  UNL     1      -7.798   2.000  60.317  1.00  0.00     0.242 C 
BRANCH  17  18
HETATM   18  C5  UNL     1      -7.784   2.737  59.035  1.00  0.00     0.241 C 
HETATM   19  N2  UNL     1      -8.280   2.161  57.857  1.00  0.00    -0.320 N 
ATOM     20  H2  UNL     1      -8.658   1.213  57.884  1.00  0.00     0.169 HD
HETATM   21  O3  UNL     1      -7.318   3.932  58.970  1.00  0.00    -0.271 OA
BRANCH  19  22
HETATM   22  C4  UNL     1      -8.265   2.882  56.602  1.00  0.00     0.124 A 
HETATM   23  C3  UNL     1      -7.172   2.852  55.766  1.00  0.00     0.148 A 
HETATM   24  C2  UNL     1      -7.504   3.641  54.679  1.00  0.00     0.180 A 
HETATM   25  N1  UNL     1      -8.749   4.115  54.879  1.00  0.00    -0.309 N 
HETATM   26  C1  UNL     1      -9.470   4.988  53.966  1.00  0.00     0.161 C 
HETATM   27  C18 UNL     1      -9.240   3.667  56.049  1.00  0.00     0.174 A 
BRANCH  23  28
HETATM   28  O2  UNL     1      -5.973   2.179  55.947  1.00  0.00    -0.355 OA
ATOM     29  H2  UNL     1      -5.878   1.273  56.217  1.00  0.00     0.218 HD
ENDBRANCH  23  28
BRANCH  24  30
HETATM   30  O1  UNL     1      -6.659   3.871  53.596  1.00  0.00    -0.344 OA
ATOM     31  H1  UNL     1      -6.261   4.691  53.325  1.00  0.00     0.219 HD
ENDBRANCH  24  30
BRANCH  27  32
HETATM   32  O7  UNL     1     -10.488   3.932  56.612  1.00  0.00    -0.344 OA
ATOM     33  H7  UNL     1     -11.166   4.511  56.283  1.00  0.00     0.219 HD
ENDBRANCH  27  32
ENDBRANCH  19  22
ENDBRANCH  17  18
ENDBRANCH  15  17
ENDBRANCH   1  15
BRANCH  14  34
HETATM   34  C17 UNL     1     -11.986   1.814  62.269  1.00  0.00     0.261 C 
HETATM   35  N7  UNL     1     -11.568   1.264  63.510  1.00  0.00    -0.060 NA
HETATM   36  O6  UNL     1     -13.116   2.369  62.266  1.00  0.00    -0.274 OA
ENDBRANCH  14  34
BRANCH   3  37
HETATM   37  N6  UNL     1     -11.275  -1.199  61.880  1.00  0.00    -0.357 NA
ATOM     38  H62 UNL     1     -10.723  -1.804  62.487  1.00  0.00     0.171 HD
ATOM     39  H61 UNL     1     -11.989  -1.845  61.546  1.00  0.00     0.171 HD
ENDBRANCH   3  37
TORSDOF 9
ENDMDL
