MODEL 1
REMARK VINA RESULT: -8.899085349      0.000      0.000
REMARK  8 active torsions:
REMARK  status: ('A' for Active; 'I' for Inactive)
REMARK    1  A    between atoms: C2_2  and  N1_3 
REMARK    2  A    between atoms: C2_2  and  C3_7 
REMARK    3  A    between atoms: C4_9  and  N2_10 
REMARK    4  A    between atoms: N2_10  and  C5_12 
REMARK    5  A    between atoms: C6_13  and  N3_14 
REMARK    6  A    between atoms: N3_14  and  N4_16 
REMARK    7  A    between atoms: N4_16  and  C7_18 
REMARK    8  A    between atoms: C16_35  and  C17_36 
REMARK       I    between atoms: C17_36  and  N7_38 
ROOT
HETATM    1  C17 UNL     1      -3.353   5.281  54.095  1.00  0.00     0.262 C 
HETATM    2  O6  UNL     1      -2.256   5.674  54.541  1.00  0.00    -0.270 OA
HETATM    3  N7  UNL     1      -4.352   6.231  53.785  1.00  0.00    -0.262 N 
ATOM      4  H7  UNL     1      -5.257   5.938  53.418  1.00  0.00     0.181 HD
HETATM    5  C18 UNL     1      -4.066   7.592  53.996  1.00  0.00     0.184 C 
HETATM    6  N8  UNL     1      -3.845   8.715  54.169  1.00  0.00    -0.172 NA
ENDROOT
BRANCH   1   7
HETATM    7  C16 UNL     1      -3.648   3.842  53.876  1.00  0.00     0.250 A 
HETATM    8  C3  UNL     1      -4.579   3.684  52.721  1.00  0.00     0.194 A 
HETATM    9  O1  UNL     1      -5.717   3.128  53.236  1.00  0.00    -0.333 OA
HETATM   10  C4  UNL     1      -5.501   2.805  54.566  1.00  0.00     0.372 A 
HETATM   11  O5  UNL     1      -4.263   3.253  54.949  1.00  0.00    -0.326 OA
BRANCH   8  12
HETATM   12  C2  UNL     1      -3.936   2.888  51.619  1.00  0.00     0.211 C 
HETATM   13  C1  UNL     1      -3.814   1.423  51.946  1.00  0.00     0.042 C 
BRANCH  12  14
HETATM   14  N1  UNL     1      -4.629   3.076  50.347  1.00  0.00    -0.073 N 
ATOM     15  H13 UNL     1      -4.673   2.210  49.808  1.00  0.00     0.274 HD
ATOM     16  H12 UNL     1      -5.630   3.224  50.480  1.00  0.00     0.274 HD
ATOM     17  H11 UNL     1      -4.201   3.833  49.813  1.00  0.00     0.274 HD
ENDBRANCH  12  14
ENDBRANCH   8  12
BRANCH  10  18
HETATM   18  N2  UNL     1      -6.503   3.339  55.445  1.00  0.00    -0.337 N 
ATOM     19  H2  UNL     1      -6.336   3.268  56.449  1.00  0.00     0.164 HD
BRANCH  18  20
HETATM   20  C5  UNL     1      -7.711   3.958  55.022  1.00  0.00     0.119 A 
HETATM   21  C6  UNL     1      -9.050   3.740  55.149  1.00  0.00     0.133 A 
HETATM   22  C14 UNL     1      -9.315   4.860  54.409  1.00  0.00     0.254 A 
HETATM   23  O3  UNL     1     -10.358   5.476  53.989  1.00  0.00    -0.281 OA
HETATM   24  C15 UNL     1      -7.968   5.078  54.282  1.00  0.00     0.253 A 
HETATM   25  O4  UNL     1      -7.282   5.987  53.692  1.00  0.00    -0.281 OA
BRANCH  21  26
HETATM   26  N3  UNL     1      -9.858   2.736  55.799  1.00  0.00    -0.294 N 
ATOM     27  H3  UNL     1     -10.120   1.897  55.282  1.00  0.00     0.187 HD
BRANCH  26  28
HETATM   28  N4  UNL     1     -10.286   2.887  57.117  1.00  0.00    -0.300 N 
ATOM     29  H4  UNL     1      -9.874   3.624  57.689  1.00  0.00     0.187 HD
BRANCH  28  30
HETATM   30  C7  UNL     1     -11.278   2.047  57.687  1.00  0.00     0.050 A 
HETATM   31  C8  UNL     1     -11.201   1.633  59.000  1.00  0.00     0.033 A 
HETATM   32  C9  UNL     1     -12.141   0.817  59.598  1.00  0.00     0.034 A 
HETATM   33  C10 UNL     1     -13.226   0.378  58.863  1.00  0.00     0.063 A 
HETATM   34  N5  UNL     1     -14.266  -0.409  59.192  1.00  0.00    -0.307 N 
HETATM   35  C12 UNL     1     -13.310   0.788  57.544  1.00  0.00     0.065 A 
HETATM   36  C11 UNL     1     -15.018  -0.500  58.077  1.00  0.00     0.325 A 
ATOM     37  H5  UNL     1     -14.449  -0.844  60.097  1.00  0.00     0.170 HD
HETATM   38  O2  UNL     1     -16.095  -1.145  57.941  1.00  0.00    -0.247 OA
HETATM   39  N6  UNL     1     -14.456   0.213  57.083  1.00  0.00    -0.306 N 
ATOM     40  H6  UNL     1     -14.828   0.308  56.139  1.00  0.00     0.170 HD
HETATM   41  C13 UNL     1     -12.363   1.603  56.963  1.00  0.00     0.062 A 
ENDBRANCH  28  30
ENDBRANCH  26  28
ENDBRANCH  21  26
ENDBRANCH  18  20
ENDBRANCH  10  18
ENDBRANCH   1   7
TORSDOF 8
ENDMDL
MODEL 2
REMARK VINA RESULT: -8.811560369      2.429      3.421
REMARK  8 active torsions:
REMARK  status: ('A' for Active; 'I' for Inactive)
REMARK    1  A    between atoms: C2_2  and  N1_3 
REMARK    2  A    between atoms: C2_2  and  C3_7 
REMARK    3  A    between atoms: C4_9  and  N2_10 
REMARK    4  A    between atoms: N2_10  and  C5_12 
REMARK    5  A    between atoms: C6_13  and  N3_14 
REMARK    6  A    between atoms: N3_14  and  N4_16 
REMARK    7  A    between atoms: N4_16  and  C7_18 
REMARK    8  A    between atoms: C16_35  and  C17_36 
REMARK       I    between atoms: C17_36  and  N7_38 
ROOT
HETATM    1  C17 UNL     1      -7.346   5.268  54.672  1.00  0.00     0.262 C 
HETATM    2  O6  UNL     1      -7.318   6.516  54.650  1.00  0.00    -0.270 OA
HETATM    3  N7  UNL     1      -8.526   4.598  54.282  1.00  0.00    -0.262 N 
ATOM      4  H7  UNL     1      -8.576   3.579  54.290  1.00  0.00     0.181 HD
HETATM    5  C18 UNL     1      -9.631   5.371  53.882  1.00  0.00     0.184 C 
HETATM    6  N8  UNL     1     -10.550   5.995  53.555  1.00  0.00    -0.172 NA
ENDROOT
BRANCH   1   7
HETATM    7  C16 UNL     1      -6.175   4.459  55.096  1.00  0.00     0.250 A 
HETATM    8  C3  UNL     1      -6.158   3.164  54.356  1.00  0.00     0.194 A 
HETATM    9  O1  UNL     1      -6.301   2.192  55.307  1.00  0.00    -0.333 OA
HETATM   10  C4  UNL     1      -6.256   2.777  56.563  1.00  0.00     0.372 A 
HETATM   11  O5  UNL     1      -6.199   4.140  56.428  1.00  0.00    -0.326 OA
BRANCH   8  12
HETATM   12  C2  UNL     1      -4.915   3.042  53.517  1.00  0.00     0.211 C 
HETATM   13  C1  UNL     1      -3.711   3.685  54.154  1.00  0.00     0.042 C 
BRANCH  12  14
HETATM   14  N1  UNL     1      -4.635   1.651  53.173  1.00  0.00    -0.073 N 
ATOM     15  H13 UNL     1      -4.927   1.430  52.220  1.00  0.00     0.274 HD
ATOM     16  H12 UNL     1      -3.634   1.481  53.069  1.00  0.00     0.274 HD
ATOM     17  H11 UNL     1      -5.058   1.019  53.853  1.00  0.00     0.274 HD
ENDBRANCH  12  14
ENDBRANCH   8  12
BRANCH  10  18
HETATM   18  N2  UNL     1      -7.373   2.418  57.391  1.00  0.00    -0.337 N 
ATOM     19  H2  UNL     1      -7.652   1.437  57.408  1.00  0.00     0.164 HD
BRANCH  18  20
HETATM   20  C5  UNL     1      -8.119   3.327  58.190  1.00  0.00     0.119 A 
HETATM   21  C6  UNL     1      -9.396   3.801  58.246  1.00  0.00     0.133 A 
HETATM   22  C14 UNL     1      -9.072   4.581  59.322  1.00  0.00     0.254 A 
HETATM   23  O3  UNL     1      -9.675   5.415  60.086  1.00  0.00    -0.281 OA
HETATM   24  C15 UNL     1      -7.788   4.104  59.264  1.00  0.00     0.253 A 
HETATM   25  O4  UNL     1      -6.738   4.333  59.966  1.00  0.00    -0.281 OA
BRANCH  21  26
HETATM   26  N3  UNL     1     -10.597   3.572  57.481  1.00  0.00    -0.294 N 
ATOM     27  H3  UNL     1     -11.198   4.363  57.249  1.00  0.00     0.187 HD
BRANCH  26  28
HETATM   28  N4  UNL     1     -10.956   2.295  57.052  1.00  0.00    -0.300 N 
ATOM     29  H4  UNL     1     -10.495   1.902  56.231  1.00  0.00     0.187 HD
BRANCH  28  30
HETATM   30  C7  UNL     1     -11.941   1.524  57.721  1.00  0.00     0.050 A 
HETATM   31  C8  UNL     1     -11.814   1.196  59.055  1.00  0.00     0.033 A 
HETATM   32  C9  UNL     1     -12.746   0.450  59.747  1.00  0.00     0.034 A 
HETATM   33  C10 UNL     1     -13.875  -0.005  59.094  1.00  0.00     0.063 A 
HETATM   34  N5  UNL     1     -14.920  -0.737  59.522  1.00  0.00    -0.307 N 
HETATM   35  C12 UNL     1     -14.010   0.319  57.755  1.00  0.00     0.065 A 
HETATM   36  C11 UNL     1     -15.725  -0.880  58.449  1.00  0.00     0.325 A 
ATOM     37  H5  UNL     1     -15.071  -1.107  60.461  1.00  0.00     0.170 HD
HETATM   38  O2  UNL     1     -16.824  -1.501  58.407  1.00  0.00    -0.247 OA
HETATM   39  N6  UNL     1     -15.191  -0.251  57.386  1.00  0.00    -0.306 N 
ATOM     40  H6  UNL     1     -15.604  -0.209  56.455  1.00  0.00     0.170 HD
HETATM   41  C13 UNL     1     -13.071   1.066  57.078  1.00  0.00     0.062 A 
ENDBRANCH  28  30
ENDBRANCH  26  28
ENDBRANCH  21  26
ENDBRANCH  18  20
ENDBRANCH  10  18
ENDBRANCH   1   7
TORSDOF 8
ENDMDL
MODEL 3
REMARK VINA RESULT: -8.586236549      2.913      5.153
REMARK  8 active torsions:
REMARK  status: ('A' for Active; 'I' for Inactive)
REMARK    1  A    between atoms: C2_2  and  N1_3 
REMARK    2  A    between atoms: C2_2  and  C3_7 
REMARK    3  A    between atoms: C4_9  and  N2_10 
REMARK    4  A    between atoms: N2_10  and  C5_12 
REMARK    5  A    between atoms: C6_13  and  N3_14 
REMARK    6  A    between atoms: N3_14  and  N4_16 
REMARK    7  A    between atoms: N4_16  and  C7_18 
REMARK    8  A    between atoms: C16_35  and  C17_36 
REMARK       I    between atoms: C17_36  and  N7_38 
ROOT
HETATM    1  C17 UNL     1      -4.237   4.242  50.001  1.00  0.00     0.262 C 
HETATM    2  O6  UNL     1      -5.322   3.644  49.852  1.00  0.00    -0.270 OA
HETATM    3  N7  UNL     1      -3.827   5.180  49.027  1.00  0.00    -0.262 N 
ATOM      4  H7  UNL     1      -2.946   5.684  49.125  1.00  0.00     0.181 HD
HETATM    5  C18 UNL     1      -4.667   5.402  47.920  1.00  0.00     0.184 C 
HETATM    6  N8  UNL     1      -5.346   5.592  47.002  1.00  0.00    -0.172 NA
ENDROOT
BRANCH   1   7
HETATM    7  C16 UNL     1      -3.356   4.001  51.172  1.00  0.00     0.250 A 
HETATM    8  C3  UNL     1      -4.179   3.613  52.355  1.00  0.00     0.194 A 
HETATM    9  O1  UNL     1      -3.983   4.598  53.282  1.00  0.00    -0.333 OA
HETATM   10  C4  UNL     1      -3.006   5.466  52.821  1.00  0.00     0.372 A 
HETATM   11  O5  UNL     1      -2.647   5.112  51.546  1.00  0.00    -0.326 OA
BRANCH   8  12
HETATM   12  C2  UNL     1      -3.823   2.229  52.825  1.00  0.00     0.211 C 
HETATM   13  C1  UNL     1      -4.950   1.549  53.557  1.00  0.00     0.042 C 
BRANCH  12  14
HETATM   14  N1  UNL     1      -3.346   1.395  51.724  1.00  0.00    -0.073 N 
ATOM     15  H13 UNL     1      -4.065   1.260  51.013  1.00  0.00     0.274 HD
ATOM     16  H12 UNL     1      -2.655   1.882  51.153  1.00  0.00     0.274 HD
ATOM     17  H11 UNL     1      -2.988   0.507  52.075  1.00  0.00     0.274 HD
ENDBRANCH  12  14
ENDBRANCH   8  12
BRANCH  10  18
HETATM   18  N2  UNL     1      -3.417   6.842  52.845  1.00  0.00    -0.337 N 
ATOM     19  H2  UNL     1      -2.742   7.530  53.176  1.00  0.00     0.164 HD
BRANCH  18  20
HETATM   20  C5  UNL     1      -4.695   7.316  52.441  1.00  0.00     0.119 A 
HETATM   21  C6  UNL     1      -5.918   7.519  53.009  1.00  0.00     0.133 A 
HETATM   22  C14 UNL     1      -6.410   7.973  51.816  1.00  0.00     0.254 A 
HETATM   23  O3  UNL     1      -7.531   8.411  51.375  1.00  0.00    -0.281 OA
HETATM   24  C15 UNL     1      -5.181   7.768  51.246  1.00  0.00     0.253 A 
HETATM   25  O4  UNL     1      -4.727   7.947  50.059  1.00  0.00    -0.281 OA
BRANCH  21  26
HETATM   26  N3  UNL     1      -6.466   7.330  54.330  1.00  0.00    -0.294 N 
ATOM     27  H3  UNL     1      -7.034   8.069  54.744  1.00  0.00     0.187 HD
BRANCH  26  28
HETATM   28  N4  UNL     1      -6.238   6.160  55.053  1.00  0.00    -0.300 N 
ATOM     29  H4  UNL     1      -5.289   5.948  55.363  1.00  0.00     0.187 HD
BRANCH  28  30
HETATM   30  C7  UNL     1      -7.283   5.256  55.373  1.00  0.00     0.050 A 
HETATM   31  C8  UNL     1      -8.057   4.675  54.390  1.00  0.00     0.033 A 
HETATM   32  C9  UNL     1      -9.084   3.791  54.653  1.00  0.00     0.034 A 
HETATM   33  C10 UNL     1      -9.372   3.452  55.961  1.00  0.00     0.063 A 
HETATM   34  N5  UNL     1     -10.301   2.632  56.486  1.00  0.00    -0.307 N 
HETATM   35  C12 UNL     1      -8.601   4.030  56.953  1.00  0.00     0.065 A 
HETATM   36  C11 UNL     1     -10.119   2.688  57.821  1.00  0.00     0.325 A 
ATOM     37  H5  UNL     1     -10.996   2.082  55.980  1.00  0.00     0.170 HD
HETATM   38  O2  UNL     1     -10.779   2.067  58.701  1.00  0.00    -0.247 OA
HETATM   39  N6  UNL     1      -9.103   3.522  58.113  1.00  0.00    -0.306 N 
ATOM     40  H6  UNL     1      -8.765   3.738  59.050  1.00  0.00     0.170 HD
HETATM   41  C13 UNL     1      -7.579   4.911  56.674  1.00  0.00     0.062 A 
ENDBRANCH  28  30
ENDBRANCH  26  28
ENDBRANCH  21  26
ENDBRANCH  18  20
ENDBRANCH  10  18
ENDBRANCH   1   7
TORSDOF 8
ENDMDL
MODEL 4
REMARK VINA RESULT: -8.512084636      3.592      9.218
REMARK  8 active torsions:
REMARK  status: ('A' for Active; 'I' for Inactive)
REMARK    1  A    between atoms: C2_2  and  N1_3 
REMARK    2  A    between atoms: C2_2  and  C3_7 
REMARK    3  A    between atoms: C4_9  and  N2_10 
REMARK    4  A    between atoms: N2_10  and  C5_12 
REMARK    5  A    between atoms: C6_13  and  N3_14 
REMARK    6  A    between atoms: N3_14  and  N4_16 
REMARK    7  A    between atoms: N4_16  and  C7_18 
REMARK    8  A    between atoms: C16_35  and  C17_36 
REMARK       I    between atoms: C17_36  and  N7_38 
ROOT
HETATM    1  C17 UNL     1      -9.274   3.581  55.370  1.00  0.00     0.262 C 
HETATM    2  O6  UNL     1     -10.134   4.039  56.151  1.00  0.00    -0.270 OA
HETATM    3  N7  UNL     1      -9.087   4.197  54.113  1.00  0.00    -0.262 N 
ATOM      4  H7  UNL     1      -8.390   3.844  53.456  1.00  0.00     0.181 HD
HETATM    5  C18 UNL     1      -9.885   5.309  53.789  1.00  0.00     0.184 C 
HETATM    6  N8  UNL     1     -10.538   6.223  53.508  1.00  0.00    -0.172 NA
ENDROOT
BRANCH   1   7
HETATM    7  C16 UNL     1      -8.436   2.406  55.719  1.00  0.00     0.250 A 
HETATM    8  C3  UNL     1      -7.563   2.733  56.885  1.00  0.00     0.194 A 
HETATM    9  O1  UNL     1      -6.279   2.641  56.423  1.00  0.00    -0.333 OA
HETATM   10  C4  UNL     1      -6.298   2.149  55.128  1.00  0.00     0.372 A 
HETATM   11  O5  UNL     1      -7.596   2.027  54.705  1.00  0.00    -0.326 OA
BRANCH   8  12
HETATM   12  C2  UNL     1      -7.874   1.840  58.054  1.00  0.00     0.211 C 
HETATM   13  C1  UNL     1      -6.932   2.040  59.212  1.00  0.00     0.042 C 
BRANCH  12  14
HETATM   14  N1  UNL     1      -9.261   1.987  58.487  1.00  0.00    -0.073 N 
ATOM     15  H13 UNL     1      -9.605   1.144  58.950  1.00  0.00     0.274 HD
ATOM     16  H12 UNL     1      -9.347   2.636  59.270  1.00  0.00     0.274 HD
ATOM     17  H11 UNL     1      -9.856   2.257  57.704  1.00  0.00     0.274 HD
ENDBRANCH  12  14
ENDBRANCH   8  12
BRANCH  10  18
HETATM   18  N2  UNL     1      -5.562   2.966  54.204  1.00  0.00    -0.337 N 
ATOM     19  H2  UNL     1      -5.413   2.598  53.264  1.00  0.00     0.164 HD
BRANCH  18  20
HETATM   20  C5  UNL     1      -5.026   4.249  54.500  1.00  0.00     0.119 A 
HETATM   21  C6  UNL     1      -3.801   4.847  54.514  1.00  0.00     0.133 A 
HETATM   22  C14 UNL     1      -4.368   6.024  54.921  1.00  0.00     0.254 A 
HETATM   23  O3  UNL     1      -3.962   7.206  55.206  1.00  0.00    -0.281 OA
HETATM   24  C15 UNL     1      -5.598   5.421  54.908  1.00  0.00     0.253 A 
HETATM   25  O4  UNL     1      -6.781   5.840  55.179  1.00  0.00    -0.281 OA
BRANCH  21  26
HETATM   26  N3  UNL     1      -2.457   4.414  54.219  1.00  0.00    -0.294 N 
ATOM     27  H3  UNL     1      -1.982   3.789  54.869  1.00  0.00     0.187 HD
BRANCH  26  28
HETATM   28  N4  UNL     1      -1.794   4.832  53.066  1.00  0.00    -0.300 N 
ATOM     29  H4  UNL     1      -0.779   4.742  53.021  1.00  0.00     0.187 HD
BRANCH  28  30
HETATM   30  C7  UNL     1      -2.486   5.376  51.954  1.00  0.00     0.050 A 
HETATM   31  C8  UNL     1      -2.564   6.738  51.752  1.00  0.00     0.033 A 
HETATM   32  C9  UNL     1      -3.226   7.313  50.685  1.00  0.00     0.034 A 
HETATM   33  C10 UNL     1      -3.852   6.504  49.757  1.00  0.00     0.063 A 
HETATM   34  N5  UNL     1      -4.553   6.797  48.647  1.00  0.00    -0.307 N 
HETATM   35  C12 UNL     1      -3.779   5.136  49.953  1.00  0.00     0.065 A 
HETATM   36  C11 UNL     1      -4.929   5.609  48.132  1.00  0.00     0.325 A 
ATOM     37  H5  UNL     1      -4.757   7.724  48.272  1.00  0.00     0.170 HD
HETATM   38  O2  UNL     1      -5.608   5.419  47.084  1.00  0.00    -0.247 OA
HETATM   39  N6  UNL     1      -4.471   4.607  48.905  1.00  0.00    -0.306 N 
ATOM     40  H6  UNL     1      -4.618   3.612  48.734  1.00  0.00     0.170 HD
HETATM   41  C13 UNL     1      -3.114   4.578  51.022  1.00  0.00     0.062 A 
ENDBRANCH  28  30
ENDBRANCH  26  28
ENDBRANCH  21  26
ENDBRANCH  18  20
ENDBRANCH  10  18
ENDBRANCH   1   7
TORSDOF 8
ENDMDL
MODEL 5
REMARK VINA RESULT: -8.436147122      2.694      4.008
REMARK  8 active torsions:
REMARK  status: ('A' for Active; 'I' for Inactive)
REMARK    1  A    between atoms: C2_2  and  N1_3 
REMARK    2  A    between atoms: C2_2  and  C3_7 
REMARK    3  A    between atoms: C4_9  and  N2_10 
REMARK    4  A    between atoms: N2_10  and  C5_12 
REMARK    5  A    between atoms: C6_13  and  N3_14 
REMARK    6  A    between atoms: N3_14  and  N4_16 
REMARK    7  A    between atoms: N4_16  and  C7_18 
REMARK    8  A    between atoms: C16_35  and  C17_36 
REMARK       I    between atoms: C17_36  and  N7_38 
ROOT
HETATM    1  C17 UNL     1      -7.322   5.250  54.541  1.00  0.00     0.262 C 
HETATM    2  O6  UNL     1      -7.276   6.497  54.501  1.00  0.00    -0.270 OA
HETATM    3  N7  UNL     1      -8.528   4.595  54.206  1.00  0.00    -0.262 N 
ATOM      4  H7  UNL     1      -8.594   3.577  54.229  1.00  0.00     0.181 HD
HETATM    5  C18 UNL     1      -9.636   5.382  53.840  1.00  0.00     0.184 C 
HETATM    6  N8  UNL     1     -10.556   6.016  53.540  1.00  0.00    -0.172 NA
ENDROOT
BRANCH   1   7
HETATM    7  C16 UNL     1      -6.149   4.428  54.929  1.00  0.00     0.250 A 
HETATM    8  C3  UNL     1      -6.047   3.235  54.038  1.00  0.00     0.194 A 
HETATM    9  O1  UNL     1      -6.208   2.149  54.852  1.00  0.00    -0.333 OA
HETATM   10  C4  UNL     1      -6.251   2.574  56.170  1.00  0.00     0.372 A 
HETATM   11  O5  UNL     1      -6.234   3.944  56.208  1.00  0.00    -0.326 OA
BRANCH   8  12
HETATM   12  C2  UNL     1      -4.758   3.253  53.263  1.00  0.00     0.211 C 
HETATM   13  C1  UNL     1      -3.671   4.038  53.949  1.00  0.00     0.042 C 
BRANCH  12  14
HETATM   14  N1  UNL     1      -4.300   1.901  52.953  1.00  0.00    -0.073 N 
ATOM     15  H13 UNL     1      -3.513   1.908  52.304  1.00  0.00     0.274 HD
ATOM     16  H12 UNL     1      -3.836   1.467  53.751  1.00  0.00     0.274 HD
ATOM     17  H11 UNL     1      -5.071   1.331  52.606  1.00  0.00     0.274 HD
ENDBRANCH  12  14
ENDBRANCH   8  12
BRANCH  10  18
HETATM   18  N2  UNL     1      -7.398   2.084  56.883  1.00  0.00    -0.337 N 
ATOM     19  H2  UNL     1      -8.183   1.738  56.332  1.00  0.00     0.164 HD
BRANCH  18  20
HETATM   20  C5  UNL     1      -7.521   2.045  58.299  1.00  0.00     0.119 A 
HETATM   21  C6  UNL     1      -8.517   1.895  59.217  1.00  0.00     0.133 A 
HETATM   22  C14 UNL     1      -7.611   2.003  60.236  1.00  0.00     0.254 A 
HETATM   23  O3  UNL     1      -7.639   1.980  61.517  1.00  0.00    -0.281 OA
HETATM   24  C15 UNL     1      -6.610   2.155  59.312  1.00  0.00     0.253 A 
HETATM   25  O4  UNL     1      -5.343   2.327  59.416  1.00  0.00    -0.281 OA
BRANCH  21  26
HETATM   26  N3  UNL     1      -9.945   1.702  59.143  1.00  0.00    -0.294 N 
ATOM     27  H3  UNL     1     -10.382   1.567  58.231  1.00  0.00     0.187 HD
BRANCH  26  28
HETATM   28  N4  UNL     1     -10.740   1.695  60.288  1.00  0.00    -0.300 N 
ATOM     29  H4  UNL     1     -10.385   2.134  61.138  1.00  0.00     0.187 HD
BRANCH  28  30
HETATM   30  C7  UNL     1     -12.026   1.097  60.309  1.00  0.00     0.050 A 
HETATM   31  C8  UNL     1     -12.723   0.929  61.487  1.00  0.00     0.033 A 
HETATM   32  C9  UNL     1     -13.975   0.353  61.556  1.00  0.00     0.034 A 
HETATM   33  C10 UNL     1     -14.587  -0.086  60.397  1.00  0.00     0.063 A 
HETATM   34  N5  UNL     1     -15.779  -0.672  60.184  1.00  0.00    -0.307 N 
HETATM   35  C12 UNL     1     -13.895   0.078  59.210  1.00  0.00     0.065 A 
HETATM   36  C11 UNL     1     -15.847  -0.881  58.854  1.00  0.00     0.325 A 
ATOM     37  H5  UNL     1     -16.485  -0.907  60.883  1.00  0.00     0.170 HD
HETATM   38  O2  UNL     1     -16.803  -1.411  58.220  1.00  0.00    -0.247 OA
HETATM   39  N6  UNL     1     -14.725  -0.435  58.260  1.00  0.00    -0.306 N 
ATOM     40  H6  UNL     1     -14.528  -0.476  57.260  1.00  0.00     0.170 HD
HETATM   41  C13 UNL     1     -12.645   0.656  59.159  1.00  0.00     0.062 A 
ENDBRANCH  28  30
ENDBRANCH  26  28
ENDBRANCH  21  26
ENDBRANCH  18  20
ENDBRANCH  10  18
ENDBRANCH   1   7
TORSDOF 8
ENDMDL
