MODEL 1
REMARK VINA RESULT: -6.222790797      0.000      0.000
REMARK  12 active torsions:
REMARK  status: ('A' for Active; 'I' for Inactive)
REMARK    1  A    between atoms: C2_2  and  C4_4 
REMARK    2  A    between atoms: C7_9  and  C8_10 
REMARK    3  A    between atoms: C8_10  and  O3_11 
REMARK    4  A    between atoms: C9_13  and  O4_15 
REMARK    5  A    between atoms: C13_21  and  O6_22 
REMARK    6  A    between atoms: O6_22  and  C14_23 
REMARK    7  A    between atoms: C14_23  and  C15_24 
REMARK    8  A    between atoms: C15_24  and  O7_25 
REMARK    9  A    between atoms: C16_27  and  O8_28 
REMARK   10  A    between atoms: C17_30  and  O9_31 
REMARK   11  A    between atoms: C17_30  and  C18_33 
REMARK   12  A    between atoms: C18_33  and  O10_34 
ROOT
HETATM    1  C4  UNL     1      -5.089   8.140  55.825  1.00  0.00     0.157 C 
HETATM    2  O1  UNL     1      -4.568   6.854  55.968  1.00  0.00    -0.372 OA
HETATM    3  C5  UNL     1      -5.529   6.412  55.078  1.00  0.00     0.184 C 
HETATM    4  C6  UNL     1      -5.696   7.754  54.508  1.00  0.00     0.183 C 
HETATM    5  O2  UNL     1      -4.939   8.029  53.406  1.00  0.00    -0.370 OA
HETATM    6  C7  UNL     1      -5.371   7.167  52.390  1.00  0.00     0.181 C 
HETATM    7  C9  UNL     1      -4.224   6.177  52.196  1.00  0.00     0.105 C 
HETATM    8  C10 UNL     1      -3.047   7.083  51.870  1.00  0.00     0.050 C 
HETATM    9  C11 UNL     1      -3.981   5.311  53.377  1.00  0.00     0.116 C 
HETATM   10  S1  UNL     1      -2.681   5.995  54.444  1.00  0.00    -0.077 SA
HETATM   11  C12 UNL     1      -5.247   5.267  54.217  1.00  0.00     0.182 C 
HETATM   12  O5  UNL     1      -5.126   4.150  55.086  1.00  0.00    -0.349 OA
HETATM   13  C13 UNL     1      -5.711   3.069  54.373  1.00  0.00     0.292 C 
HETATM   14  C16 UNL     1      -4.914   3.000  53.083  1.00  0.00     0.211 C 
HETATM   15  C17 UNL     1      -3.654   3.886  53.144  1.00  0.00     0.132 C 
ENDROOT
BRANCH  13  16
HETATM   16  O6  UNL     1      -7.006   3.368  54.095  1.00  0.00    -0.356 OA
BRANCH  16  17
HETATM   17  C14 UNL     1      -8.031   2.930  54.830  1.00  0.00     0.197 C 
BRANCH  17  18
HETATM   18  C15 UNL     1      -9.370   3.482  54.487  1.00  0.00     0.190 C 
BRANCH  18  19
HETATM   19  O7  UNL     1      -9.461   4.074  53.261  1.00  0.00    -0.399 OA
ATOM     20  H7  UNL     1      -9.596   3.481  52.532  1.00  0.00     0.209 HD
ENDBRANCH  18  19
ENDBRANCH  17  18
ENDBRANCH  16  17
ENDBRANCH  13  16
BRANCH  14  21
HETATM   21  O8  UNL     1      -4.395   1.705  52.999  1.00  0.00    -0.387 OA
ATOM     22  H8  UNL     1      -3.574   1.769  52.526  1.00  0.00     0.210 HD
ENDBRANCH  14  21
BRANCH  15  23
HETATM   23  O9  UNL     1      -3.016   3.423  54.334  1.00  0.00    -0.383 OA
ATOM     24  H9  UNL     1      -2.174   3.073  54.066  1.00  0.00     0.210 HD
ENDBRANCH  15  23
BRANCH  15  25
HETATM   25  C18 UNL     1      -2.771   3.470  52.054  1.00  0.00     0.206 C 
BRANCH  25  26
HETATM   26  O10 UNL     1      -3.445   3.008  50.920  1.00  0.00    -0.398 OA
ATOM     27  H10 UNL     1      -3.250   2.106  50.696  1.00  0.00     0.209 HD
ENDBRANCH  25  26
ENDBRANCH  15  25
BRANCH   7  28
HETATM   28  O4  UNL     1      -4.624   5.426  51.079  1.00  0.00    -0.386 OA
ATOM     29  H4  UNL     1      -3.819   5.316  50.586  1.00  0.00     0.210 HD
ENDBRANCH   7  28
BRANCH   1  30
HETATM   30  C2  UNL     1      -6.026   8.445  56.940  1.00  0.00     0.009 C 
HETATM   31  C1  UNL     1      -6.404   9.906  57.015  1.00  0.00     0.012 C 
HETATM   32  C3  UNL     1      -5.367   8.026  58.240  1.00  0.00     0.012 C 
ENDBRANCH   1  30
BRANCH   6  33
HETATM   33  C8  UNL     1      -5.495   7.996  51.105  1.00  0.00     0.199 C 
BRANCH  33  34
HETATM   34  O3  UNL     1      -6.763   8.557  51.004  1.00  0.00    -0.398 OA
ATOM     35  H3  UNL     1      -6.953   9.095  51.764  1.00  0.00     0.209 HD
ENDBRANCH  33  34
ENDBRANCH   6  33
TORSDOF 12
ENDMDL
MODEL 2
REMARK VINA RESULT: -6.159198981      2.114      4.380
REMARK  12 active torsions:
REMARK  status: ('A' for Active; 'I' for Inactive)
REMARK    1  A    between atoms: C2_2  and  C4_4 
REMARK    2  A    between atoms: C7_9  and  C8_10 
REMARK    3  A    between atoms: C8_10  and  O3_11 
REMARK    4  A    between atoms: C9_13  and  O4_15 
REMARK    5  A    between atoms: C13_21  and  O6_22 
REMARK    6  A    between atoms: O6_22  and  C14_23 
REMARK    7  A    between atoms: C14_23  and  C15_24 
REMARK    8  A    between atoms: C15_24  and  O7_25 
REMARK    9  A    between atoms: C16_27  and  O8_28 
REMARK   10  A    between atoms: C17_30  and  O9_31 
REMARK   11  A    between atoms: C17_30  and  C18_33 
REMARK   12  A    between atoms: C18_33  and  O10_34 
ROOT
HETATM    1  C4  UNL     1      -2.666   7.062  51.978  1.00  0.00     0.157 C 
HETATM    2  O1  UNL     1      -3.099   7.216  53.295  1.00  0.00    -0.372 OA
HETATM    3  C5  UNL     1      -4.253   6.537  52.949  1.00  0.00     0.184 C 
HETATM    4  C6  UNL     1      -3.599   5.899  51.801  1.00  0.00     0.183 C 
HETATM    5  O2  UNL     1      -3.058   4.668  52.035  1.00  0.00    -0.370 OA
HETATM    6  C7  UNL     1      -4.120   3.810  52.346  1.00  0.00     0.181 C 
HETATM    7  C9  UNL     1      -3.959   3.505  53.834  1.00  0.00     0.105 C 
HETATM    8  C10 UNL     1      -2.559   2.916  53.909  1.00  0.00     0.050 C 
HETATM    9  C11 UNL     1      -4.137   4.692  54.706  1.00  0.00     0.116 C 
HETATM   10  S1  UNL     1      -2.545   5.469  55.102  1.00  0.00    -0.077 SA
HETATM   11  C12 UNL     1      -4.948   5.733  53.951  1.00  0.00     0.182 C 
HETATM   12  O5  UNL     1      -5.435   6.655  54.917  1.00  0.00    -0.349 OA
HETATM   13  C13 UNL     1      -6.699   6.137  55.307  1.00  0.00     0.292 C 
HETATM   14  C16 UNL     1      -6.388   4.741  55.817  1.00  0.00     0.211 C 
HETATM   15  C17 UNL     1      -4.871   4.521  55.981  1.00  0.00     0.132 C 
ENDROOT
BRANCH  13  16
HETATM   16  O6  UNL     1      -7.504   6.058  54.218  1.00  0.00    -0.356 OA
BRANCH  16  17
HETATM   17  C14 UNL     1      -8.428   5.107  54.060  1.00  0.00     0.197 C 
BRANCH  17  18
HETATM   18  C15 UNL     1      -9.546   5.425  53.130  1.00  0.00     0.190 C 
BRANCH  18  19
HETATM   19  O7  UNL     1     -10.565   6.155  53.669  1.00  0.00    -0.399 OA
ATOM     20  H7  UNL     1     -11.419   6.010  53.280  1.00  0.00     0.209 HD
ENDBRANCH  18  19
ENDBRANCH  17  18
ENDBRANCH  16  17
ENDBRANCH  13  16
BRANCH  14  21
HETATM   21  O8  UNL     1      -6.868   4.673  57.126  1.00  0.00    -0.387 OA
ATOM     22  H8  UNL     1      -6.202   4.232  57.641  1.00  0.00     0.210 HD
ENDBRANCH  14  21
BRANCH  15  23
HETATM   23  O9  UNL     1      -4.494   5.619  56.810  1.00  0.00    -0.383 OA
ATOM     24  H9  UNL     1      -4.011   5.248  57.540  1.00  0.00     0.210 HD
ENDBRANCH  15  23
BRANCH  15  25
HETATM   25  C18 UNL     1      -4.688   3.334  56.816  1.00  0.00     0.206 C 
BRANCH  25  26
HETATM   26  O10 UNL     1      -5.689   2.371  56.667  1.00  0.00    -0.398 OA
ATOM     27  H10 UNL     1      -6.453   2.520  57.213  1.00  0.00     0.209 HD
ENDBRANCH  25  26
ENDBRANCH  15  25
BRANCH   7  28
HETATM   28  O4  UNL     1      -4.943   2.533  54.078  1.00  0.00    -0.386 OA
ATOM     29  H4  UNL     1      -4.848   2.348  55.005  1.00  0.00     0.210 HD
ENDBRANCH   7  28
BRANCH   1  30
HETATM   30  C2  UNL     1      -2.957   8.291  51.191  1.00  0.00     0.009 C 
HETATM   31  C1  UNL     1      -3.608   8.002  49.858  1.00  0.00     0.012 C 
HETATM   32  C3  UNL     1      -1.652   9.029  50.966  1.00  0.00     0.012 C 
ENDBRANCH   1  30
BRANCH   6  33
HETATM   33  C8  UNL     1      -3.897   2.503  51.574  1.00  0.00     0.199 C 
BRANCH  33  34
HETATM   34  O3  UNL     1      -4.534   2.548  50.340  1.00  0.00    -0.398 OA
ATOM     35  H3  UNL     1      -4.195   1.873  49.763  1.00  0.00     0.209 HD
ENDBRANCH  33  34
ENDBRANCH   6  33
TORSDOF 12
ENDMDL
MODEL 3
REMARK VINA RESULT: -6.016870294      2.206      3.611
REMARK  12 active torsions:
REMARK  status: ('A' for Active; 'I' for Inactive)
REMARK    1  A    between atoms: C2_2  and  C4_4 
REMARK    2  A    between atoms: C7_9  and  C8_10 
REMARK    3  A    between atoms: C8_10  and  O3_11 
REMARK    4  A    between atoms: C9_13  and  O4_15 
REMARK    5  A    between atoms: C13_21  and  O6_22 
REMARK    6  A    between atoms: O6_22  and  C14_23 
REMARK    7  A    between atoms: C14_23  and  C15_24 
REMARK    8  A    between atoms: C15_24  and  O7_25 
REMARK    9  A    between atoms: C16_27  and  O8_28 
REMARK   10  A    between atoms: C17_30  and  O9_31 
REMARK   11  A    between atoms: C17_30  and  C18_33 
REMARK   12  A    between atoms: C18_33  and  O10_34 
ROOT
HETATM    1  C4  UNL     1      -2.429   7.713  53.520  1.00  0.00     0.157 C 
HETATM    2  O1  UNL     1      -3.129   7.293  54.651  1.00  0.00    -0.372 OA
HETATM    3  C5  UNL     1      -4.204   7.012  53.827  1.00  0.00     0.184 C 
HETATM    4  C6  UNL     1      -3.340   6.901  52.647  1.00  0.00     0.183 C 
HETATM    5  O2  UNL     1      -2.904   5.644  52.346  1.00  0.00    -0.370 OA
HETATM    6  C7  UNL     1      -4.036   4.888  52.017  1.00  0.00     0.181 C 
HETATM    7  C9  UNL     1      -4.209   3.908  53.175  1.00  0.00     0.105 C 
HETATM    8  C10 UNL     1      -2.879   3.172  53.196  1.00  0.00     0.050 C 
HETATM    9  C11 UNL     1      -4.531   4.565  54.466  1.00  0.00     0.116 C 
HETATM   10  S1  UNL     1      -3.035   4.851  55.455  1.00  0.00    -0.077 SA
HETATM   11  C12 UNL     1      -5.125   5.935  54.181  1.00  0.00     0.182 C 
HETATM   12  O5  UNL     1      -5.776   6.358  55.370  1.00  0.00    -0.349 OA
HETATM   13  C13 UNL     1      -7.112   5.890  55.238  1.00  0.00     0.292 C 
HETATM   14  C16 UNL     1      -6.964   4.390  55.056  1.00  0.00     0.211 C 
HETATM   15  C17 UNL     1      -5.526   3.920  55.352  1.00  0.00     0.132 C 
ENDROOT
BRANCH  13  16
HETATM   16  O6  UNL     1      -7.666   6.434  54.125  1.00  0.00    -0.356 OA
BRANCH  16  17
HETATM   17  C14 UNL     1      -8.371   5.726  53.239  1.00  0.00     0.197 C 
BRANCH  17  18
HETATM   18  C15 UNL     1      -9.751   5.348  53.649  1.00  0.00     0.190 C 
BRANCH  18  19
HETATM   19  O7  UNL     1     -10.674   6.350  53.587  1.00  0.00    -0.399 OA
ATOM     20  H7  UNL     1     -10.318   7.231  53.588  1.00  0.00     0.209 HD
ENDBRANCH  18  19
ENDBRANCH  17  18
ENDBRANCH  16  17
ENDBRANCH  13  16
BRANCH  14  21
HETATM   21  O8  UNL     1      -7.717   3.785  56.065  1.00  0.00    -0.387 OA
ATOM     22  H8  UNL     1      -7.442   4.179  56.885  1.00  0.00     0.210 HD
ENDBRANCH  14  21
BRANCH  15  23
HETATM   23  O9  UNL     1      -5.299   4.446  56.659  1.00  0.00    -0.383 OA
ATOM     24  H9  UNL     1      -5.429   3.723  57.263  1.00  0.00     0.210 HD
ENDBRANCH  15  23
BRANCH  15  25
HETATM   25  C18 UNL     1      -5.567   2.468  55.529  1.00  0.00     0.206 C 
BRANCH  25  26
HETATM   26  O10 UNL     1      -6.541   1.827  54.759  1.00  0.00    -0.398 OA
ATOM     27  H10 UNL     1      -6.373   0.903  54.613  1.00  0.00     0.209 HD
ENDBRANCH  25  26
ENDBRANCH  15  25
BRANCH   7  28
HETATM   28  O4  UNL     1      -5.255   3.074  52.746  1.00  0.00    -0.386 OA
ATOM     29  H4  UNL     1      -5.027   2.227  53.111  1.00  0.00     0.210 HD
ENDBRANCH   7  28
BRANCH   1  30
HETATM   30  C2  UNL     1      -2.502   9.194  53.387  1.00  0.00     0.009 C 
HETATM   31  C1  UNL     1      -1.705   9.725  52.218  1.00  0.00     0.012 C 
HETATM   32  C3  UNL     1      -1.988   9.811  54.672  1.00  0.00     0.012 C 
ENDBRANCH   1  30
BRANCH   6  33
HETATM   33  C8  UNL     1      -3.697   4.074  50.762  1.00  0.00     0.199 C 
BRANCH  33  34
HETATM   34  O3  UNL     1      -4.851   3.763  50.052  1.00  0.00    -0.398 OA
ATOM     35  H3  UNL     1      -5.262   4.552  49.717  1.00  0.00     0.209 HD
ENDBRANCH  33  34
ENDBRANCH   6  33
TORSDOF 12
ENDMDL
MODEL 4
REMARK VINA RESULT: -5.874681347      1.486      1.537
REMARK  12 active torsions:
REMARK  status: ('A' for Active; 'I' for Inactive)
REMARK    1  A    between atoms: C2_2  and  C4_4 
REMARK    2  A    between atoms: C7_9  and  C8_10 
REMARK    3  A    between atoms: C8_10  and  O3_11 
REMARK    4  A    between atoms: C9_13  and  O4_15 
REMARK    5  A    between atoms: C13_21  and  O6_22 
REMARK    6  A    between atoms: O6_22  and  C14_23 
REMARK    7  A    between atoms: C14_23  and  C15_24 
REMARK    8  A    between atoms: C15_24  and  O7_25 
REMARK    9  A    between atoms: C16_27  and  O8_28 
REMARK   10  A    between atoms: C17_30  and  O9_31 
REMARK   11  A    between atoms: C17_30  and  C18_33 
REMARK   12  A    between atoms: C18_33  and  O10_34 
ROOT
HETATM    1  C4  UNL     1      -2.837   8.339  54.970  1.00  0.00     0.157 C 
HETATM    2  O1  UNL     1      -2.610   6.974  55.148  1.00  0.00    -0.372 OA
HETATM    3  C5  UNL     1      -3.906   6.747  54.723  1.00  0.00     0.184 C 
HETATM    4  C6  UNL     1      -3.959   8.034  54.020  1.00  0.00     0.183 C 
HETATM    5  O2  UNL     1      -3.621   8.003  52.699  1.00  0.00    -0.370 OA
HETATM    6  C7  UNL     1      -4.583   7.218  52.051  1.00  0.00     0.181 C 
HETATM    7  C9  UNL     1      -3.849   5.937  51.657  1.00  0.00     0.105 C 
HETATM    8  C10 UNL     1      -2.703   6.455  50.803  1.00  0.00     0.050 C 
HETATM    9  C11 UNL     1      -3.393   5.133  52.817  1.00  0.00     0.116 C 
HETATM   10  S1  UNL     1      -1.671   5.512  53.250  1.00  0.00    -0.077 SA
HETATM   11  C12 UNL     1      -4.233   5.505  54.028  1.00  0.00     0.182 C 
HETATM   12  O5  UNL     1      -4.058   4.469  54.985  1.00  0.00    -0.349 OA
HETATM   13  C13 UNL     1      -5.097   3.540  54.707  1.00  0.00     0.292 C 
HETATM   14  C16 UNL     1      -4.872   3.153  53.256  1.00  0.00     0.211 C 
HETATM   15  C17 UNL     1      -3.512   3.659  52.737  1.00  0.00     0.132 C 
ENDROOT
BRANCH  13  16
HETATM   16  O6  UNL     1      -6.297   4.163  54.834  1.00  0.00    -0.356 OA
BRANCH  16  17
HETATM   17  C14 UNL     1      -7.436   3.657  54.356  1.00  0.00     0.197 C 
BRANCH  17  18
HETATM   18  C15 UNL     1      -8.511   4.638  54.044  1.00  0.00     0.190 C 
BRANCH  18  19
HETATM   19  O7  UNL     1      -8.988   4.596  52.766  1.00  0.00    -0.399 OA
ATOM     20  H7  UNL     1      -8.753   5.336  52.220  1.00  0.00     0.209 HD
ENDBRANCH  18  19
ENDBRANCH  17  18
ENDBRANCH  16  17
ENDBRANCH  13  16
BRANCH  14  21
HETATM   21  O8  UNL     1      -4.734   1.763  53.227  1.00  0.00    -0.387 OA
ATOM     22  H8  UNL     1      -5.059   1.473  52.383  1.00  0.00     0.210 HD
ENDBRANCH  14  21
BRANCH  15  23
HETATM   23  O9  UNL     1      -2.604   3.132  53.704  1.00  0.00    -0.383 OA
ATOM     24  H9  UNL     1      -1.739   3.426  53.445  1.00  0.00     0.210 HD
ENDBRANCH  15  23
BRANCH  15  25
HETATM   25  C18 UNL     1      -3.216   2.933  51.502  1.00  0.00     0.206 C 
BRANCH  25  26
HETATM   26  O10 UNL     1      -4.343   2.628  50.736  1.00  0.00    -0.398 OA
ATOM     27  H10 UNL     1      -4.200   2.683  49.798  1.00  0.00     0.209 HD
ENDBRANCH  25  26
ENDBRANCH  15  25
BRANCH   7  28
HETATM   28  O4  UNL     1      -4.795   5.242  50.886  1.00  0.00    -0.386 OA
ATOM     29  H4  UNL     1      -4.560   4.331  51.016  1.00  0.00     0.210 HD
ENDBRANCH   7  28
BRANCH   1  30
HETATM   30  C2  UNL     1      -3.198   8.977  56.265  1.00  0.00     0.009 C 
HETATM   31  C1  UNL     1      -3.449  10.462  56.146  1.00  0.00     0.012 C 
HETATM   32  C3  UNL     1      -2.067   8.732  57.245  1.00  0.00     0.012 C 
ENDBRANCH   1  30
BRANCH   6  33
HETATM   33  C8  UNL     1      -4.980   7.946  50.761  1.00  0.00     0.199 C 
BRANCH  33  34
HETATM   34  O3  UNL     1      -6.280   8.430  50.851  1.00  0.00    -0.398 OA
ATOM     35  H3  UNL     1      -6.908   7.722  50.776  1.00  0.00     0.209 HD
ENDBRANCH  33  34
ENDBRANCH   6  33
TORSDOF 12
ENDMDL
MODEL 5
REMARK VINA RESULT: -5.865375669      1.543      1.665
REMARK  12 active torsions:
REMARK  status: ('A' for Active; 'I' for Inactive)
REMARK    1  A    between atoms: C2_2  and  C4_4 
REMARK    2  A    between atoms: C7_9  and  C8_10 
REMARK    3  A    between atoms: C8_10  and  O3_11 
REMARK    4  A    between atoms: C9_13  and  O4_15 
REMARK    5  A    between atoms: C13_21  and  O6_22 
REMARK    6  A    between atoms: O6_22  and  C14_23 
REMARK    7  A    between atoms: C14_23  and  C15_24 
REMARK    8  A    between atoms: C15_24  and  O7_25 
REMARK    9  A    between atoms: C16_27  and  O8_28 
REMARK   10  A    between atoms: C17_30  and  O9_31 
REMARK   11  A    between atoms: C17_30  and  C18_33 
REMARK   12  A    between atoms: C18_33  and  O10_34 
ROOT
HETATM    1  C4  UNL     1      -3.463   8.653  55.500  1.00  0.00     0.157 C 
HETATM    2  O1  UNL     1      -3.633   7.350  55.969  1.00  0.00    -0.372 OA
HETATM    3  C5  UNL     1      -4.719   7.233  55.122  1.00  0.00     0.184 C 
HETATM    4  C6  UNL     1      -4.229   8.311  54.256  1.00  0.00     0.183 C 
HETATM    5  O2  UNL     1      -3.476   7.918  53.188  1.00  0.00    -0.370 OA
HETATM    6  C7  UNL     1      -4.312   7.161  52.357  1.00  0.00     0.181 C 
HETATM    7  C9  UNL     1      -3.804   5.726  52.485  1.00  0.00     0.105 C 
HETATM    8  C10 UNL     1      -2.348   5.845  52.065  1.00  0.00     0.050 C 
HETATM    9  C11 UNL     1      -3.972   5.157  53.845  1.00  0.00     0.116 C 
HETATM   10  S1  UNL     1      -2.465   5.356  54.838  1.00  0.00    -0.077 SA
HETATM   11  C12 UNL     1      -5.066   5.929  54.565  1.00  0.00     0.182 C 
HETATM   12  O5  UNL     1      -5.474   5.133  55.669  1.00  0.00    -0.349 OA
HETATM   13  C13 UNL     1      -6.539   4.337  55.168  1.00  0.00     0.292 C 
HETATM   14  C16 UNL     1      -5.927   3.589  53.997  1.00  0.00     0.211 C 
HETATM   15  C17 UNL     1      -4.393   3.742  53.964  1.00  0.00     0.132 C 
ENDROOT
BRANCH  13  16
HETATM   16  O6  UNL     1      -7.531   5.150  54.724  1.00  0.00    -0.356 OA
BRANCH  16  17
HETATM   17  C14 UNL     1      -8.750   4.707  54.404  1.00  0.00     0.197 C 
BRANCH  17  18
HETATM   18  C15 UNL     1      -9.431   5.410  53.282  1.00  0.00     0.190 C 
BRANCH  18  19
HETATM   19  O7  UNL     1     -10.569   6.082  53.619  1.00  0.00    -0.399 OA
ATOM     20  H7  UNL     1     -11.238   6.112  52.946  1.00  0.00     0.209 HD
ENDBRANCH  18  19
ENDBRANCH  17  18
ENDBRANCH  16  17
ENDBRANCH  13  16
BRANCH  14  21
HETATM   21  O8  UNL     1      -6.111   2.228  54.248  1.00  0.00    -0.387 OA
ATOM     22  H8  UNL     1      -6.562   1.868  53.492  1.00  0.00     0.210 HD
ENDBRANCH  14  21
BRANCH  15  23
HETATM   23  O9  UNL     1      -4.020   3.323  55.276  1.00  0.00    -0.383 OA
ATOM     24  H9  UNL     1      -3.452   4.003  55.622  1.00  0.00     0.210 HD
ENDBRANCH  15  23
BRANCH  15  25
HETATM   25  C18 UNL     1      -3.868   2.709  53.072  1.00  0.00     0.206 C 
BRANCH  25  26
HETATM   26  O10 UNL     1      -4.692   2.426  51.980  1.00  0.00    -0.398 OA
ATOM     27  H10 UNL     1      -4.301   1.842  51.341  1.00  0.00     0.209 HD
ENDBRANCH  25  26
ENDBRANCH  15  25
BRANCH   7  28
HETATM   28  O4  UNL     1      -4.562   5.024  51.534  1.00  0.00    -0.386 OA
ATOM     29  H4  UNL     1      -4.538   4.128  51.849  1.00  0.00     0.210 HD
ENDBRANCH   7  28
BRANCH   1  30
HETATM   30  C2  UNL     1      -4.088   9.626  56.437  1.00  0.00     0.009 C 
HETATM   31  C1  UNL     1      -3.632  11.048  56.208  1.00  0.00     0.012 C 
HETATM   32  C3  UNL     1      -3.746   9.206  57.853  1.00  0.00     0.012 C 
ENDBRANCH   1  30
BRANCH   6  33
HETATM   33  C8  UNL     1      -4.063   7.618  50.914  1.00  0.00     0.199 C 
BRANCH  33  34
HETATM   34  O3  UNL     1      -5.179   7.374  50.123  1.00  0.00    -0.398 OA
ATOM     35  H3  UNL     1      -5.055   7.728  49.250  1.00  0.00     0.209 HD
ENDBRANCH  33  34
ENDBRANCH   6  33
TORSDOF 12
ENDMDL
