MODEL 1
REMARK VINA RESULT: -6.468953155      0.000      0.000
REMARK  13 active torsions:
REMARK  status: ('A' for Active; 'I' for Inactive)
REMARK    1  A    between atoms: C3_4  and  S1_5 
REMARK    2  A    between atoms: S1_5  and  C4_6 
REMARK    3  A    between atoms: C4_6  and  C5_7 
REMARK    4  A    between atoms: C5_7  and  C6_8 
REMARK    5  A    between atoms: C6_8  and  C7_9 
REMARK    6  A    between atoms: C9_15  and  N2_16 
REMARK    7  A    between atoms: C10_20  and  O3_21 
REMARK    8  A    between atoms: C11_24  and  C12_25 
REMARK    9  A    between atoms: C12_25  and  O5_26 
REMARK   10  A    between atoms: C13_29  and  C14_30 
REMARK   11  A    between atoms: C14_30  and  O6_33 
REMARK   12  A    between atoms: C17_35  and  O7_36 
REMARK   13  A    between atoms: C17_35  and  O8_38 
ROOT
HETATM    1  C7  UNL     1      -6.277   3.943  55.073  1.00  0.00     0.189 C 
HETATM    2  O2  UNL     1      -7.539   3.340  55.063  1.00  0.00    -0.316 OA
HETATM    3  C8  UNL     1      -8.472   4.251  55.486  1.00  0.00     0.358 C 
HETATM    4  N1  UNL     1      -9.738   3.570  55.576  1.00  0.00     0.018 N 
ATOM      5  H11 UNL     1     -10.028   3.081  54.729  1.00  0.00     0.286 HD
ATOM      6  H12 UNL     1     -10.556   4.178  55.618  1.00  0.00     0.286 HD
HETATM    7  C9  UNL     1      -9.540   2.723  56.738  1.00  0.00     0.440 C 
HETATM    8  C10 UNL     1      -8.640   3.561  57.594  1.00  0.00     0.320 C 
HETATM    9  O4  UNL     1      -8.197   4.630  56.817  1.00  0.00    -0.297 OA
HETATM   10  C11 UNL     1      -8.475   5.449  54.593  1.00  0.00     0.166 C 
HETATM   11  S2  UNL     1      -6.702   5.441  54.083  1.00  0.00    -0.123 SA
ENDROOT
BRANCH   1  12
HETATM   12  C6  UNL     1      -5.301   3.071  54.347  1.00  0.00     0.044 C 
BRANCH  12  13
HETATM   13  C5  UNL     1      -3.869   3.353  54.738  1.00  0.00     0.013 C 
BRANCH  13  14
HETATM   14  C4  UNL     1      -3.016   3.112  53.509  1.00  0.00     0.076 C 
BRANCH  14  15
HETATM   15  S1  UNL     1      -3.956   3.667  52.068  1.00  0.00    -0.137 SA
BRANCH  15  16
HETATM   16  C3  UNL     1      -3.219   5.161  51.335  1.00  0.00     0.195 C 
HETATM   17  O1  UNL     1      -3.306   5.047  49.961  1.00  0.00    -0.365 OA
HETATM   18  C2  UNL     1      -3.803   6.209  49.442  1.00  0.00     0.181 C 
HETATM   19  C1  UNL     1      -4.707   5.910  48.243  1.00  0.00     0.045 C 
HETATM   20  C17 UNL     1      -4.635   6.865  50.509  1.00  0.00     0.195 C 
HETATM   21  C13 UNL     1      -4.027   6.332  51.767  1.00  0.00     0.123 C 
BRANCH  20  22
HETATM   22  O7  UNL     1      -4.556   8.254  50.435  1.00  0.00    -0.363 OA
ATOM     23  H7  UNL     1      -4.576   8.650  51.299  1.00  0.00     0.213 HD
ENDBRANCH  20  22
BRANCH  20  24
HETATM   24  O8  UNL     1      -5.961   6.451  50.323  1.00  0.00    -0.363 OA
ATOM     25  H8  UNL     1      -6.270   6.102  51.151  1.00  0.00     0.213 HD
ENDBRANCH  20  24
BRANCH  21  26
HETATM   26  C14 UNL     1      -3.216   7.363  52.521  1.00  0.00     0.062 C 
HETATM   27  C15 UNL     1      -2.841   6.731  53.859  1.00  0.00     0.046 C 
HETATM   28  C16 UNL     1      -1.943   7.731  51.825  1.00  0.00     0.046 C 
BRANCH  26  29
HETATM   29  O6  UNL     1      -4.040   8.445  52.795  1.00  0.00    -0.390 OA
ATOM     30  H6  UNL     1      -3.491   9.178  53.049  1.00  0.00     0.210 HD
ENDBRANCH  26  29
ENDBRANCH  21  26
ENDBRANCH  15  16
ENDBRANCH  14  15
ENDBRANCH  13  14
ENDBRANCH  12  13
ENDBRANCH   1  12
BRANCH  10  31
HETATM   31  C12 UNL     1      -9.374   5.309  53.390  1.00  0.00     0.186 C 
BRANCH  31  32
HETATM   32  O5  UNL     1     -10.549   6.004  53.674  1.00  0.00    -0.399 OA
ATOM     33  H5  UNL     1     -11.195   5.362  53.942  1.00  0.00     0.209 HD
ENDBRANCH  31  32
ENDBRANCH  10  31
BRANCH   7  34
HETATM   34  N2  UNL     1     -10.793   2.406  57.377  1.00  0.00    -0.045 N 
ATOM     35  H23 UNL     1     -11.414   3.216  57.405  1.00  0.00     0.277 HD
ATOM     36  H22 UNL     1     -11.364   1.791  56.796  1.00  0.00     0.277 HD
ATOM     37  H21 UNL     1     -10.648   2.014  58.307  1.00  0.00     0.277 HD
ENDBRANCH   7  34
BRANCH   8  38
HETATM   38  O3  UNL     1      -9.344   3.962  58.715  1.00  0.00    -0.367 OA
ATOM     39  H3  UNL     1      -9.995   4.600  58.452  1.00  0.00     0.212 HD
ENDBRANCH   8  38
TORSDOF 13
ENDMDL
MODEL 2
REMARK VINA RESULT: -6.398750553      2.171      3.333
REMARK  13 active torsions:
REMARK  status: ('A' for Active; 'I' for Inactive)
REMARK    1  A    between atoms: C3_4  and  S1_5 
REMARK    2  A    between atoms: S1_5  and  C4_6 
REMARK    3  A    between atoms: C4_6  and  C5_7 
REMARK    4  A    between atoms: C5_7  and  C6_8 
REMARK    5  A    between atoms: C6_8  and  C7_9 
REMARK    6  A    between atoms: C9_15  and  N2_16 
REMARK    7  A    between atoms: C10_20  and  O3_21 
REMARK    8  A    between atoms: C11_24  and  C12_25 
REMARK    9  A    between atoms: C12_25  and  O5_26 
REMARK   10  A    between atoms: C13_29  and  C14_30 
REMARK   11  A    between atoms: C14_30  and  O6_33 
REMARK   12  A    between atoms: C17_35  and  O7_36 
REMARK   13  A    between atoms: C17_35  and  O8_38 
ROOT
HETATM    1  C7  UNL     1      -5.113   4.333  56.039  1.00  0.00     0.189 C 
HETATM    2  O2  UNL     1      -5.831   4.838  54.951  1.00  0.00    -0.316 OA
HETATM    3  C8  UNL     1      -6.828   5.657  55.416  1.00  0.00     0.358 C 
HETATM    4  N1  UNL     1      -7.620   6.067  54.284  1.00  0.00     0.018 N 
ATOM      5  H11 UNL     1      -7.095   6.489  53.519  1.00  0.00     0.286 HD
ATOM      6  H12 UNL     1      -8.220   6.875  54.445  1.00  0.00     0.286 HD
HETATM    7  C9  UNL     1      -8.318   4.839  53.947  1.00  0.00     0.440 C 
HETATM    8  C10 UNL     1      -8.504   4.199  55.290  1.00  0.00     0.320 C 
HETATM    9  O4  UNL     1      -7.728   4.909  56.205  1.00  0.00    -0.297 OA
HETATM   10  C11 UNL     1      -6.252   6.784  56.209  1.00  0.00     0.166 C 
HETATM   11  S2  UNL     1      -4.751   5.939  56.874  1.00  0.00    -0.123 SA
ENDROOT
BRANCH   1  12
HETATM   12  C6  UNL     1      -3.857   3.683  55.550  1.00  0.00     0.044 C 
BRANCH  12  13
HETATM   13  C5  UNL     1      -2.611   4.377  56.050  1.00  0.00     0.013 C 
BRANCH  13  14
HETATM   14  C4  UNL     1      -1.674   4.516  54.867  1.00  0.00     0.076 C 
BRANCH  14  15
HETATM   15  S1  UNL     1      -2.328   5.817  53.795  1.00  0.00    -0.137 SA
BRANCH  15  16
HETATM   16  C3  UNL     1      -2.479   5.241  52.076  1.00  0.00     0.195 C 
HETATM   17  O1  UNL     1      -2.106   3.911  52.038  1.00  0.00    -0.365 OA
HETATM   18  C2  UNL     1      -3.041   3.199  51.341  1.00  0.00     0.181 C 
HETATM   19  C1  UNL     1      -3.217   1.809  51.958  1.00  0.00     0.045 C 
HETATM   20  C17 UNL     1      -4.349   3.934  51.452  1.00  0.00     0.195 C 
HETATM   21  C13 UNL     1      -3.909   5.345  51.679  1.00  0.00     0.123 C 
BRANCH  20  22
HETATM   22  O7  UNL     1      -5.108   3.801  50.292  1.00  0.00    -0.363 OA
ATOM     23  H7  UNL     1      -6.025   3.991  50.452  1.00  0.00     0.213 HD
ENDBRANCH  20  22
BRANCH  20  24
HETATM   24  O8  UNL     1      -5.045   3.394  52.542  1.00  0.00    -0.363 OA
ATOM     25  H8  UNL     1      -5.527   4.103  52.953  1.00  0.00     0.213 HD
ENDBRANCH  20  24
BRANCH  21  26
HETATM   26  C14 UNL     1      -4.125   6.238  50.477  1.00  0.00     0.062 C 
HETATM   27  C15 UNL     1      -3.468   7.576  50.805  1.00  0.00     0.046 C 
HETATM   28  C16 UNL     1      -3.482   5.713  49.233  1.00  0.00     0.046 C 
BRANCH  26  29
HETATM   29  O6  UNL     1      -5.487   6.470  50.352  1.00  0.00    -0.390 OA
ATOM     30  H6  UNL     1      -5.607   7.350  50.012  1.00  0.00     0.210 HD
ENDBRANCH  26  29
ENDBRANCH  21  26
ENDBRANCH  15  16
ENDBRANCH  14  15
ENDBRANCH  13  14
ENDBRANCH  12  13
ENDBRANCH   1  12
BRANCH  10  31
HETATM   31  C12 UNL     1      -5.863   7.979  55.375  1.00  0.00     0.186 C 
BRANCH  31  32
HETATM   32  O5  UNL     1      -5.207   7.492  54.245  1.00  0.00    -0.399 OA
ATOM     33  H5  UNL     1      -4.279   7.647  54.372  1.00  0.00     0.209 HD
ENDBRANCH  31  32
ENDBRANCH  10  31
BRANCH   7  34
HETATM   34  N2  UNL     1      -9.563   5.111  53.274  1.00  0.00    -0.045 N 
ATOM     35  H23 UNL     1      -9.657   6.102  53.047  1.00  0.00     0.277 HD
ATOM     36  H22 UNL     1      -9.567   4.732  52.326  1.00  0.00     0.277 HD
ATOM     37  H21 UNL     1     -10.360   4.775  53.815  1.00  0.00     0.277 HD
ENDBRANCH   7  34
BRANCH   8  38
HETATM   38  O3  UNL     1      -9.852   4.209  55.601  1.00  0.00    -0.367 OA
ATOM     39  H3  UNL     1     -10.246   3.413  55.265  1.00  0.00     0.212 HD
ENDBRANCH   8  38
TORSDOF 13
ENDMDL
MODEL 3
REMARK VINA RESULT: -6.389100557      3.025      6.849
REMARK  13 active torsions:
REMARK  status: ('A' for Active; 'I' for Inactive)
REMARK    1  A    between atoms: C3_4  and  S1_5 
REMARK    2  A    between atoms: S1_5  and  C4_6 
REMARK    3  A    between atoms: C4_6  and  C5_7 
REMARK    4  A    between atoms: C5_7  and  C6_8 
REMARK    5  A    between atoms: C6_8  and  C7_9 
REMARK    6  A    between atoms: C9_15  and  N2_16 
REMARK    7  A    between atoms: C10_20  and  O3_21 
REMARK    8  A    between atoms: C11_24  and  C12_25 
REMARK    9  A    between atoms: C12_25  and  O5_26 
REMARK   10  A    between atoms: C13_29  and  C14_30 
REMARK   11  A    between atoms: C14_30  and  O6_33 
REMARK   12  A    between atoms: C17_35  and  O7_36 
REMARK   13  A    between atoms: C17_35  and  O8_38 
ROOT
HETATM    1  C7  UNL     1      -2.429   5.234  53.830  1.00  0.00     0.189 C 
HETATM    2  O2  UNL     1      -3.628   5.556  53.188  1.00  0.00    -0.316 OA
HETATM    3  C8  UNL     1      -3.409   5.614  51.835  1.00  0.00     0.358 C 
HETATM    4  N1  UNL     1      -4.630   6.060  51.214  1.00  0.00     0.018 N 
ATOM      5  H11 UNL     1      -5.460   5.516  51.450  1.00  0.00     0.286 HD
ATOM      6  H12 UNL     1      -4.691   5.894  50.209  1.00  0.00     0.286 HD
HETATM    7  C9  UNL     1      -4.675   7.456  51.611  1.00  0.00     0.440 C 
HETATM    8  C10 UNL     1      -3.223   7.824  51.651  1.00  0.00     0.320 C 
HETATM    9  O4  UNL     1      -2.488   6.643  51.547  1.00  0.00    -0.297 OA
HETATM   10  C11 UNL     1      -2.901   4.303  51.331  1.00  0.00     0.166 C 
HETATM   11  S2  UNL     1      -2.004   3.734  52.841  1.00  0.00    -0.123 SA
ENDROOT
BRANCH   1  12
HETATM   12  C6  UNL     1      -2.705   4.881  55.258  1.00  0.00     0.044 C 
BRANCH  12  13
HETATM   13  C5  UNL     1      -3.627   3.692  55.392  1.00  0.00     0.013 C 
BRANCH  13  14
HETATM   14  C4  UNL     1      -4.144   3.689  56.817  1.00  0.00     0.076 C 
BRANCH  14  15
HETATM   15  S1  UNL     1      -5.815   3.000  56.795  1.00  0.00    -0.137 SA
BRANCH  15  16
HETATM   16  C3  UNL     1      -7.069   4.313  56.672  1.00  0.00     0.195 C 
HETATM   17  O1  UNL     1      -6.420   5.530  56.756  1.00  0.00    -0.365 OA
HETATM   18  C2  UNL     1      -6.862   6.347  55.754  1.00  0.00     0.181 C 
HETATM   19  C1  UNL     1      -5.714   7.217  55.234  1.00  0.00     0.045 C 
HETATM   20  C17 UNL     1      -7.338   5.471  54.628  1.00  0.00     0.195 C 
HETATM   21  C13 UNL     1      -7.715   4.210  55.336  1.00  0.00     0.123 C 
BRANCH  20  22
HETATM   22  O7  UNL     1      -8.418   6.041  53.960  1.00  0.00    -0.363 OA
ATOM     23  H7  UNL     1      -8.166   6.365  53.102  1.00  0.00     0.213 HD
ENDBRANCH  20  22
BRANCH  20  24
HETATM   24  O8  UNL     1      -6.264   5.302  53.742  1.00  0.00    -0.363 OA
ATOM     25  H8  UNL     1      -6.527   4.660  53.093  1.00  0.00     0.213 HD
ENDBRANCH  20  24
BRANCH  21  26
HETATM   26  C14 UNL     1      -9.211   3.996  55.419  1.00  0.00     0.062 C 
HETATM   27  C15 UNL     1      -9.508   2.696  54.676  1.00  0.00     0.046 C 
HETATM   28  C16 UNL     1      -9.703   3.836  56.822  1.00  0.00     0.046 C 
BRANCH  26  29
HETATM   29  O6  UNL     1      -9.832   5.020  54.718  1.00  0.00    -0.390 OA
ATOM     30  H6  UNL     1      -9.171   5.466  54.201  1.00  0.00     0.210 HD
ENDBRANCH  26  29
ENDBRANCH  21  26
ENDBRANCH  15  16
ENDBRANCH  14  15
ENDBRANCH  13  14
ENDBRANCH  12  13
ENDBRANCH   1  12
BRANCH  10  31
HETATM   31  C12 UNL     1      -3.991   3.328  50.963  1.00  0.00     0.186 C 
BRANCH  31  32
HETATM   32  O5  UNL     1      -4.890   3.299  52.028  1.00  0.00    -0.399 OA
ATOM     33  H5  UNL     1      -4.644   2.566  52.580  1.00  0.00     0.209 HD
ENDBRANCH  31  32
ENDBRANCH  10  31
BRANCH   7  34
HETATM   34  N2  UNL     1      -5.432   8.244  50.671  1.00  0.00    -0.045 N 
ATOM     35  H23 UNL     1      -4.834   8.898  50.164  1.00  0.00     0.277 HD
ATOM     36  H22 UNL     1      -5.752   7.681  49.882  1.00  0.00     0.277 HD
ATOM     37  H21 UNL     1      -6.208   8.724  51.128  1.00  0.00     0.277 HD
ENDBRANCH   7  34
BRANCH   8  38
HETATM   38  O3  UNL     1      -2.964   8.714  50.625  1.00  0.00    -0.367 OA
ATOM     39  H3  UNL     1      -2.266   9.297  50.898  1.00  0.00     0.212 HD
ENDBRANCH   8  38
TORSDOF 13
ENDMDL
MODEL 4
REMARK VINA RESULT: -6.315418972      1.538      2.322
REMARK  13 active torsions:
REMARK  status: ('A' for Active; 'I' for Inactive)
REMARK    1  A    between atoms: C3_4  and  S1_5 
REMARK    2  A    between atoms: S1_5  and  C4_6 
REMARK    3  A    between atoms: C4_6  and  C5_7 
REMARK    4  A    between atoms: C5_7  and  C6_8 
REMARK    5  A    between atoms: C6_8  and  C7_9 
REMARK    6  A    between atoms: C9_15  and  N2_16 
REMARK    7  A    between atoms: C10_20  and  O3_21 
REMARK    8  A    between atoms: C11_24  and  C12_25 
REMARK    9  A    between atoms: C12_25  and  O5_26 
REMARK   10  A    between atoms: C13_29  and  C14_30 
REMARK   11  A    between atoms: C14_30  and  O6_33 
REMARK   12  A    between atoms: C17_35  and  O7_36 
REMARK   13  A    between atoms: C17_35  and  O8_38 
ROOT
HETATM    1  C7  UNL     1      -6.305   4.041  56.244  1.00  0.00     0.189 C 
HETATM    2  O2  UNL     1      -7.461   3.279  56.050  1.00  0.00    -0.316 OA
HETATM    3  C8  UNL     1      -8.547   4.115  56.017  1.00  0.00     0.358 C 
HETATM    4  N1  UNL     1      -9.728   3.294  55.934  1.00  0.00     0.018 N 
ATOM      5  H11 UNL     1      -9.733   2.620  55.169  1.00  0.00     0.286 HD
ATOM      6  H12 UNL     1     -10.574   3.781  55.638  1.00  0.00     0.286 HD
HETATM    7  C9  UNL     1      -9.785   2.715  57.264  1.00  0.00     0.440 C 
HETATM    8  C10 UNL     1      -9.226   3.815  58.116  1.00  0.00     0.320 C 
HETATM    9  O4  UNL     1      -8.679   4.771  57.260  1.00  0.00    -0.297 OA
HETATM   10  C11 UNL     1      -8.407   5.113  54.914  1.00  0.00     0.166 C 
HETATM   11  S2  UNL     1      -6.567   5.254  54.878  1.00  0.00    -0.123 SA
ENDROOT
BRANCH   1  12
HETATM   12  C6  UNL     1      -5.098   3.193  55.992  1.00  0.00     0.044 C 
BRANCH  12  13
HETATM   13  C5  UNL     1      -3.811   3.892  56.361  1.00  0.00     0.013 C 
BRANCH  13  14
HETATM   14  C4  UNL     1      -2.824   3.625  55.242  1.00  0.00     0.076 C 
BRANCH  14  15
HETATM   15  S1  UNL     1      -2.488   5.197  54.415  1.00  0.00    -0.137 SA
BRANCH  15  16
HETATM   16  C3  UNL     1      -2.489   5.004  52.606  1.00  0.00     0.195 C 
HETATM   17  O1  UNL     1      -2.097   3.712  52.316  1.00  0.00    -0.365 OA
HETATM   18  C2  UNL     1      -2.961   3.170  51.407  1.00  0.00     0.181 C 
HETATM   19  C1  UNL     1      -3.168   1.680  51.695  1.00  0.00     0.045 C 
HETATM   20  C17 UNL     1      -4.283   3.870  51.563  1.00  0.00     0.195 C 
HETATM   21  C13 UNL     1      -3.883   5.196  52.123  1.00  0.00     0.123 C 
BRANCH  20  22
HETATM   22  O7  UNL     1      -4.942   3.992  50.342  1.00  0.00    -0.363 OA
ATOM     23  H7  UNL     1      -4.409   4.450  49.702  1.00  0.00     0.213 HD
ENDBRANCH  20  22
BRANCH  20  24
HETATM   24  O8  UNL     1      -5.059   3.111  52.450  1.00  0.00    -0.363 OA
ATOM     25  H8  UNL     1      -5.325   3.685  53.160  1.00  0.00     0.213 HD
ENDBRANCH  20  24
BRANCH  21  26
HETATM   26  C14 UNL     1      -4.012   6.328  51.126  1.00  0.00     0.062 C 
HETATM   27  C15 UNL     1      -3.398   7.561  51.785  1.00  0.00     0.046 C 
HETATM   28  C16 UNL     1      -3.264   6.077  49.855  1.00  0.00     0.046 C 
BRANCH  26  29
HETATM   29  O6  UNL     1      -5.361   6.590  50.943  1.00  0.00    -0.390 OA
ATOM     30  H6  UNL     1      -5.703   5.959  50.320  1.00  0.00     0.210 HD
ENDBRANCH  26  29
ENDBRANCH  21  26
ENDBRANCH  15  16
ENDBRANCH  14  15
ENDBRANCH  13  14
ENDBRANCH  12  13
ENDBRANCH   1  12
BRANCH  10  31
HETATM   31  C12 UNL     1      -8.927   4.627  53.585  1.00  0.00     0.186 C 
BRANCH  31  32
HETATM   32  O5  UNL     1     -10.198   5.176  53.418  1.00  0.00    -0.399 OA
ATOM     33  H5  UNL     1     -10.767   4.762  54.056  1.00  0.00     0.209 HD
ENDBRANCH  31  32
ENDBRANCH  10  31
BRANCH   7  34
HETATM   34  N2  UNL     1     -11.134   2.354  57.622  1.00  0.00    -0.045 N 
ATOM     35  H23 UNL     1     -11.771   3.144  57.525  1.00  0.00     0.277 HD
ATOM     36  H22 UNL     1     -11.550   1.730  56.930  1.00  0.00     0.277 HD
ATOM     37  H21 UNL     1     -11.175   1.953  58.559  1.00  0.00     0.277 HD
ENDBRANCH   7  34
BRANCH   8  38
HETATM   38  O3  UNL     1     -10.240   4.317  58.910  1.00  0.00    -0.367 OA
ATOM     39  H3  UNL     1     -10.444   5.198  58.620  1.00  0.00     0.212 HD
ENDBRANCH   8  38
TORSDOF 13
ENDMDL
MODEL 5
REMARK VINA RESULT: -6.306340585      2.806      4.142
REMARK  13 active torsions:
REMARK  status: ('A' for Active; 'I' for Inactive)
REMARK    1  A    between atoms: C3_4  and  S1_5 
REMARK    2  A    between atoms: S1_5  and  C4_6 
REMARK    3  A    between atoms: C4_6  and  C5_7 
REMARK    4  A    between atoms: C5_7  and  C6_8 
REMARK    5  A    between atoms: C6_8  and  C7_9 
REMARK    6  A    between atoms: C9_15  and  N2_16 
REMARK    7  A    between atoms: C10_20  and  O3_21 
REMARK    8  A    between atoms: C11_24  and  C12_25 
REMARK    9  A    between atoms: C12_25  and  O5_26 
REMARK   10  A    between atoms: C13_29  and  C14_30 
REMARK   11  A    between atoms: C14_30  and  O6_33 
REMARK   12  A    between atoms: C17_35  and  O7_36 
REMARK   13  A    between atoms: C17_35  and  O8_38 
ROOT
HETATM    1  C7  UNL     1      -5.679   4.257  56.112  1.00  0.00     0.189 C 
HETATM    2  O2  UNL     1      -5.420   5.417  55.377  1.00  0.00    -0.316 OA
HETATM    3  C8  UNL     1      -6.400   6.340  55.640  1.00  0.00     0.358 C 
HETATM    4  N1  UNL     1      -6.172   7.476  54.782  1.00  0.00     0.018 N 
ATOM      5  H11 UNL     1      -5.236   7.876  54.836  1.00  0.00     0.286 HD
ATOM      6  H12 UNL     1      -6.657   8.330  55.057  1.00  0.00     0.286 HD
HETATM    7  C9  UNL     1      -6.543   6.948  53.482  1.00  0.00     0.440 C 
HETATM    8  C10 UNL     1      -7.643   5.990  53.827  1.00  0.00     0.320 C 
HETATM    9  O4  UNL     1      -7.650   5.841  55.213  1.00  0.00    -0.297 OA
HETATM   10  C11 UNL     1      -6.438   6.662  57.098  1.00  0.00     0.166 C 
HETATM   11  S2  UNL     1      -5.865   5.042  57.772  1.00  0.00    -0.123 SA
ENDROOT
BRANCH   1  12
HETATM   12  C6  UNL     1      -4.482   3.360  56.068  1.00  0.00     0.044 C 
BRANCH  12  13
HETATM   13  C5  UNL     1      -3.186   4.114  56.257  1.00  0.00     0.013 C 
BRANCH  13  14
HETATM   14  C4  UNL     1      -2.288   3.756  55.090  1.00  0.00     0.076 C 
BRANCH  14  15
HETATM   15  S1  UNL     1      -2.142   5.218  54.038  1.00  0.00    -0.137 SA
BRANCH  15  16
HETATM   16  C3  UNL     1      -2.348   4.792  52.281  1.00  0.00     0.195 C 
HETATM   17  O1  UNL     1      -2.128   3.435  52.145  1.00  0.00    -0.365 OA
HETATM   18  C2  UNL     1      -3.133   2.886  51.400  1.00  0.00     0.181 C 
HETATM   19  C1  UNL     1      -3.469   1.483  51.914  1.00  0.00     0.045 C 
HETATM   20  C17 UNL     1      -4.350   3.754  51.568  1.00  0.00     0.195 C 
HETATM   21  C13 UNL     1      -3.755   5.085  51.898  1.00  0.00     0.123 C 
BRANCH  20  22
HETATM   22  O7  UNL     1      -5.113   3.794  50.404  1.00  0.00    -0.363 OA
ATOM     23  H7  UNL     1      -5.907   3.279  50.490  1.00  0.00     0.213 HD
ENDBRANCH  20  22
BRANCH  20  24
HETATM   24  O8  UNL     1      -5.108   3.218  52.618  1.00  0.00    -0.363 OA
ATOM     25  H8  UNL     1      -5.610   2.491  52.266  1.00  0.00     0.213 HD
ENDBRANCH  20  24
BRANCH  21  26
HETATM   26  C14 UNL     1      -3.862   6.083  50.766  1.00  0.00     0.062 C 
HETATM   27  C15 UNL     1      -3.130   7.343  51.223  1.00  0.00     0.046 C 
HETATM   28  C16 UNL     1      -3.205   5.614  49.506  1.00  0.00     0.046 C 
BRANCH  26  29
HETATM   29  O6  UNL     1      -5.199   6.419  50.612  1.00  0.00    -0.390 OA
ATOM     30  H6  UNL     1      -5.245   7.230  50.118  1.00  0.00     0.210 HD
ENDBRANCH  26  29
ENDBRANCH  21  26
ENDBRANCH  15  16
ENDBRANCH  14  15
ENDBRANCH  13  14
ENDBRANCH  12  13
ENDBRANCH   1  12
BRANCH  10  31
HETATM   31  C12 UNL     1      -5.495   7.768  57.501  1.00  0.00     0.186 C 
BRANCH  31  32
HETATM   32  O5  UNL     1      -4.209   7.357  57.152  1.00  0.00    -0.399 OA
ATOM     33  H5  UNL     1      -3.630   8.093  57.305  1.00  0.00     0.209 HD
ENDBRANCH  31  32
ENDBRANCH  10  31
BRANCH   7  34
HETATM   34  N2  UNL     1      -6.967   7.999  52.590  1.00  0.00    -0.045 N 
ATOM     35  H23 UNL     1      -7.984   8.057  52.539  1.00  0.00     0.277 HD
ATOM     36  H22 UNL     1      -6.776   8.921  52.983  1.00  0.00     0.277 HD
ATOM     37  H21 UNL     1      -6.551   7.892  51.665  1.00  0.00     0.277 HD
ENDBRANCH   7  34
BRANCH   8  38
HETATM   38  O3  UNL     1      -8.834   6.488  53.331  1.00  0.00    -0.367 OA
ATOM     39  H3  UNL     1      -9.143   7.171  53.914  1.00  0.00     0.212 HD
ENDBRANCH   8  38
TORSDOF 13
ENDMDL
