MODEL 1
REMARK VINA RESULT: -10.307190297      0.000      0.000
REMARK  17 active torsions:
REMARK  status: ('A' for Active; 'I' for Inactive)
REMARK    1  A    between atoms: O1_2  and  C2_3 
REMARK    2  A    between atoms: C5_6  and  C6_7 
REMARK    3  A    between atoms: C6_7  and  C7_13 
REMARK    4  A    between atoms: N1_8  and  N2_10 
REMARK    5  A    between atoms: C11_17  and  O2_18 
REMARK    6  A    between atoms: C12_20  and  O3_21 
REMARK    7  A    between atoms: C17_26  and  C18_27 
REMARK    8  A    between atoms: C18_27  and  O4_28 
REMARK    9  A    between atoms: C18_27  and  C19_30 
REMARK   10  A    between atoms: C22_33  and  N3_34 
REMARK   11  A    between atoms: N3_34  and  C23_36 
REMARK   12  A    between atoms: C23_36  and  C24_40 
REMARK   13  A    between atoms: C26_42  and  O5_43 
REMARK   14  A    between atoms: C28_45  and  O6_46 
REMARK   15  A    between atoms: C30_48  and  O7_49 
REMARK   16  A    between atoms: C33_52  and  O8_53 
REMARK   17  A    between atoms: C37_57  and  O9_58 
ROOT
HETATM    1  C7  UNL     1      15.885   2.049 -13.964  1.00  0.00     0.007 A 
HETATM    2  C8  UNL     1      16.205   2.905 -14.984  1.00  0.00     0.027 A 
HETATM    3  C9  UNL     1      17.463   3.473 -15.171  1.00  0.00    -0.022 A 
HETATM    4  C10 UNL     1      17.710   4.338 -16.217  1.00  0.00     0.051 A 
HETATM    5  C11 UNL     1      18.970   4.882 -16.351  1.00  0.00     0.099 A 
HETATM    6  C12 UNL     1      19.989   4.577 -15.459  1.00  0.00     0.102 A 
HETATM    7  C14 UNL     1      19.726   3.713 -14.426  1.00  0.00     0.052 A 
HETATM    8  C15 UNL     1      18.453   3.160 -14.283  1.00  0.00    -0.022 A 
HETATM    9  C16 UNL     1      18.185   2.311 -13.250  1.00  0.00     0.027 A 
HETATM   10  C17 UNL     1      16.916   1.738 -13.057  1.00  0.00     0.011 A 
ENDROOT
BRANCH  10  11
HETATM   11  C18 UNL     1      16.632   0.998 -11.853  1.00  0.00     0.087 C 
BRANCH  11  12
HETATM   12  O4  UNL     1      16.945  -0.275 -11.831  1.00  0.00    -0.359 OA
ATOM     13  H4  UNL     1      17.815  -0.512 -11.529  1.00  0.00     0.217 HD
ENDBRANCH  11  12
BRANCH  11  14
HETATM   14  C19 UNL     1      16.042   1.468 -10.642  1.00  0.00     0.001 A 
HETATM   15  C20 UNL     1      16.557   2.513  -9.925  1.00  0.00     0.017 A 
HETATM   16  C21 UNL     1      15.958   2.995  -8.751  1.00  0.00     0.033 A 
HETATM   17  C22 UNL     1      14.819   2.411  -8.286  1.00  0.00     0.067 A 
HETATM   18  C33 UNL     1      14.272   1.337  -9.000  1.00  0.00     0.095 A 
HETATM   19  C35 UNL     1      14.862   0.882 -10.138  1.00  0.00     0.053 A 
BRANCH  17  20
HETATM   20  N3  UNL     1      14.200   2.875  -7.107  1.00  0.00    -0.340 N 
ATOM     21  H3  UNL     1      13.292   3.334  -7.175  1.00  0.00     0.167 HD
BRANCH  20  22
HETATM   22  C23 UNL     1      14.801   2.723  -5.829  1.00  0.00     0.109 C 
HETATM   23  N4  UNL     1      15.303   3.718  -5.228  1.00  0.00    -0.385 N 
ATOM     24  H42 UNL     1      15.289   4.636  -5.674  1.00  0.00     0.157 HD
ATOM     25  H41 UNL     1      15.734   3.610  -4.310  1.00  0.00     0.157 HD
BRANCH  22  26
HETATM   26  C24 UNL     1      14.820   1.408  -5.191  1.00  0.00     0.013 A 
HETATM   27  C25 UNL     1      15.743   1.235  -4.142  1.00  0.00     0.055 A 
HETATM   28  C26 UNL     1      15.843   0.037  -3.503  1.00  0.00     0.105 A 
HETATM   29  C28 UNL     1      15.023  -1.002  -3.908  1.00  0.00     0.135 A 
HETATM   30  C30 UNL     1      14.111  -0.836  -4.943  1.00  0.00     0.105 A 
HETATM   31  C32 UNL     1      14.009   0.379  -5.588  1.00  0.00     0.055 A 
BRANCH  28  32
HETATM   32  O5  UNL     1      16.739  -0.150  -2.468  1.00  0.00    -0.353 OA
HETATM   33  C27 UNL     1      18.074  -0.477  -2.759  1.00  0.00     0.210 C 
ENDBRANCH  28  32
BRANCH  29  34
HETATM   34  O6  UNL     1      15.150  -2.199  -3.244  1.00  0.00    -0.351 OA
HETATM   35  C29 UNL     1      15.970  -3.217  -3.834  1.00  0.00     0.210 C 
ENDBRANCH  29  34
BRANCH  30  36
HETATM   36  O7  UNL     1      13.326  -1.924  -5.293  1.00  0.00    -0.353 OA
HETATM   37  C31 UNL     1      13.586  -2.535  -6.553  1.00  0.00     0.210 C 
ENDBRANCH  30  36
ENDBRANCH  22  26
ENDBRANCH  20  22
ENDBRANCH  17  20
BRANCH  18  38
HETATM   38  O8  UNL     1      13.124   0.772  -8.501  1.00  0.00    -0.354 OA
HETATM   39  C34 UNL     1      12.099   0.253  -9.290  1.00  0.00     0.210 C 
ENDBRANCH  18  38
ENDBRANCH  11  14
ENDBRANCH  10  11
BRANCH   1  40
HETATM   40  C6  UNL     1      14.605   1.328 -13.917  1.00  0.00     0.069 C 
HETATM   41  N1  UNL     1      14.621   0.116 -14.121  1.00  0.00    -0.306 N 
ATOM     42  H1  UNL     1      15.555  -0.172 -14.410  1.00  0.00     0.186 HD
BRANCH  40  43
HETATM   43  C5  UNL     1      13.362   2.012 -13.506  1.00  0.00    -0.004 A 
HETATM   44  C4  UNL     1      13.173   2.447 -12.210  1.00  0.00     0.017 A 
HETATM   45  C3  UNL     1      12.085   3.186 -11.788  1.00  0.00     0.040 A 
HETATM   46  C2  UNL     1      11.121   3.517 -12.710  1.00  0.00     0.101 A 
HETATM   47  C37 UNL     1      11.269   3.098 -14.033  1.00  0.00     0.099 A 
HETATM   48  C36 UNL     1      12.372   2.366 -14.394  1.00  0.00     0.053 A 
BRANCH  46  49
HETATM   49  O1  UNL     1      10.021   4.255 -12.318  1.00  0.00    -0.353 OA
HETATM   50  C1  UNL     1       9.891   4.900 -11.090  1.00  0.00     0.210 C 
ENDBRANCH  46  49
BRANCH  47  51
HETATM   51  O9  UNL     1      10.263   3.456 -14.934  1.00  0.00    -0.358 OA
ATOM     52  H9  UNL     1      10.252   3.011 -15.774  1.00  0.00     0.217 HD
ENDBRANCH  47  51
ENDBRANCH  40  43
BRANCH  41  53
HETATM   53  N2  UNL     1      13.810  -0.949 -14.087  1.00  0.00    -0.345 N 
ATOM     54  H22 UNL     1      13.766  -1.345 -15.027  1.00  0.00     0.176 HD
ATOM     55  H21 UNL     1      13.235  -1.481 -13.434  1.00  0.00     0.176 HD
ENDBRANCH  41  53
ENDBRANCH   1  40
BRANCH   6  56
HETATM   56  O3  UNL     1      21.240   5.130 -15.607  1.00  0.00    -0.353 OA
HETATM   57  C13 UNL     1      22.412   4.351 -15.740  1.00  0.00     0.210 C 
ENDBRANCH   6  56
BRANCH   5  58
HETATM   58  O2  UNL     1      19.294   5.763 -17.381  1.00  0.00    -0.358 OA
ATOM     59  H2  UNL     1      18.719   5.907 -18.124  1.00  0.00     0.217 HD
ENDBRANCH   5  58
TORSDOF 17
ENDMDL
MODEL 2
REMARK VINA RESULT: -10.212691081      2.670      9.352
REMARK  17 active torsions:
REMARK  status: ('A' for Active; 'I' for Inactive)
REMARK    1  A    between atoms: O1_2  and  C2_3 
REMARK    2  A    between atoms: C5_6  and  C6_7 
REMARK    3  A    between atoms: C6_7  and  C7_13 
REMARK    4  A    between atoms: N1_8  and  N2_10 
REMARK    5  A    between atoms: C11_17  and  O2_18 
REMARK    6  A    between atoms: C12_20  and  O3_21 
REMARK    7  A    between atoms: C17_26  and  C18_27 
REMARK    8  A    between atoms: C18_27  and  O4_28 
REMARK    9  A    between atoms: C18_27  and  C19_30 
REMARK   10  A    between atoms: C22_33  and  N3_34 
REMARK   11  A    between atoms: N3_34  and  C23_36 
REMARK   12  A    between atoms: C23_36  and  C24_40 
REMARK   13  A    between atoms: C26_42  and  O5_43 
REMARK   14  A    between atoms: C28_45  and  O6_46 
REMARK   15  A    between atoms: C30_48  and  O7_49 
REMARK   16  A    between atoms: C33_52  and  O8_53 
REMARK   17  A    between atoms: C37_57  and  O9_58 
ROOT
HETATM    1  C7  UNL     1      10.884   4.005 -10.380  1.00  0.00     0.007 A 
HETATM    2  C8  UNL     1      10.823   5.098  -9.557  1.00  0.00     0.027 A 
HETATM    3  C9  UNL     1      10.789   6.419 -10.001  1.00  0.00    -0.022 A 
HETATM    4  C10 UNL     1      10.740   7.472  -9.111  1.00  0.00     0.051 A 
HETATM    5  C11 UNL     1      10.720   8.761  -9.603  1.00  0.00     0.099 A 
HETATM    6  C12 UNL     1      10.748   9.017 -10.967  1.00  0.00     0.102 A 
HETATM    7  C14 UNL     1      10.796   7.956 -11.837  1.00  0.00     0.052 A 
HETATM    8  C15 UNL     1      10.817   6.649 -11.347  1.00  0.00    -0.022 A 
HETATM    9  C16 UNL     1      10.877   5.594 -12.209  1.00  0.00     0.027 A 
HETATM   10  C17 UNL     1      10.913   4.261 -11.765  1.00  0.00     0.011 A 
ENDROOT
BRANCH  10  11
HETATM   11  C18 UNL     1      11.162   3.193 -12.699  1.00  0.00     0.087 C 
BRANCH  11  12
HETATM   12  O4  UNL     1      10.123   2.612 -13.252  1.00  0.00    -0.359 OA
ATOM     13  H4  UNL     1       9.869   2.897 -14.122  1.00  0.00     0.217 HD
ENDBRANCH  11  12
BRANCH  11  14
HETATM   14  C19 UNL     1      12.415   2.662 -13.126  1.00  0.00     0.001 A 
HETATM   15  C20 UNL     1      13.097   3.152 -14.205  1.00  0.00     0.017 A 
HETATM   16  C21 UNL     1      14.345   2.649 -14.605  1.00  0.00     0.033 A 
HETATM   17  C22 UNL     1      14.917   1.629 -13.906  1.00  0.00     0.067 A 
HETATM   18  C33 UNL     1      14.238   1.108 -12.799  1.00  0.00     0.095 A 
HETATM   19  C35 UNL     1      13.030   1.606 -12.420  1.00  0.00     0.053 A 
BRANCH  17  20
HETATM   20  N3  UNL     1      16.169   1.106 -14.290  1.00  0.00    -0.340 N 
ATOM     21  H3  UNL     1      16.211   0.449 -15.069  1.00  0.00     0.167 HD
BRANCH  20  22
HETATM   22  C23 UNL     1      17.372   1.462 -13.625  1.00  0.00     0.109 C 
HETATM   23  N4  UNL     1      17.731   0.863 -12.568  1.00  0.00    -0.385 N 
ATOM     24  H42 UNL     1      17.140   0.126 -12.182  1.00  0.00     0.157 HD
ATOM     25  H41 UNL     1      18.595   1.119 -12.091  1.00  0.00     0.157 HD
BRANCH  22  26
HETATM   26  C24 UNL     1      18.218   2.518 -14.179  1.00  0.00     0.013 A 
HETATM   27  C25 UNL     1      19.434   2.760 -13.513  1.00  0.00     0.055 A 
HETATM   28  C26 UNL     1      20.276   3.738 -13.948  1.00  0.00     0.105 A 
HETATM   29  C28 UNL     1      19.909   4.487 -15.053  1.00  0.00     0.135 A 
HETATM   30  C30 UNL     1      18.709   4.252 -15.713  1.00  0.00     0.105 A 
HETATM   31  C32 UNL     1      17.859   3.260 -15.272  1.00  0.00     0.055 A 
BRANCH  28  32
HETATM   32  O5  UNL     1      21.477   3.985 -13.311  1.00  0.00    -0.353 OA
HETATM   33  C27 UNL     1      22.491   3.014 -13.344  1.00  0.00     0.210 C 
ENDBRANCH  28  32
BRANCH  29  34
HETATM   34  O6  UNL     1      20.780   5.468 -15.465  1.00  0.00    -0.351 OA
HETATM   35  C29 UNL     1      21.753   5.133 -16.463  1.00  0.00     0.210 C 
ENDBRANCH  29  34
BRANCH  30  36
HETATM   36  O7  UNL     1      18.409   5.045 -16.810  1.00  0.00    -0.353 OA
HETATM   37  C31 UNL     1      17.302   4.652 -17.613  1.00  0.00     0.210 C 
ENDBRANCH  30  36
ENDBRANCH  22  26
ENDBRANCH  20  22
ENDBRANCH  17  20
BRANCH  18  38
HETATM   38  O8  UNL     1      14.844   0.079 -12.119  1.00  0.00    -0.354 OA
HETATM   39  C34 UNL     1      14.681  -0.163 -10.756  1.00  0.00     0.210 C 
ENDBRANCH  18  38
ENDBRANCH  11  14
ENDBRANCH  10  11
BRANCH   1  40
HETATM   40  C6  UNL     1      10.724   2.634  -9.876  1.00  0.00     0.069 C 
HETATM   41  N1  UNL     1       9.797   1.962 -10.324  1.00  0.00    -0.306 N 
ATOM     42  H1  UNL     1       9.206   2.544 -10.917  1.00  0.00     0.186 HD
BRANCH  40  43
HETATM   43  C5  UNL     1      11.722   2.039  -8.964  1.00  0.00    -0.004 A 
HETATM   44  C4  UNL     1      12.659   2.815  -8.313  1.00  0.00     0.017 A 
HETATM   45  C3  UNL     1      13.545   2.337  -7.369  1.00  0.00     0.040 A 
HETATM   46  C2  UNL     1      13.502   1.001  -7.047  1.00  0.00     0.101 A 
HETATM   47  C37 UNL     1      12.572   0.176  -7.680  1.00  0.00     0.099 A 
HETATM   48  C36 UNL     1      11.715   0.709  -8.611  1.00  0.00     0.053 A 
BRANCH  46  49
HETATM   49  O1  UNL     1      14.376   0.494  -6.106  1.00  0.00    -0.353 OA
HETATM   50  C1  UNL     1      14.683   1.104  -4.893  1.00  0.00     0.210 C 
ENDBRANCH  46  49
BRANCH  47  51
HETATM   51  O9  UNL     1      12.565  -1.174  -7.323  1.00  0.00    -0.358 OA
ATOM     52  H9  UNL     1      11.858  -1.711  -7.660  1.00  0.00     0.217 HD
ENDBRANCH  47  51
ENDBRANCH  40  43
BRANCH  41  53
HETATM   53  N2  UNL     1       9.311   0.715 -10.286  1.00  0.00    -0.345 N 
ATOM     54  H22 UNL     1       8.349   0.738 -10.626  1.00  0.00     0.176 HD
ATOM     55  H21 UNL     1       9.591  -0.233 -10.031  1.00  0.00     0.176 HD
ENDBRANCH  41  53
ENDBRANCH   1  40
BRANCH   6  56
HETATM   56  O3  UNL     1      10.730  10.308 -11.439  1.00  0.00    -0.353 OA
HETATM   57  C13 UNL     1       9.570  10.912 -11.976  1.00  0.00     0.210 C 
ENDBRANCH   6  56
BRANCH   5  58
HETATM   58  O2  UNL     1      10.671   9.874  -8.767  1.00  0.00    -0.358 OA
ATOM     59  H2  UNL     1      10.357  10.719  -9.066  1.00  0.00     0.217 HD
ENDBRANCH   5  58
TORSDOF 17
ENDMDL
MODEL 3
REMARK VINA RESULT: -10.200185836      2.957      9.363
REMARK  17 active torsions:
REMARK  status: ('A' for Active; 'I' for Inactive)
REMARK    1  A    between atoms: O1_2  and  C2_3 
REMARK    2  A    between atoms: C5_6  and  C6_7 
REMARK    3  A    between atoms: C6_7  and  C7_13 
REMARK    4  A    between atoms: N1_8  and  N2_10 
REMARK    5  A    between atoms: C11_17  and  O2_18 
REMARK    6  A    between atoms: C12_20  and  O3_21 
REMARK    7  A    between atoms: C17_26  and  C18_27 
REMARK    8  A    between atoms: C18_27  and  O4_28 
REMARK    9  A    between atoms: C18_27  and  C19_30 
REMARK   10  A    between atoms: C22_33  and  N3_34 
REMARK   11  A    between atoms: N3_34  and  C23_36 
REMARK   12  A    between atoms: C23_36  and  C24_40 
REMARK   13  A    between atoms: C26_42  and  O5_43 
REMARK   14  A    between atoms: C28_45  and  O6_46 
REMARK   15  A    between atoms: C30_48  and  O7_49 
REMARK   16  A    between atoms: C33_52  and  O8_53 
REMARK   17  A    between atoms: C37_57  and  O9_58 
ROOT
HETATM    1  C7  UNL     1      11.838   4.537 -10.423  1.00  0.00     0.007 A 
HETATM    2  C8  UNL     1      11.808   5.817  -9.936  1.00  0.00     0.027 A 
HETATM    3  C9  UNL     1      11.293   6.912 -10.628  1.00  0.00    -0.022 A 
HETATM    4  C10 UNL     1      11.307   8.177 -10.078  1.00  0.00     0.051 A 
HETATM    5  C11 UNL     1      10.795   9.229 -10.809  1.00  0.00     0.099 A 
HETATM    6  C12 UNL     1      10.268   9.039 -12.080  1.00  0.00     0.102 A 
HETATM    7  C14 UNL     1      10.261   7.773 -12.609  1.00  0.00     0.052 A 
HETATM    8  C15 UNL     1      10.778   6.704 -11.876  1.00  0.00    -0.022 A 
HETATM    9  C16 UNL     1      10.784   5.447 -12.405  1.00  0.00     0.027 A 
HETATM   10  C17 UNL     1      11.305   4.342 -11.711  1.00  0.00     0.011 A 
ENDROOT
BRANCH  10  11
HETATM   11  C18 UNL     1      11.458   3.074 -12.380  1.00  0.00     0.087 C 
BRANCH  11  12
HETATM   12  O4  UNL     1      10.402   2.300 -12.469  1.00  0.00    -0.359 OA
ATOM     13  H4  UNL     1       9.840   2.405 -13.228  1.00  0.00     0.217 HD
ENDBRANCH  11  12
BRANCH  11  14
HETATM   14  C19 UNL     1      12.629   2.524 -12.980  1.00  0.00     0.001 A 
HETATM   15  C20 UNL     1      13.255   3.105 -14.048  1.00  0.00     0.017 A 
HETATM   16  C21 UNL     1      14.425   2.579 -14.618  1.00  0.00     0.033 A 
HETATM   17  C22 UNL     1      14.975   1.444 -14.105  1.00  0.00     0.067 A 
HETATM   18  C33 UNL     1      14.352   0.828 -13.013  1.00  0.00     0.095 A 
HETATM   19  C35 UNL     1      13.219   1.349 -12.468  1.00  0.00     0.053 A 
BRANCH  17  20
HETATM   20  N3  UNL     1      16.149   0.896 -14.661  1.00  0.00    -0.340 N 
ATOM     21  H3  UNL     1      16.073   0.304 -15.489  1.00  0.00     0.167 HD
BRANCH  20  22
HETATM   22  C23 UNL     1      17.433   1.140 -14.106  1.00  0.00     0.109 C 
HETATM   23  N4  UNL     1      17.942   0.335 -13.271  1.00  0.00    -0.385 N 
ATOM     24  H42 UNL     1      17.416  -0.491 -12.983  1.00  0.00     0.157 HD
ATOM     25  H41 UNL     1      18.864   0.510 -12.873  1.00  0.00     0.157 HD
BRANCH  22  26
HETATM   26  C24 UNL     1      18.186   2.323 -14.520  1.00  0.00     0.013 A 
HETATM   27  C25 UNL     1      19.333   2.630 -13.765  1.00  0.00     0.055 A 
HETATM   28  C26 UNL     1      20.084   3.725 -14.066  1.00  0.00     0.105 A 
HETATM   29  C28 UNL     1      19.694   4.526 -15.126  1.00  0.00     0.135 A 
HETATM   30  C30 UNL     1      18.563   4.227 -15.874  1.00  0.00     0.105 A 
HETATM   31  C32 UNL     1      17.804   3.116 -15.568  1.00  0.00     0.055 A 
BRANCH  28  32
HETATM   32  O5  UNL     1      21.217   4.039 -13.340  1.00  0.00    -0.353 OA
HETATM   33  C27 UNL     1      22.345   3.208 -13.424  1.00  0.00     0.210 C 
ENDBRANCH  28  32
BRANCH  29  34
HETATM   34  O6  UNL     1      20.473   5.625 -15.404  1.00  0.00    -0.351 OA
HETATM   35  C29 UNL     1      21.533   5.480 -16.358  1.00  0.00     0.210 C 
ENDBRANCH  29  34
BRANCH  30  36
HETATM   36  O7  UNL     1      18.235   5.077 -16.919  1.00  0.00    -0.353 OA
HETATM   37  C31 UNL     1      18.203   4.518 -18.228  1.00  0.00     0.210 C 
ENDBRANCH  30  36
ENDBRANCH  22  26
ENDBRANCH  20  22
ENDBRANCH  17  20
BRANCH  18  38
HETATM   38  O8  UNL     1      14.933  -0.316 -12.522  1.00  0.00    -0.354 OA
HETATM   39  C34 UNL     1      15.214  -0.537 -11.175  1.00  0.00     0.210 C 
ENDBRANCH  18  38
ENDBRANCH  11  14
ENDBRANCH  10  11
BRANCH   1  40
HETATM   40  C6  UNL     1      12.213   3.389  -9.586  1.00  0.00     0.069 C 
HETATM   41  N1  UNL     1      11.423   2.450  -9.511  1.00  0.00    -0.306 N 
ATOM     42  H1  UNL     1      10.552   2.696  -9.981  1.00  0.00     0.186 HD
BRANCH  40  43
HETATM   43  C5  UNL     1      13.551   3.306  -8.965  1.00  0.00    -0.004 A 
HETATM   44  C4  UNL     1      13.720   3.403  -7.599  1.00  0.00     0.017 A 
HETATM   45  C3  UNL     1      14.925   3.226  -6.949  1.00  0.00     0.040 A 
HETATM   46  C2  UNL     1      16.037   2.933  -7.701  1.00  0.00     0.101 A 
HETATM   47  C37 UNL     1      15.916   2.826  -9.087  1.00  0.00     0.099 A 
HETATM   48  C36 UNL     1      14.691   3.012  -9.677  1.00  0.00     0.053 A 
BRANCH  46  49
HETATM   49  O1  UNL     1      17.257   2.751  -7.079  1.00  0.00    -0.353 OA
HETATM   50  C1  UNL     1      17.441   2.636  -5.703  1.00  0.00     0.210 C 
ENDBRANCH  46  49
BRANCH  47  51
HETATM   51  O9  UNL     1      17.074   2.529  -9.810  1.00  0.00    -0.358 OA
ATOM     52  H9  UNL     1      17.427   3.212 -10.368  1.00  0.00     0.217 HD
ENDBRANCH  47  51
ENDBRANCH  40  43
BRANCH  41  53
HETATM   53  N2  UNL     1      11.334   1.210  -9.014  1.00  0.00    -0.345 N 
ATOM     54  H22 UNL     1      12.274   0.817  -8.971  1.00  0.00     0.176 HD
ATOM     55  H21 UNL     1      10.639   0.547  -8.670  1.00  0.00     0.176 HD
ENDBRANCH  41  53
ENDBRANCH   1  40
BRANCH   6  56
HETATM   56  O3  UNL     1       9.763  10.099 -12.795  1.00  0.00    -0.353 OA
HETATM   57  C13 UNL     1       8.757   9.952 -13.777  1.00  0.00     0.210 C 
ENDBRANCH   6  56
BRANCH   5  58
HETATM   58  O2  UNL     1      10.775  10.533 -10.321  1.00  0.00    -0.358 OA
ATOM     59  H2  UNL     1       9.995  10.921  -9.942  1.00  0.00     0.217 HD
ENDBRANCH   5  58
TORSDOF 17
ENDMDL
MODEL 4
REMARK VINA RESULT: -10.193139172      1.800      2.569
REMARK  17 active torsions:
REMARK  status: ('A' for Active; 'I' for Inactive)
REMARK    1  A    between atoms: O1_2  and  C2_3 
REMARK    2  A    between atoms: C5_6  and  C6_7 
REMARK    3  A    between atoms: C6_7  and  C7_13 
REMARK    4  A    between atoms: N1_8  and  N2_10 
REMARK    5  A    between atoms: C11_17  and  O2_18 
REMARK    6  A    between atoms: C12_20  and  O3_21 
REMARK    7  A    between atoms: C17_26  and  C18_27 
REMARK    8  A    between atoms: C18_27  and  O4_28 
REMARK    9  A    between atoms: C18_27  and  C19_30 
REMARK   10  A    between atoms: C22_33  and  N3_34 
REMARK   11  A    between atoms: N3_34  and  C23_36 
REMARK   12  A    between atoms: C23_36  and  C24_40 
REMARK   13  A    between atoms: C26_42  and  O5_43 
REMARK   14  A    between atoms: C28_45  and  O6_46 
REMARK   15  A    between atoms: C30_48  and  O7_49 
REMARK   16  A    between atoms: C33_52  and  O8_53 
REMARK   17  A    between atoms: C37_57  and  O9_58 
ROOT
HETATM    1  C7  UNL     1      13.816   2.209 -13.156  1.00  0.00     0.007 A 
HETATM    2  C8  UNL     1      14.152   2.804 -14.342  1.00  0.00     0.027 A 
HETATM    3  C9  UNL     1      15.459   3.004 -14.782  1.00  0.00    -0.022 A 
HETATM    4  C10 UNL     1      15.722   3.623 -15.986  1.00  0.00     0.051 A 
HETATM    5  C11 UNL     1      17.035   3.807 -16.369  1.00  0.00     0.099 A 
HETATM    6  C12 UNL     1      18.089   3.383 -15.571  1.00  0.00     0.102 A 
HETATM    7  C14 UNL     1      17.807   2.767 -14.377  1.00  0.00     0.052 A 
HETATM    8  C15 UNL     1      16.482   2.579 -13.983  1.00  0.00    -0.022 A 
HETATM    9  C16 UNL     1      16.199   1.979 -12.791  1.00  0.00     0.027 A 
HETATM   10  C17 UNL     1      14.883   1.778 -12.343  1.00  0.00     0.011 A 
ENDROOT
BRANCH  10  11
HETATM   11  C18 UNL     1      14.637   1.310 -11.003  1.00  0.00     0.087 C 
BRANCH  11  12
HETATM   12  O4  UNL     1      14.370   0.036 -10.840  1.00  0.00    -0.359 OA
ATOM     13  H4  UNL     1      13.935  -0.419 -11.552  1.00  0.00     0.217 HD
ENDBRANCH  11  12
BRANCH  11  14
HETATM   14  C19 UNL     1      14.646   2.057  -9.788  1.00  0.00     0.001 A 
HETATM   15  C20 UNL     1      13.501   2.501  -9.184  1.00  0.00     0.017 A 
HETATM   16  C21 UNL     1      13.509   3.209  -7.972  1.00  0.00     0.033 A 
HETATM   17  C22 UNL     1      14.693   3.478  -7.355  1.00  0.00     0.067 A 
HETATM   18  C33 UNL     1      15.880   3.037  -7.954  1.00  0.00     0.095 A 
HETATM   19  C35 UNL     1      15.858   2.350  -9.128  1.00  0.00     0.053 A 
BRANCH  17  20
HETATM   20  N3  UNL     1      14.727   4.190  -6.139  1.00  0.00    -0.340 N 
ATOM     21  H3  UNL     1      15.366   4.979  -6.047  1.00  0.00     0.167 HD
BRANCH  20  22
HETATM   22  C23 UNL     1      13.901   3.841  -5.037  1.00  0.00     0.109 C 
HETATM   23  N4  UNL     1      13.106   4.687  -4.531  1.00  0.00    -0.385 N 
ATOM     24  H42 UNL     1      13.070   5.634  -4.909  1.00  0.00     0.157 HD
ATOM     25  H41 UNL     1      12.512   4.436  -3.740  1.00  0.00     0.157 HD
BRANCH  22  26
HETATM   26  C24 UNL     1      13.952   2.484  -4.496  1.00  0.00     0.013 A 
HETATM   27  C25 UNL     1      15.119   2.136  -3.790  1.00  0.00     0.055 A 
HETATM   28  C26 UNL     1      15.262   0.886  -3.268  1.00  0.00     0.105 A 
HETATM   29  C28 UNL     1      14.239  -0.030  -3.449  1.00  0.00     0.135 A 
HETATM   30  C30 UNL     1      13.086   0.310  -4.146  1.00  0.00     0.105 A 
HETATM   31  C32 UNL     1      12.943   1.577  -4.672  1.00  0.00     0.055 A 
BRANCH  28  32
HETATM   32  O5  UNL     1      16.397   0.528  -2.567  1.00  0.00    -0.353 OA
HETATM   33  C27 UNL     1      17.594   0.291  -3.262  1.00  0.00     0.210 C 
ENDBRANCH  28  32
BRANCH  29  34
HETATM   34  O6  UNL     1      14.415  -1.283  -2.911  1.00  0.00    -0.351 OA
HETATM   35  C29 UNL     1      15.145  -2.251  -3.675  1.00  0.00     0.210 C 
ENDBRANCH  29  34
BRANCH  30  36
HETATM   36  O7  UNL     1      12.108  -0.662  -4.288  1.00  0.00    -0.353 OA
HETATM   37  C31 UNL     1      10.927  -0.515  -3.506  1.00  0.00     0.210 C 
ENDBRANCH  30  36
ENDBRANCH  22  26
ENDBRANCH  20  22
ENDBRANCH  17  20
BRANCH  18  38
HETATM   38  O8  UNL     1      17.055   3.328  -7.305  1.00  0.00    -0.354 OA
HETATM   39  C34 UNL     1      17.451   2.746  -6.101  1.00  0.00     0.210 C 
ENDBRANCH  18  38
ENDBRANCH  11  14
ENDBRANCH  10  11
BRANCH   1  40
HETATM   40  C6  UNL     1      12.430   1.848 -12.824  1.00  0.00     0.069 C 
HETATM   41  N1  UNL     1      12.059   0.703 -13.075  1.00  0.00    -0.306 N 
ATOM     42  H1  UNL     1      12.785   0.213 -13.596  1.00  0.00     0.186 HD
BRANCH  40  43
HETATM   43  C5  UNL     1      11.555   2.786 -12.092  1.00  0.00    -0.004 A 
HETATM   44  C4  UNL     1      10.924   2.420 -10.921  1.00  0.00     0.017 A 
HETATM   45  C3  UNL     1      10.183   3.279 -10.134  1.00  0.00     0.040 A 
HETATM   46  C2  UNL     1      10.059   4.589 -10.532  1.00  0.00     0.101 A 
HETATM   47  C37 UNL     1      10.680   5.006 -11.710  1.00  0.00     0.099 A 
HETATM   48  C36 UNL     1      11.404   4.106 -12.452  1.00  0.00     0.053 A 
BRANCH  46  49
HETATM   49  O1  UNL     1       9.324   5.472  -9.766  1.00  0.00    -0.353 OA
HETATM   50  C1  UNL     1       9.833   6.225  -8.710  1.00  0.00     0.210 C 
ENDBRANCH  46  49
BRANCH  47  51
HETATM   51  O9  UNL     1      10.525   6.345 -12.076  1.00  0.00    -0.358 OA
ATOM     52  H9  UNL     1      11.304   6.815 -12.351  1.00  0.00     0.217 HD
ENDBRANCH  47  51
ENDBRANCH  40  43
BRANCH  41  53
HETATM   53  N2  UNL     1      11.012  -0.109 -12.885  1.00  0.00    -0.345 N 
ATOM     54  H22 UNL     1      10.250   0.208 -13.485  1.00  0.00     0.176 HD
ATOM     55  H21 UNL     1      10.738  -0.929 -12.342  1.00  0.00     0.176 HD
ENDBRANCH  41  53
ENDBRANCH   1  40
BRANCH   6  56
HETATM   56  O3  UNL     1      19.391   3.576 -15.969  1.00  0.00    -0.353 OA
HETATM   57  C13 UNL     1      20.225   4.568 -15.405  1.00  0.00     0.210 C 
ENDBRANCH   6  56
BRANCH   5  58
HETATM   58  O2  UNL     1      17.378   4.425 -17.570  1.00  0.00    -0.358 OA
ATOM     59  H2  UNL     1      18.032   5.112 -17.617  1.00  0.00     0.217 HD
ENDBRANCH   5  58
TORSDOF 17
ENDMDL
MODEL 5
REMARK VINA RESULT: -10.178858778      2.963      9.412
REMARK  17 active torsions:
REMARK  status: ('A' for Active; 'I' for Inactive)
REMARK    1  A    between atoms: O1_2  and  C2_3 
REMARK    2  A    between atoms: C5_6  and  C6_7 
REMARK    3  A    between atoms: C6_7  and  C7_13 
REMARK    4  A    between atoms: N1_8  and  N2_10 
REMARK    5  A    between atoms: C11_17  and  O2_18 
REMARK    6  A    between atoms: C12_20  and  O3_21 
REMARK    7  A    between atoms: C17_26  and  C18_27 
REMARK    8  A    between atoms: C18_27  and  O4_28 
REMARK    9  A    between atoms: C18_27  and  C19_30 
REMARK   10  A    between atoms: C22_33  and  N3_34 
REMARK   11  A    between atoms: N3_34  and  C23_36 
REMARK   12  A    between atoms: C23_36  and  C24_40 
REMARK   13  A    between atoms: C26_42  and  O5_43 
REMARK   14  A    between atoms: C28_45  and  O6_46 
REMARK   15  A    between atoms: C30_48  and  O7_49 
REMARK   16  A    between atoms: C33_52  and  O8_53 
REMARK   17  A    between atoms: C37_57  and  O9_58 
ROOT
HETATM    1  C7  UNL     1      11.847   4.529 -10.432  1.00  0.00     0.007 A 
HETATM    2  C8  UNL     1      11.812   5.807  -9.940  1.00  0.00     0.027 A 
HETATM    3  C9  UNL     1      11.295   6.903 -10.627  1.00  0.00    -0.022 A 
HETATM    4  C10 UNL     1      11.304   8.166 -10.072  1.00  0.00     0.051 A 
HETATM    5  C11 UNL     1      10.791   9.219 -10.799  1.00  0.00     0.099 A 
HETATM    6  C12 UNL     1      10.266   9.033 -12.072  1.00  0.00     0.102 A 
HETATM    7  C14 UNL     1      10.265   7.769 -12.607  1.00  0.00     0.052 A 
HETATM    8  C15 UNL     1      10.784   6.699 -11.878  1.00  0.00    -0.022 A 
HETATM    9  C16 UNL     1      10.795   5.445 -12.412  1.00  0.00     0.027 A 
HETATM   10  C17 UNL     1      11.318   4.338 -11.723  1.00  0.00     0.011 A 
ENDROOT
BRANCH  10  11
HETATM   11  C18 UNL     1      11.476   3.074 -12.396  1.00  0.00     0.087 C 
BRANCH  11  12
HETATM   12  O4  UNL     1      10.418   2.305 -12.507  1.00  0.00    -0.359 OA
ATOM     13  H4  UNL     1      10.135   2.066 -13.381  1.00  0.00     0.217 HD
ENDBRANCH  11  12
BRANCH  11  14
HETATM   14  C19 UNL     1      12.654   2.522 -12.982  1.00  0.00     0.001 A 
HETATM   15  C20 UNL     1      13.305   3.114 -14.029  1.00  0.00     0.017 A 
HETATM   16  C21 UNL     1      14.482   2.587 -14.584  1.00  0.00     0.033 A 
HETATM   17  C22 UNL     1      15.013   1.440 -14.078  1.00  0.00     0.067 A 
HETATM   18  C33 UNL     1      14.363   0.813 -13.007  1.00  0.00     0.095 A 
HETATM   19  C35 UNL     1      13.224   1.335 -12.477  1.00  0.00     0.053 A 
BRANCH  17  20
HETATM   20  N3  UNL     1      16.192   0.890 -14.620  1.00  0.00    -0.340 N 
ATOM     21  H3  UNL     1      16.140   0.386 -15.505  1.00  0.00     0.167 HD
BRANCH  20  22
HETATM   22  C23 UNL     1      17.450   1.015 -13.973  1.00  0.00     0.109 C 
HETATM   23  N4  UNL     1      17.863   0.118 -13.180  1.00  0.00    -0.385 N 
ATOM     24  H42 UNL     1      17.278  -0.697 -12.993  1.00  0.00     0.157 HD
ATOM     25  H41 UNL     1      18.767   0.208 -12.716  1.00  0.00     0.157 HD
BRANCH  22  26
HETATM   26  C24 UNL     1      18.288   2.183 -14.242  1.00  0.00     0.013 A 
HETATM   27  C25 UNL     1      17.907   2.989 -15.330  1.00  0.00     0.055 A 
HETATM   28  C26 UNL     1      18.641   4.086 -15.666  1.00  0.00     0.105 A 
HETATM   29  C28 UNL     1      19.765   4.387 -14.917  1.00  0.00     0.135 A 
HETATM   30  C30 UNL     1      20.145   3.594 -13.841  1.00  0.00     0.105 A 
HETATM   31  C32 UNL     1      19.400   2.484 -13.502  1.00  0.00     0.055 A 
BRANCH  28  32
HETATM   32  O5  UNL     1      18.279   4.892 -16.728  1.00  0.00    -0.353 OA
HETATM   33  C27 UNL     1      17.065   4.656 -17.394  1.00  0.00     0.210 C 
ENDBRANCH  28  32
BRANCH  29  34
HETATM   34  O6  UNL     1      20.485   5.500 -15.282  1.00  0.00    -0.351 OA
HETATM   35  C29 UNL     1      21.538   5.341 -16.242  1.00  0.00     0.210 C 
ENDBRANCH  29  34
BRANCH  30  36
HETATM   36  O7  UNL     1      21.285   3.958 -13.141  1.00  0.00    -0.353 OA
HETATM   37  C31 UNL     1      22.456   3.176 -13.351  1.00  0.00     0.210 C 
ENDBRANCH  30  36
ENDBRANCH  22  26
ENDBRANCH  20  22
ENDBRANCH  17  20
BRANCH  18  38
HETATM   38  O8  UNL     1      14.925  -0.343 -12.524  1.00  0.00    -0.354 OA
HETATM   39  C34 UNL     1      15.180  -0.586 -11.174  1.00  0.00     0.210 C 
ENDBRANCH  18  38
ENDBRANCH  11  14
ENDBRANCH  10  11
BRANCH   1  40
HETATM   40  C6  UNL     1      12.225   3.378  -9.600  1.00  0.00     0.069 C 
HETATM   41  N1  UNL     1      11.436   2.438  -9.530  1.00  0.00    -0.306 N 
ATOM     42  H1  UNL     1      10.566   2.683 -10.000  1.00  0.00     0.186 HD
BRANCH  40  43
HETATM   43  C5  UNL     1      13.562   3.296  -8.978  1.00  0.00    -0.004 A 
HETATM   44  C4  UNL     1      13.729   3.388  -7.611  1.00  0.00     0.017 A 
HETATM   45  C3  UNL     1      14.934   3.211  -6.961  1.00  0.00     0.040 A 
HETATM   46  C2  UNL     1      16.048   2.924  -7.713  1.00  0.00     0.101 A 
HETATM   47  C37 UNL     1      15.928   2.821  -9.099  1.00  0.00     0.099 A 
HETATM   48  C36 UNL     1      14.703   3.008  -9.690  1.00  0.00     0.053 A 
BRANCH  46  49
HETATM   49  O1  UNL     1      17.268   2.742  -7.091  1.00  0.00    -0.353 OA
HETATM   50  C1  UNL     1      17.453   2.643  -5.714  1.00  0.00     0.210 C 
ENDBRANCH  46  49
BRANCH  47  51
HETATM   51  O9  UNL     1      17.087   2.530  -9.823  1.00  0.00    -0.358 OA
ATOM     52  H9  UNL     1      16.988   2.348 -10.750  1.00  0.00     0.217 HD
ENDBRANCH  47  51
ENDBRANCH  40  43
BRANCH  41  53
HETATM   53  N2  UNL     1      11.350   1.195  -9.037  1.00  0.00    -0.345 N 
ATOM     54  H22 UNL     1      11.601   0.541  -9.779  1.00  0.00     0.176 HD
ATOM     55  H21 UNL     1      11.117   0.704  -8.174  1.00  0.00     0.176 HD
ENDBRANCH  41  53
ENDBRANCH   1  40
BRANCH   6  56
HETATM   56  O3  UNL     1       9.760  10.095 -12.784  1.00  0.00    -0.353 OA
HETATM   57  C13 UNL     1       8.766   9.948 -13.778  1.00  0.00     0.210 C 
ENDBRANCH   6  56
BRANCH   5  58
HETATM   58  O2  UNL     1      10.766  10.521 -10.306  1.00  0.00    -0.358 OA
ATOM     59  H2  UNL     1      10.189  11.187 -10.661  1.00  0.00     0.217 HD
ENDBRANCH   5  58
TORSDOF 17
ENDMDL
