MODEL 1
REMARK VINA RESULT: -9.914770668      0.000      0.000
REMARK  15 active torsions:
REMARK  status: ('A' for Active; 'I' for Inactive)
REMARK    1  A    between atoms: O1_2  and  C2_3 
REMARK    2  A    between atoms: C2_3  and  C3_5 
REMARK    3  A    between atoms: C7_9  and  S1_10 
REMARK    4  A    between atoms: S1_10  and  C8_11 
REMARK    5  A    between atoms: C8_11  and  C9_12 
REMARK    6  A    between atoms: C9_12  and  N1_13 
REMARK    7  A    between atoms: C9_12  and  C24_46 
REMARK       I    between atoms: N1_13  and  C10_15 
REMARK    8  A    between atoms: C10_15  and  C11_17 
REMARK    9  A    between atoms: C14_20  and  N2_21 
REMARK       I    between atoms: N2_21  and  C15_23 
REMARK       I    between atoms: C15_23  and  N4_27 
REMARK   10  A    between atoms: N4_27  and  S2_29 
REMARK   11  A    between atoms: S2_29  and  C16_32 
REMARK   12  A    between atoms: C19_35  and  N5_36 
REMARK   13  A    between atoms: N6_38  and  O6_40 
REMARK   14  A    between atoms: C24_46  and  O8_48 
REMARK   15  A    between atoms: O8_48  and  C25_49 
ROOT
HETATM    1  C11 UNL     1      11.367   3.669 -12.623  1.00  0.00     0.032 A 
HETATM    2  C12 UNL     1      10.740   3.486 -13.841  1.00  0.00     0.019 A 
HETATM    3  C13 UNL     1      11.291   2.707 -14.839  1.00  0.00     0.031 A 
HETATM    4  C14 UNL     1      12.509   2.070 -14.660  1.00  0.00     0.049 A 
HETATM    5  C22 UNL     1      13.141   2.248 -13.450  1.00  0.00     0.031 A 
HETATM    6  C23 UNL     1      12.576   3.038 -12.448  1.00  0.00     0.019 A 
ENDROOT
BRANCH   1   7
HETATM    7  C10 UNL     1      10.823   4.463 -11.532  1.00  0.00     0.252 C 
HETATM    8  N1  UNL     1      11.619   5.090 -10.537  1.00  0.00    -0.342 N 
ATOM      9  H1  UNL     1      12.632   4.979 -10.591  1.00  0.00     0.163 HD
HETATM   10  O3  UNL     1       9.566   4.626 -11.431  1.00  0.00    -0.268 OA
BRANCH   8  11
HETATM   11  C9  UNL     1      11.084   5.867  -9.464  1.00  0.00     0.194 C 
BRANCH  11  12
HETATM   12  C8  UNL     1      11.473   5.408  -8.089  1.00  0.00     0.114 C 
BRANCH  12  13
HETATM   13  S1  UNL     1      13.194   4.937  -7.926  1.00  0.00    -0.127 SA
BRANCH  13  14
HETATM   14  C7  UNL     1      13.487   3.331  -8.625  1.00  0.00     0.001 A 
HETATM   15  C6  UNL     1      12.594   2.319  -8.372  1.00  0.00     0.018 A 
HETATM   16  C5  UNL     1      12.773   1.037  -8.899  1.00  0.00     0.002 A 
HETATM   17  C4  UNL     1      13.886   0.791  -9.700  1.00  0.00     0.017 A 
HETATM   18  C3  UNL     1      14.799   1.806  -9.965  1.00  0.00     0.040 A 
HETATM   19  C31 UNL     1      14.577   3.054  -9.420  1.00  0.00     0.036 A 
BRANCH  18  20
HETATM   20  C2  UNL     1      15.966   1.572 -10.801  1.00  0.00     0.292 C 
HETATM   21  O2  UNL     1      17.041   2.135 -10.568  1.00  0.00    -0.259 OA
BRANCH  20  22
HETATM   22  O1  UNL     1      15.859   0.700 -11.876  1.00  0.00    -0.323 OA
HETATM   23  C1  UNL     1      16.506  -0.567 -11.882  1.00  0.00     0.213 C 
ENDBRANCH  20  22
ENDBRANCH  18  20
ENDBRANCH  13  14
ENDBRANCH  12  13
ENDBRANCH  11  12
BRANCH  11  24
HETATM   24  C24 UNL     1      11.644   7.264  -9.623  1.00  0.00     0.287 C 
HETATM   25  O7  UNL     1      11.752   8.052  -8.635  1.00  0.00    -0.262 OA
BRANCH  24  26
HETATM   26  O8  UNL     1      12.061   7.739 -10.849  1.00  0.00    -0.277 OA
BRANCH  26  27
HETATM   27  C25 UNL     1      11.234   8.391 -11.731  1.00  0.00     0.079 A 
HETATM   28  C26 UNL     1      11.054   7.882 -12.991  1.00  0.00     0.037 A 
HETATM   29  C27 UNL     1      10.209   8.543 -13.896  1.00  0.00     0.003 A 
HETATM   30  C28 UNL     1       9.553   9.703 -13.539  1.00  0.00     0.000 A 
HETATM   31  C29 UNL     1       9.747  10.199 -12.262  1.00  0.00     0.003 A 
HETATM   32  C30 UNL     1      10.588   9.544 -11.358  1.00  0.00     0.037 A 
ENDBRANCH  26  27
ENDBRANCH  24  26
ENDBRANCH  11  24
ENDBRANCH   8  11
ENDBRANCH   1   7
BRANCH   4  33
HETATM   33  N2  UNL     1      13.091   1.266 -15.685  1.00  0.00    -0.192 N 
HETATM   34  C15 UNL     1      13.405  -0.087 -15.428  1.00  0.00     0.686 C 
HETATM   35  N3  UNL     1      12.564  -0.981 -15.852  1.00  0.00    -0.234 N 
HETATM   36  N4  UNL     1      14.548  -0.557 -14.754  1.00  0.00    -0.113 N 
ATOM     37  H32 UNL     1      11.735  -0.640 -16.340  1.00  0.00     0.174 HD
ATOM     38  H31 UNL     1      12.790  -1.958 -15.666  1.00  0.00     0.174 HD
ATOM     39  H4  UNL     1      14.550  -0.709 -13.745  1.00  0.00     0.197 HD
ATOM     40  H2  UNL     1      13.280   1.667 -16.603  1.00  0.00     0.184 HD
BRANCH  36  41
HETATM   41  S2  UNL     1      15.958  -0.867 -15.727  1.00  0.00     0.276 S 
HETATM   42  O4  UNL     1      15.609  -0.752 -17.194  1.00  0.00    -0.200 OA
HETATM   43  O5  UNL     1      16.538  -2.207 -15.401  1.00  0.00    -0.200 OA
BRANCH  41  44
HETATM   44  C16 UNL     1      17.117   0.385 -15.314  1.00  0.00     0.080 A 
HETATM   45  C17 UNL     1      16.701   1.677 -15.188  1.00  0.00     0.027 A 
HETATM   46  C18 UNL     1      17.613   2.678 -14.858  1.00  0.00     0.032 A 
HETATM   47  C19 UNL     1      18.941   2.390 -14.655  1.00  0.00     0.050 A 
HETATM   48  C20 UNL     1      19.366   1.092 -14.780  1.00  0.00     0.032 A 
HETATM   49  C21 UNL     1      18.458   0.084 -15.109  1.00  0.00     0.027 A 
BRANCH  47  50
HETATM   50  N5  UNL     1      19.827   3.439 -14.322  1.00  0.00    -0.282 N 
HETATM   51  N6  UNL     1      20.030   3.807 -13.130  1.00  0.00    -0.210 N 
ATOM     52  H6  UNL     1      20.681   4.570 -12.945  1.00  0.00     0.215 HD
ATOM     53  H5  UNL     1      20.322   3.919 -15.074  1.00  0.00     0.189 HD
BRANCH  51  54
HETATM   54  O6  UNL     1      19.391   3.197 -12.080  1.00  0.00    -0.274 OA
ATOM     55  H6  UNL     1      19.878   2.717 -11.421  1.00  0.00     0.246 HD
ENDBRANCH  51  54
ENDBRANCH  47  50
ENDBRANCH  41  44
ENDBRANCH  36  41
ENDBRANCH   4  33
TORSDOF 15
ENDMDL
MODEL 2
REMARK VINA RESULT: -9.844293922      2.497      8.971
REMARK  15 active torsions:
REMARK  status: ('A' for Active; 'I' for Inactive)
REMARK    1  A    between atoms: O1_2  and  C2_3 
REMARK    2  A    between atoms: C2_3  and  C3_5 
REMARK    3  A    between atoms: C7_9  and  S1_10 
REMARK    4  A    between atoms: S1_10  and  C8_11 
REMARK    5  A    between atoms: C8_11  and  C9_12 
REMARK    6  A    between atoms: C9_12  and  N1_13 
REMARK    7  A    between atoms: C9_12  and  C24_46 
REMARK       I    between atoms: N1_13  and  C10_15 
REMARK    8  A    between atoms: C10_15  and  C11_17 
REMARK    9  A    between atoms: C14_20  and  N2_21 
REMARK       I    between atoms: N2_21  and  C15_23 
REMARK       I    between atoms: C15_23  and  N4_27 
REMARK   10  A    between atoms: N4_27  and  S2_29 
REMARK   11  A    between atoms: S2_29  and  C16_32 
REMARK   12  A    between atoms: C19_35  and  N5_36 
REMARK   13  A    between atoms: N6_38  and  O6_40 
REMARK   14  A    between atoms: C24_46  and  O8_48 
REMARK   15  A    between atoms: O8_48  and  C25_49 
ROOT
HETATM    1  C11 UNL     1      14.849   1.878 -10.445  1.00  0.00     0.032 A 
HETATM    2  C12 UNL     1      15.647   2.441  -9.467  1.00  0.00     0.019 A 
HETATM    3  C13 UNL     1      15.266   3.571  -8.771  1.00  0.00     0.031 A 
HETATM    4  C14 UNL     1      14.056   4.195  -9.027  1.00  0.00     0.049 A 
HETATM    5  C22 UNL     1      13.255   3.643 -10.001  1.00  0.00     0.031 A 
HETATM    6  C23 UNL     1      13.650   2.500 -10.699  1.00  0.00     0.019 A 
ENDROOT
BRANCH   1   7
HETATM    7  C10 UNL     1      15.193   0.680 -11.194  1.00  0.00     0.252 C 
HETATM    8  N1  UNL     1      15.523   0.679 -12.576  1.00  0.00    -0.342 N 
ATOM      9  H1  UNL     1      15.520   1.570 -13.072  1.00  0.00     0.163 HD
HETATM   10  O3  UNL     1      15.210  -0.450 -10.611  1.00  0.00    -0.268 OA
BRANCH   8  11
HETATM   11  C9  UNL     1      15.858  -0.500 -13.312  1.00  0.00     0.194 C 
BRANCH  11  12
HETATM   12  C8  UNL     1      14.708  -1.162 -14.011  1.00  0.00     0.114 C 
BRANCH  12  13
HETATM   13  S1  UNL     1      13.762  -0.074 -15.075  1.00  0.00    -0.127 SA
BRANCH  13  14
HETATM   14  C7  UNL     1      12.567   0.853 -14.142  1.00  0.00     0.001 A 
HETATM   15  C6  UNL     1      12.322   2.159 -14.483  1.00  0.00     0.018 A 
HETATM   16  C5  UNL     1      11.390   2.935 -13.787  1.00  0.00     0.002 A 
HETATM   17  C4  UNL     1      10.701   2.358 -12.723  1.00  0.00     0.017 A 
HETATM   18  C3  UNL     1      10.939   1.036 -12.365  1.00  0.00     0.040 A 
HETATM   19  C31 UNL     1      11.869   0.314 -13.085  1.00  0.00     0.036 A 
BRANCH  18  20
HETATM   20  C2  UNL     1      10.229   0.412 -11.259  1.00  0.00     0.292 C 
HETATM   21  O2  UNL     1       9.503  -0.571 -11.441  1.00  0.00    -0.259 OA
BRANCH  20  22
HETATM   22  O1  UNL     1      10.376   0.939  -9.983  1.00  0.00    -0.323 OA
HETATM   23  C1  UNL     1      11.405   0.500  -9.104  1.00  0.00     0.213 C 
ENDBRANCH  20  22
ENDBRANCH  18  20
ENDBRANCH  13  14
ENDBRANCH  12  13
ENDBRANCH  11  12
BRANCH  11  24
HETATM   24  C24 UNL     1      16.826  -0.072 -14.393  1.00  0.00     0.287 C 
HETATM   25  O7  UNL     1      17.111  -0.831 -15.367  1.00  0.00    -0.262 OA
BRANCH  24  26
HETATM   26  O8  UNL     1      17.440   1.163 -14.363  1.00  0.00    -0.277 OA
BRANCH  26  27
HETATM   27  C25 UNL     1      17.146   2.178 -15.240  1.00  0.00     0.079 A 
HETATM   28  C26 UNL     1      15.960   2.854 -15.119  1.00  0.00     0.037 A 
HETATM   29  C27 UNL     1      15.655   3.894 -16.011  1.00  0.00     0.003 A 
HETATM   30  C28 UNL     1      16.531   4.250 -17.015  1.00  0.00     0.000 A 
HETATM   31  C29 UNL     1      17.724   3.556 -17.120  1.00  0.00     0.003 A 
HETATM   32  C30 UNL     1      18.031   2.520 -16.233  1.00  0.00     0.037 A 
ENDBRANCH  26  27
ENDBRANCH  24  26
ENDBRANCH  11  24
ENDBRANCH   8  11
ENDBRANCH   1   7
BRANCH   4  33
HETATM   33  N2  UNL     1      13.652   5.366  -8.317  1.00  0.00    -0.192 N 
HETATM   34  C15 UNL     1      12.451   5.362  -7.574  1.00  0.00     0.686 C 
HETATM   35  N3  UNL     1      12.550   5.187  -6.291  1.00  0.00    -0.234 N 
HETATM   36  N4  UNL     1      11.155   5.533  -8.095  1.00  0.00    -0.113 N 
ATOM     37  H32 UNL     1      13.489   5.062  -5.913  1.00  0.00     0.174 HD
ATOM     38  H31 UNL     1      11.683   5.184  -5.754  1.00  0.00     0.174 HD
ATOM     39  H4  UNL     1      10.588   4.738  -8.389  1.00  0.00     0.197 HD
ATOM     40  H2  UNL     1      14.231   6.205  -8.347  1.00  0.00     0.184 HD
BRANCH  36  41
HETATM   41  S2  UNL     1      10.568   7.168  -8.214  1.00  0.00     0.276 S 
HETATM   42  O4  UNL     1      11.449   8.093  -7.405  1.00  0.00    -0.200 OA
HETATM   43  O5  UNL     1       9.139   7.245  -7.777  1.00  0.00    -0.200 OA
BRANCH  41  44
HETATM   44  C16 UNL     1      10.682   7.603  -9.909  1.00  0.00     0.080 A 
HETATM   45  C17 UNL     1      10.775   6.624 -10.854  1.00  0.00     0.027 A 
HETATM   46  C18 UNL     1      10.865   6.960 -12.204  1.00  0.00     0.032 A 
HETATM   47  C19 UNL     1      10.863   8.271 -12.612  1.00  0.00     0.050 A 
HETATM   48  C20 UNL     1      10.770   9.261 -11.666  1.00  0.00     0.032 A 
HETATM   49  C21 UNL     1      10.679   8.933 -10.313  1.00  0.00     0.027 A 
BRANCH  47  50
HETATM   50  N5  UNL     1      10.955   8.561 -13.992  1.00  0.00    -0.282 N 
HETATM   51  N6  UNL     1       9.944   8.828 -14.701  1.00  0.00    -0.210 N 
ATOM     52  H6  UNL     1      10.066   9.030 -15.693  1.00  0.00     0.215 HD
ATOM     53  H5  UNL     1      11.875   8.554 -14.433  1.00  0.00     0.189 HD
BRANCH  51  54
HETATM   54  O6  UNL     1       8.683   8.851 -14.160  1.00  0.00    -0.274 OA
ATOM     55  H6  UNL     1       8.009   8.254 -14.461  1.00  0.00     0.246 HD
ENDBRANCH  51  54
ENDBRANCH  47  50
ENDBRANCH  41  44
ENDBRANCH  36  41
ENDBRANCH   4  33
TORSDOF 15
ENDMDL
MODEL 3
REMARK VINA RESULT: -9.806337032      5.512     10.050
REMARK  15 active torsions:
REMARK  status: ('A' for Active; 'I' for Inactive)
REMARK    1  A    between atoms: O1_2  and  C2_3 
REMARK    2  A    between atoms: C2_3  and  C3_5 
REMARK    3  A    between atoms: C7_9  and  S1_10 
REMARK    4  A    between atoms: S1_10  and  C8_11 
REMARK    5  A    between atoms: C8_11  and  C9_12 
REMARK    6  A    between atoms: C9_12  and  N1_13 
REMARK    7  A    between atoms: C9_12  and  C24_46 
REMARK       I    between atoms: N1_13  and  C10_15 
REMARK    8  A    between atoms: C10_15  and  C11_17 
REMARK    9  A    between atoms: C14_20  and  N2_21 
REMARK       I    between atoms: N2_21  and  C15_23 
REMARK       I    between atoms: C15_23  and  N4_27 
REMARK   10  A    between atoms: N4_27  and  S2_29 
REMARK   11  A    between atoms: S2_29  and  C16_32 
REMARK   12  A    between atoms: C19_35  and  N5_36 
REMARK   13  A    between atoms: N6_38  and  O6_40 
REMARK   14  A    between atoms: C24_46  and  O8_48 
REMARK   15  A    between atoms: O8_48  and  C25_49 
ROOT
HETATM    1  C11 UNL     1      12.201   4.805  -8.010  1.00  0.00     0.032 A 
HETATM    2  C12 UNL     1      12.513   5.587  -6.914  1.00  0.00     0.019 A 
HETATM    3  C13 UNL     1      13.330   5.133  -5.898  1.00  0.00     0.031 A 
HETATM    4  C14 UNL     1      13.877   3.860  -5.935  1.00  0.00     0.049 A 
HETATM    5  C22 UNL     1      13.571   3.073  -7.022  1.00  0.00     0.031 A 
HETATM    6  C23 UNL     1      12.744   3.542  -8.043  1.00  0.00     0.019 A 
ENDROOT
BRANCH   1   7
HETATM    7  C10 UNL     1      11.362   5.240  -9.115  1.00  0.00     0.252 C 
HETATM    8  N1  UNL     1      11.625   4.932 -10.476  1.00  0.00    -0.342 N 
ATOM      9  H1  UNL     1      12.450   4.371 -10.692  1.00  0.00     0.163 HD
HETATM   10  O3  UNL     1      10.324   5.938  -8.888  1.00  0.00    -0.268 OA
BRANCH   8  11
HETATM   11  C9  UNL     1      10.801   5.361 -11.562  1.00  0.00     0.194 C 
BRANCH  11  12
HETATM   12  C8  UNL     1      11.353   6.502 -12.367  1.00  0.00     0.114 C 
BRANCH  12  13
HETATM   13  S1  UNL     1      12.048   7.831 -11.388  1.00  0.00    -0.127 SA
BRANCH  13  14
HETATM   14  C7  UNL     1      10.868   9.137 -11.152  1.00  0.00     0.001 A 
HETATM   15  C6  UNL     1      10.492   9.475  -9.876  1.00  0.00     0.018 A 
HETATM   16  C5  UNL     1       9.570  10.497  -9.631  1.00  0.00     0.002 A 
HETATM   17  C4  UNL     1       9.027  11.182 -10.715  1.00  0.00     0.017 A 
HETATM   18  C3  UNL     1       9.398  10.851 -12.014  1.00  0.00     0.040 A 
HETATM   19  C31 UNL     1      10.312   9.834 -12.201  1.00  0.00     0.036 A 
BRANCH  18  20
HETATM   20  C2  UNL     1       8.846  11.556 -13.160  1.00  0.00     0.292 C 
HETATM   21  O2  UNL     1       7.755  11.235 -13.643  1.00  0.00    -0.259 OA
BRANCH  20  22
HETATM   22  O1  UNL     1       9.567  12.606 -13.714  1.00  0.00    -0.323 OA
HETATM   23  C1  UNL     1       9.165  13.961 -13.550  1.00  0.00     0.213 C 
ENDBRANCH  20  22
ENDBRANCH  18  20
ENDBRANCH  13  14
ENDBRANCH  12  13
ENDBRANCH  11  12
BRANCH  11  24
HETATM   24  C24 UNL     1      10.688   4.186 -12.509  1.00  0.00     0.287 C 
HETATM   25  O7  UNL     1      11.056   4.271 -13.719  1.00  0.00    -0.262 OA
BRANCH  24  26
HETATM   26  O8  UNL     1      10.179   2.973 -12.094  1.00  0.00    -0.277 OA
BRANCH  26  27
HETATM   27  C25 UNL     1      10.872   2.088 -11.305  1.00  0.00     0.079 A 
HETATM   28  C26 UNL     1      12.147   1.726 -11.654  1.00  0.00     0.037 A 
HETATM   29  C27 UNL     1      12.861   0.824 -10.851  1.00  0.00     0.003 A 
HETATM   30  C28 UNL     1      12.300   0.291  -9.710  1.00  0.00     0.000 A 
HETATM   31  C29 UNL     1      11.012   0.669  -9.374  1.00  0.00     0.003 A 
HETATM   32  C30 UNL     1      10.298   1.568 -10.172  1.00  0.00     0.037 A 
ENDBRANCH  26  27
ENDBRANCH  24  26
ENDBRANCH  11  24
ENDBRANCH   8  11
ENDBRANCH   1   7
BRANCH   4  33
HETATM   33  N2  UNL     1      14.720   3.377  -4.889  1.00  0.00    -0.192 N 
HETATM   34  C15 UNL     1      15.325   2.106  -5.000  1.00  0.00     0.686 C 
HETATM   35  N3  UNL     1      16.566   2.071  -5.380  1.00  0.00    -0.234 N 
HETATM   36  N4  UNL     1      14.706   0.870  -4.734  1.00  0.00    -0.113 N 
ATOM     37  H32 UNL     1      17.014   2.967  -5.574  1.00  0.00     0.174 HD
ATOM     38  H31 UNL     1      17.003   1.153  -5.461  1.00  0.00     0.174 HD
ATOM     39  H4  UNL     1      14.230   0.341  -5.465  1.00  0.00     0.197 HD
ATOM     40  H2  UNL     1      14.886   3.951  -4.062  1.00  0.00     0.184 HD
BRANCH  36  41
HETATM   41  S2  UNL     1      14.792   0.287  -3.095  1.00  0.00     0.276 S 
HETATM   42  O4  UNL     1      13.465  -0.313  -2.690  1.00  0.00    -0.200 OA
HETATM   43  O5  UNL     1      15.207   1.386  -2.169  1.00  0.00    -0.200 OA
BRANCH  41  44
HETATM   44  C16 UNL     1      16.015  -0.971  -3.091  1.00  0.00     0.080 A 
HETATM   45  C17 UNL     1      15.667  -2.254  -3.394  1.00  0.00     0.027 A 
HETATM   46  C18 UNL     1      16.632  -3.260  -3.395  1.00  0.00     0.032 A 
HETATM   47  C19 UNL     1      17.943  -2.987  -3.093  1.00  0.00     0.050 A 
HETATM   48  C20 UNL     1      18.300  -1.698  -2.787  1.00  0.00     0.032 A 
HETATM   49  C21 UNL     1      17.340  -0.685  -2.785  1.00  0.00     0.027 A 
BRANCH  47  50
HETATM   50  N5  UNL     1      18.885  -4.041  -3.108  1.00  0.00    -0.282 N 
HETATM   51  N6  UNL     1      18.597  -5.216  -2.744  1.00  0.00    -0.210 N 
ATOM     52  H6  UNL     1      19.314  -5.940  -2.774  1.00  0.00     0.215 HD
ATOM     53  H5  UNL     1      19.834  -3.845  -3.425  1.00  0.00     0.189 HD
BRANCH  51  54
HETATM   54  O6  UNL     1      17.335  -5.535  -2.309  1.00  0.00    -0.274 OA
ATOM     55  H6  UNL     1      17.185  -5.851  -1.425  1.00  0.00     0.246 HD
ENDBRANCH  51  54
ENDBRANCH  47  50
ENDBRANCH  41  44
ENDBRANCH  36  41
ENDBRANCH   4  33
TORSDOF 15
ENDMDL
MODEL 4
REMARK VINA RESULT: -9.794059880      3.349      4.907
REMARK  15 active torsions:
REMARK  status: ('A' for Active; 'I' for Inactive)
REMARK    1  A    between atoms: O1_2  and  C2_3 
REMARK    2  A    between atoms: C2_3  and  C3_5 
REMARK    3  A    between atoms: C7_9  and  S1_10 
REMARK    4  A    between atoms: S1_10  and  C8_11 
REMARK    5  A    between atoms: C8_11  and  C9_12 
REMARK    6  A    between atoms: C9_12  and  N1_13 
REMARK    7  A    between atoms: C9_12  and  C24_46 
REMARK       I    between atoms: N1_13  and  C10_15 
REMARK    8  A    between atoms: C10_15  and  C11_17 
REMARK    9  A    between atoms: C14_20  and  N2_21 
REMARK       I    between atoms: N2_21  and  C15_23 
REMARK       I    between atoms: C15_23  and  N4_27 
REMARK   10  A    between atoms: N4_27  and  S2_29 
REMARK   11  A    between atoms: S2_29  and  C16_32 
REMARK   12  A    between atoms: C19_35  and  N5_36 
REMARK   13  A    between atoms: N6_38  and  O6_40 
REMARK   14  A    between atoms: C24_46  and  O8_48 
REMARK   15  A    between atoms: O8_48  and  C25_49 
ROOT
HETATM    1  C11 UNL     1      14.163   2.340 -10.163  1.00  0.00     0.032 A 
HETATM    2  C12 UNL     1      15.519   2.083 -10.103  1.00  0.00     0.019 A 
HETATM    3  C13 UNL     1      16.222   1.595 -11.186  1.00  0.00     0.031 A 
HETATM    4  C14 UNL     1      15.590   1.341 -12.393  1.00  0.00     0.049 A 
HETATM    5  C22 UNL     1      14.238   1.593 -12.463  1.00  0.00     0.031 A 
HETATM    6  C23 UNL     1      13.537   2.085 -11.361  1.00  0.00     0.019 A 
ENDROOT
BRANCH   1   7
HETATM    7  C10 UNL     1      13.379   2.871  -9.059  1.00  0.00     0.252 C 
HETATM    8  N1  UNL     1      12.933   4.217  -8.981  1.00  0.00    -0.342 N 
ATOM      9  H1  UNL     1      13.176   4.849  -9.745  1.00  0.00     0.163 HD
HETATM   10  O3  UNL     1      13.054   2.115  -8.089  1.00  0.00    -0.268 OA
BRANCH   8  11
HETATM   11  C9  UNL     1      12.165   4.739  -7.894  1.00  0.00     0.194 C 
BRANCH  11  12
HETATM   12  C8  UNL     1      12.893   5.705  -7.007  1.00  0.00     0.114 C 
BRANCH  12  13
HETATM   13  S1  UNL     1      13.304   5.058  -5.387  1.00  0.00    -0.127 SA
BRANCH  13  14
HETATM   14  C7  UNL     1      14.656   3.911  -5.481  1.00  0.00     0.001 A 
HETATM   15  C6  UNL     1      15.612   4.083  -6.451  1.00  0.00     0.018 A 
HETATM   16  C5  UNL     1      16.700   3.213  -6.568  1.00  0.00     0.002 A 
HETATM   17  C4  UNL     1      16.807   2.150  -5.675  1.00  0.00     0.017 A 
HETATM   18  C3  UNL     1      15.846   1.962  -4.688  1.00  0.00     0.040 A 
HETATM   19  C31 UNL     1      14.791   2.849  -4.615  1.00  0.00     0.036 A 
BRANCH  18  20
HETATM   20  C2  UNL     1      15.939   0.860  -3.743  1.00  0.00     0.292 C 
HETATM   21  O2  UNL     1      17.011   0.574  -3.199  1.00  0.00    -0.259 OA
BRANCH  20  22
HETATM   22  O1  UNL     1      14.797   0.124  -3.453  1.00  0.00    -0.323 OA
HETATM   23  C1  UNL     1      14.758  -1.290  -3.605  1.00  0.00     0.213 C 
ENDBRANCH  20  22
ENDBRANCH  18  20
ENDBRANCH  13  14
ENDBRANCH  12  13
ENDBRANCH  11  12
BRANCH  11  24
HETATM   24  C24 UNL     1      11.014   5.506  -8.509  1.00  0.00     0.287 C 
HETATM   25  O7  UNL     1      10.253   4.978  -9.374  1.00  0.00    -0.262 OA
BRANCH  24  26
HETATM   26  O8  UNL     1      10.747   6.812  -8.154  1.00  0.00    -0.277 OA
BRANCH  26  27
HETATM   27  C25 UNL     1      10.854   7.871  -9.022  1.00  0.00     0.079 A 
HETATM   28  C26 UNL     1      11.701   7.783 -10.096  1.00  0.00     0.037 A 
HETATM   29  C27 UNL     1      11.812   8.862 -10.986  1.00  0.00     0.003 A 
HETATM   30  C28 UNL     1      11.081  10.016 -10.800  1.00  0.00     0.000 A 
HETATM   31  C29 UNL     1      10.231  10.085  -9.711  1.00  0.00     0.003 A 
HETATM   32  C30 UNL     1      10.117   9.012  -8.821  1.00  0.00     0.037 A 
ENDBRANCH  26  27
ENDBRANCH  24  26
ENDBRANCH  11  24
ENDBRANCH   8  11
ENDBRANCH   1   7
BRANCH   4  33
HETATM   33  N2  UNL     1      16.304   0.833 -13.520  1.00  0.00    -0.192 N 
HETATM   34  C15 UNL     1      17.685   1.097 -13.658  1.00  0.00     0.686 C 
HETATM   35  N3  UNL     1      18.505   0.154 -13.303  1.00  0.00    -0.234 N 
HETATM   36  N4  UNL     1      18.256   2.287 -14.145  1.00  0.00    -0.113 N 
ATOM     37  H32 UNL     1      18.092  -0.709 -12.949  1.00  0.00     0.174 HD
ATOM     38  H31 UNL     1      19.502   0.344 -13.402  1.00  0.00     0.174 HD
ATOM     39  H4  UNL     1      18.509   3.054 -13.522  1.00  0.00     0.197 HD
ATOM     40  H2  UNL     1      15.818   0.281 -14.226  1.00  0.00     0.184 HD
BRANCH  36  41
HETATM   41  S2  UNL     1      18.508   2.387 -15.865  1.00  0.00     0.276 S 
HETATM   42  O4  UNL     1      18.962   1.047 -16.399  1.00  0.00    -0.200 OA
HETATM   43  O5  UNL     1      19.487   3.471 -16.190  1.00  0.00    -0.200 OA
BRANCH  41  44
HETATM   44  C16 UNL     1      16.947   2.784 -16.562  1.00  0.00     0.080 A 
HETATM   45  C17 UNL     1      16.288   3.905 -16.152  1.00  0.00     0.027 A 
HETATM   46  C18 UNL     1      15.049   4.229 -16.701  1.00  0.00     0.032 A 
HETATM   47  C19 UNL     1      14.466   3.436 -17.658  1.00  0.00     0.050 A 
HETATM   48  C20 UNL     1      15.124   2.306 -18.075  1.00  0.00     0.032 A 
HETATM   49  C21 UNL     1      16.365   1.975 -17.531  1.00  0.00     0.027 A 
BRANCH  47  50
HETATM   50  N5  UNL     1      13.208   3.807 -18.184  1.00  0.00    -0.282 N 
HETATM   51  N6  UNL     1      12.117   3.478 -17.637  1.00  0.00    -0.210 N 
ATOM     52  H6  UNL     1      11.236   3.772 -18.059  1.00  0.00     0.215 HD
ATOM     53  H5  UNL     1      13.180   4.363 -19.039  1.00  0.00     0.189 HD
BRANCH  51  54
HETATM   54  O6  UNL     1      12.097   2.731 -16.487  1.00  0.00    -0.274 OA
ATOM     55  H6  UNL     1      11.281   2.406 -16.126  1.00  0.00     0.246 HD
ENDBRANCH  51  54
ENDBRANCH  47  50
ENDBRANCH  41  44
ENDBRANCH  36  41
ENDBRANCH   4  33
TORSDOF 15
ENDMDL
MODEL 5
REMARK VINA RESULT: -9.770754568      3.068      7.347
REMARK  15 active torsions:
REMARK  status: ('A' for Active; 'I' for Inactive)
REMARK    1  A    between atoms: O1_2  and  C2_3 
REMARK    2  A    between atoms: C2_3  and  C3_5 
REMARK    3  A    between atoms: C7_9  and  S1_10 
REMARK    4  A    between atoms: S1_10  and  C8_11 
REMARK    5  A    between atoms: C8_11  and  C9_12 
REMARK    6  A    between atoms: C9_12  and  N1_13 
REMARK    7  A    between atoms: C9_12  and  C24_46 
REMARK       I    between atoms: N1_13  and  C10_15 
REMARK    8  A    between atoms: C10_15  and  C11_17 
REMARK    9  A    between atoms: C14_20  and  N2_21 
REMARK       I    between atoms: N2_21  and  C15_23 
REMARK       I    between atoms: C15_23  and  N4_27 
REMARK   10  A    between atoms: N4_27  and  S2_29 
REMARK   11  A    between atoms: S2_29  and  C16_32 
REMARK   12  A    between atoms: C19_35  and  N5_36 
REMARK   13  A    between atoms: N6_38  and  O6_40 
REMARK   14  A    between atoms: C24_46  and  O8_48 
REMARK   15  A    between atoms: O8_48  and  C25_49 
ROOT
HETATM    1  C11 UNL     1      15.313   2.425  -9.403  1.00  0.00     0.032 A 
HETATM    2  C12 UNL     1      16.371   2.367 -10.290  1.00  0.00     0.019 A 
HETATM    3  C13 UNL     1      16.441   1.414 -11.286  1.00  0.00     0.031 A 
HETATM    4  C14 UNL     1      15.443   0.464 -11.440  1.00  0.00     0.049 A 
HETATM    5  C22 UNL     1      14.386   0.514 -10.560  1.00  0.00     0.031 A 
HETATM    6  C23 UNL     1      14.324   1.481  -9.556  1.00  0.00     0.019 A 
ENDROOT
BRANCH   1   7
HETATM    7  C10 UNL     1      15.180   3.418  -8.349  1.00  0.00     0.252 C 
HETATM    8  N1  UNL     1      13.936   3.820  -7.793  1.00  0.00    -0.342 N 
ATOM      9  H1  UNL     1      13.086   3.386  -8.153  1.00  0.00     0.163 HD
HETATM   10  O3  UNL     1      16.216   3.981  -7.872  1.00  0.00    -0.268 OA
BRANCH   8  11
HETATM   11  C9  UNL     1      13.807   4.798  -6.759  1.00  0.00     0.194 C 
BRANCH  11  12
HETATM   12  C8  UNL     1      12.751   5.838  -6.996  1.00  0.00     0.114 C 
BRANCH  12  13
HETATM   13  S1  UNL     1      11.711   5.527  -8.421  1.00  0.00    -0.127 SA
BRANCH  13  14
HETATM   14  C7  UNL     1      11.440   7.015  -9.353  1.00  0.00     0.001 A 
HETATM   15  C6  UNL     1      11.435   8.221  -8.698  1.00  0.00     0.018 A 
HETATM   16  C5  UNL     1      11.231   9.424  -9.381  1.00  0.00     0.002 A 
HETATM   17  C4  UNL     1      11.027   9.385 -10.758  1.00  0.00     0.017 A 
HETATM   18  C3  UNL     1      11.028   8.171 -11.435  1.00  0.00     0.040 A 
HETATM   19  C31 UNL     1      11.235   7.012 -10.714  1.00  0.00     0.036 A 
BRANCH  18  20
HETATM   20  C2  UNL     1      10.822   8.107 -12.874  1.00  0.00     0.292 C 
HETATM   21  O2  UNL     1      11.777   8.033 -13.654  1.00  0.00    -0.259 OA
BRANCH  20  22
HETATM   22  O1  UNL     1       9.524   8.130 -13.368  1.00  0.00    -0.323 OA
HETATM   23  C1  UNL     1       8.974   9.292 -13.978  1.00  0.00     0.213 C 
ENDBRANCH  20  22
ENDBRANCH  18  20
ENDBRANCH  13  14
ENDBRANCH  12  13
ENDBRANCH  11  12
BRANCH  11  24
HETATM   24  C24 UNL     1      13.398   4.051  -5.508  1.00  0.00     0.287 C 
HETATM   25  O7  UNL     1      13.095   4.662  -4.440  1.00  0.00    -0.262 OA
BRANCH  24  26
HETATM   26  O8  UNL     1      13.337   2.673  -5.479  1.00  0.00    -0.277 OA
BRANCH  26  27
HETATM   27  C25 UNL     1      14.058   1.900  -4.601  1.00  0.00     0.079 A 
HETATM   28  C26 UNL     1      15.411   1.770  -4.768  1.00  0.00     0.037 A 
HETATM   29  C27 UNL     1      16.152   0.983  -3.874  1.00  0.00     0.003 A 
HETATM   30  C28 UNL     1      15.540   0.334  -2.822  1.00  0.00     0.000 A 
HETATM   31  C29 UNL     1      14.172   0.479  -2.670  1.00  0.00     0.003 A 
HETATM   32  C30 UNL     1      13.430   1.262  -3.559  1.00  0.00     0.037 A 
ENDBRANCH  26  27
ENDBRANCH  24  26
ENDBRANCH  11  24
ENDBRANCH   8  11
ENDBRANCH   1   7
BRANCH   4  33
HETATM   33  N2  UNL     1      15.506  -0.529 -12.463  1.00  0.00    -0.192 N 
HETATM   34  C15 UNL     1      16.744  -0.848 -13.062  1.00  0.00     0.686 C 
HETATM   35  N3  UNL     1      17.349  -1.917 -12.638  1.00  0.00    -0.234 N 
HETATM   36  N4  UNL     1      17.385  -0.115 -14.079  1.00  0.00    -0.113 N 
ATOM     37  H32 UNL     1      16.885  -2.447 -11.901  1.00  0.00     0.174 HD
ATOM     38  H31 UNL     1      18.243  -2.148 -13.070  1.00  0.00     0.174 HD
ATOM     39  H4  UNL     1      18.055   0.623 -13.865  1.00  0.00     0.197 HD
ATOM     40  H2  UNL     1      14.656  -1.007 -12.762  1.00  0.00     0.184 HD
BRANCH  36  41
HETATM   41  S2  UNL     1      16.977  -0.532 -15.720  1.00  0.00     0.276 S 
HETATM   42  O4  UNL     1      16.647  -2.005 -15.811  1.00  0.00    -0.200 OA
HETATM   43  O5  UNL     1      18.089  -0.157 -16.648  1.00  0.00    -0.200 OA
BRANCH  41  44
HETATM   44  C16 UNL     1      15.546   0.402 -16.117  1.00  0.00     0.080 A 
HETATM   45  C17 UNL     1      15.297   1.570 -15.458  1.00  0.00     0.027 A 
HETATM   46  C18 UNL     1      14.163   2.320 -15.767  1.00  0.00     0.032 A 
HETATM   47  C19 UNL     1      13.279   1.906 -16.732  1.00  0.00     0.050 A 
HETATM   48  C20 UNL     1      13.524   0.732 -17.399  1.00  0.00     0.032 A 
HETATM   49  C21 UNL     1      14.657  -0.024 -17.095  1.00  0.00     0.027 A 
BRANCH  47  50
HETATM   50  N5  UNL     1      12.145   2.702 -17.010  1.00  0.00    -0.282 N 
HETATM   51  N6  UNL     1      12.173   3.669 -17.823  1.00  0.00    -0.210 N 
ATOM     52  H6  UNL     1      11.326   4.211 -17.987  1.00  0.00     0.215 HD
ATOM     53  H5  UNL     1      11.268   2.487 -16.535  1.00  0.00     0.189 HD
BRANCH  51  54
HETATM   54  O6  UNL     1      13.326   4.002 -18.489  1.00  0.00    -0.274 OA
ATOM     55  H6  UNL     1      13.368   4.773 -19.043  1.00  0.00     0.246 HD
ENDBRANCH  51  54
ENDBRANCH  47  50
ENDBRANCH  41  44
ENDBRANCH  36  41
ENDBRANCH   4  33
TORSDOF 15
ENDMDL
