MODEL 1
REMARK VINA RESULT: -8.057315722      0.000      0.000
REMARK  5 active torsions:
REMARK  status: ('A' for Active; 'I' for Inactive)
REMARK    1  A    between atoms: N1_2  and  C2_4 
REMARK    2  A    between atoms: C3_7  and  C4_8 
REMARK    3  A    between atoms: C9_13  and  C10_14 
REMARK    4  A    between atoms: C10_14  and  C11_15 
REMARK    5  A    between atoms: C11_15  and  N3_16 
ROOT
HETATM    1  C2  UNL     1      37.868   4.898  47.517  1.00  0.00     0.678 A 
HETATM    2  N2  UNL     1      38.463   4.764  46.290  1.00  0.00    -0.195 N 
ATOM      3  H2  UNL     1      37.869   4.717  45.461  1.00  0.00     0.184 HD
HETATM    4  C3  UNL     1      39.789   4.693  46.132  1.00  0.00     0.036 A 
HETATM    5  C8  UNL     1      40.581   4.759  47.285  1.00  0.00     0.052 A 
HETATM    6  C9  UNL     1      40.011   4.893  48.520  1.00  0.00     0.030 A 
HETATM    7  N5  UNL     1      38.646   4.960  48.605  1.00  0.00    -0.196 N 
ATOM      8  H5  UNL     1      38.210   5.061  49.521  1.00  0.00     0.184 HD
ENDROOT
BRANCH   6   9
HETATM    9  C10 UNL     1      40.768   4.958  49.770  1.00  0.00     0.078 C 
BRANCH   9  10
HETATM   10  C11 UNL     1      39.857   4.900  50.968  1.00  0.00     0.143 C 
BRANCH  10  11
HETATM   11  N3  UNL     1      39.815   6.202  51.636  1.00  0.00    -0.268 N 
HETATM   12  C12 UNL     1      38.833   7.203  51.476  1.00  0.00     0.245 C 
HETATM   13  O1  UNL     1      37.907   7.206  50.592  1.00  0.00    -0.271 OA
HETATM   14  C13 UNL     1      39.081   8.226  52.509  1.00  0.00     0.230 C 
HETATM   15  N4  UNL     1      40.397   7.917  53.002  1.00  0.00    -0.329 N 
HETATM   16  C14 UNL     1      41.215   8.812  53.826  1.00  0.00     0.155 C 
HETATM   17  C15 UNL     1      40.790   6.631  52.578  1.00  0.00     0.327 C 
HETATM   18  O2  UNL     1      41.823   6.053  53.003  1.00  0.00    -0.247 OA
ENDBRANCH  10  11
ENDBRANCH   9  10
ENDBRANCH   6   9
BRANCH   4  19
HETATM   19  C4  UNL     1      40.454   4.549  44.823  1.00  0.00    -0.008 C 
HETATM   20  C5  UNL     1      40.400   3.109  44.337  1.00  0.00     0.021 C 
HETATM   21  C6  UNL     1      39.681   5.427  43.828  1.00  0.00     0.021 C 
HETATM   22  C7  UNL     1      41.891   4.998  44.938  1.00  0.00     0.021 C 
ENDBRANCH   4  19
BRANCH   1  23
HETATM   23  N1  UNL     1      36.596   4.951  47.536  1.00  0.00    -0.230 N 
HETATM   24  C1  UNL     1      35.836   5.823  48.359  1.00  0.00     0.165 C 
ATOM     25  H1  UNL     1      36.087   4.321  46.915  1.00  0.00     0.177 HD
ENDBRANCH   1  23
TORSDOF 5
ENDMDL
MODEL 2
REMARK VINA RESULT: -8.034474034      0.569      1.815
REMARK  5 active torsions:
REMARK  status: ('A' for Active; 'I' for Inactive)
REMARK    1  A    between atoms: N1_2  and  C2_4 
REMARK    2  A    between atoms: C3_7  and  C4_8 
REMARK    3  A    between atoms: C9_13  and  C10_14 
REMARK    4  A    between atoms: C10_14  and  C11_15 
REMARK    5  A    between atoms: C11_15  and  N3_16 
ROOT
HETATM    1  C2  UNL     1      37.868   4.913  47.510  1.00  0.00     0.678 A 
HETATM    2  N2  UNL     1      38.481   4.761  46.294  1.00  0.00    -0.195 N 
ATOM      3  H2  UNL     1      37.898   4.689  45.459  1.00  0.00     0.184 HD
HETATM    4  C3  UNL     1      39.809   4.705  46.155  1.00  0.00     0.036 A 
HETATM    5  C8  UNL     1      40.586   4.805  47.315  1.00  0.00     0.052 A 
HETATM    6  C9  UNL     1      39.998   4.958  48.541  1.00  0.00     0.030 A 
HETATM    7  N5  UNL     1      38.632   5.009  48.606  1.00  0.00    -0.196 N 
ATOM      8  H5  UNL     1      38.183   5.123  49.514  1.00  0.00     0.184 HD
ENDROOT
BRANCH   6   9
HETATM    9  C10 UNL     1      40.738   5.059  49.799  1.00  0.00     0.078 C 
BRANCH   9  10
HETATM   10  C11 UNL     1      39.818   4.956  50.986  1.00  0.00     0.143 C 
BRANCH  10  11
HETATM   11  N3  UNL     1      39.724   6.247  51.669  1.00  0.00    -0.268 N 
HETATM   12  C12 UNL     1      40.608   6.752  52.647  1.00  0.00     0.245 C 
HETATM   13  O1  UNL     1      41.543   6.092  53.220  1.00  0.00    -0.271 OA
HETATM   14  C13 UNL     1      40.246   8.163  52.874  1.00  0.00     0.230 C 
HETATM   15  N4  UNL     1      38.959   8.303  52.246  1.00  0.00    -0.329 N 
HETATM   16  C14 UNL     1      38.046   9.432  52.448  1.00  0.00     0.155 C 
HETATM   17  C15 UNL     1      38.698   7.196  51.412  1.00  0.00     0.327 C 
HETATM   18  O2  UNL     1      37.719   7.146  50.624  1.00  0.00    -0.247 OA
ENDBRANCH  10  11
ENDBRANCH   9  10
ENDBRANCH   6   9
BRANCH   4  19
HETATM   19  C4  UNL     1      40.494   4.541  44.857  1.00  0.00    -0.008 C 
HETATM   20  C5  UNL     1      40.437   3.097  44.386  1.00  0.00     0.021 C 
HETATM   21  C6  UNL     1      39.741   5.414  43.841  1.00  0.00     0.021 C 
HETATM   22  C7  UNL     1      41.931   4.982  44.990  1.00  0.00     0.021 C 
ENDBRANCH   4  19
BRANCH   1  23
HETATM   23  N1  UNL     1      36.596   4.950  47.512  1.00  0.00    -0.230 N 
HETATM   24  C1  UNL     1      35.813   5.806  48.330  1.00  0.00     0.165 C 
ATOM     25  H1  UNL     1      36.104   4.318  46.880  1.00  0.00     0.177 HD
ENDBRANCH   1  23
TORSDOF 5
ENDMDL
MODEL 3
REMARK VINA RESULT: -7.672378808      2.480      6.994
REMARK  5 active torsions:
REMARK  status: ('A' for Active; 'I' for Inactive)
REMARK    1  A    between atoms: N1_2  and  C2_4 
REMARK    2  A    between atoms: C3_7  and  C4_8 
REMARK    3  A    between atoms: C9_13  and  C10_14 
REMARK    4  A    between atoms: C10_14  and  C11_15 
REMARK    5  A    between atoms: C11_15  and  N3_16 
ROOT
HETATM    1  C2  UNL     1      40.125   6.214  52.234  1.00  0.00     0.678 A 
HETATM    2  N2  UNL     1      38.981   6.968  52.248  1.00  0.00    -0.195 N 
ATOM      3  H2  UNL     1      38.841   7.630  53.012  1.00  0.00     0.184 HD
HETATM    4  C3  UNL     1      38.040   6.874  51.301  1.00  0.00     0.036 A 
HETATM    5  C8  UNL     1      38.255   5.958  50.265  1.00  0.00     0.052 A 
HETATM    6  C9  UNL     1      39.389   5.195  50.229  1.00  0.00     0.030 A 
HETATM    7  N5  UNL     1      40.309   5.346  51.231  1.00  0.00    -0.196 N 
ATOM      8  H5  UNL     1      41.159   4.782  51.214  1.00  0.00     0.184 HD
ENDROOT
BRANCH   6   9
HETATM    9  C10 UNL     1      39.682   4.210  49.187  1.00  0.00     0.078 C 
BRANCH   9  10
HETATM   10  C11 UNL     1      38.610   4.195  48.129  1.00  0.00     0.143 C 
BRANCH  10  11
HETATM   11  N3  UNL     1      39.168   3.755  46.849  1.00  0.00    -0.268 N 
HETATM   12  C12 UNL     1      38.729   2.666  46.066  1.00  0.00     0.245 C 
HETATM   13  O1  UNL     1      37.879   1.780  46.429  1.00  0.00    -0.271 OA
HETATM   14  C13 UNL     1      39.431   2.749  44.772  1.00  0.00     0.230 C 
HETATM   15  N4  UNL     1      40.484   3.701  45.003  1.00  0.00    -0.329 N 
HETATM   16  C14 UNL     1      41.635   3.910  44.119  1.00  0.00     0.155 C 
HETATM   17  C15 UNL     1      40.255   4.405  46.203  1.00  0.00     0.327 C 
HETATM   18  O2  UNL     1      40.934   5.403  46.555  1.00  0.00    -0.247 OA
ENDBRANCH  10  11
ENDBRANCH   9  10
ENDBRANCH   6   9
BRANCH   4  19
HETATM   19  C4  UNL     1      36.800   7.674  51.293  1.00  0.00    -0.008 C 
HETATM   20  C5  UNL     1      35.827   7.188  52.356  1.00  0.00     0.021 C 
HETATM   21  C6  UNL     1      37.198   9.121  51.624  1.00  0.00     0.021 C 
HETATM   22  C7  UNL     1      36.157   7.588  49.930  1.00  0.00     0.021 C 
ENDBRANCH   4  19
BRANCH   1  23
HETATM   23  N1  UNL     1      40.942   6.393  53.193  1.00  0.00    -0.230 N 
HETATM   24  C1  UNL     1      40.576   6.810  54.499  1.00  0.00     0.165 C 
ATOM     25  H1  UNL     1      41.931   6.223  53.009  1.00  0.00     0.177 HD
ENDBRANCH   1  23
TORSDOF 5
ENDMDL
MODEL 4
REMARK VINA RESULT: -7.478970338      2.519      7.453
REMARK  5 active torsions:
REMARK  status: ('A' for Active; 'I' for Inactive)
REMARK    1  A    between atoms: N1_2  and  C2_4 
REMARK    2  A    between atoms: C3_7  and  C4_8 
REMARK    3  A    between atoms: C9_13  and  C10_14 
REMARK    4  A    between atoms: C10_14  and  C11_15 
REMARK    5  A    between atoms: C11_15  and  N3_16 
ROOT
HETATM    1  C2  UNL     1      39.269   6.612  51.543  1.00  0.00     0.678 A 
HETATM    2  N2  UNL     1      38.420   7.280  52.387  1.00  0.00    -0.195 N 
ATOM      3  H2  UNL     1      38.635   7.295  53.384  1.00  0.00     0.184 HD
HETATM    4  C3  UNL     1      37.324   7.913  51.958  1.00  0.00     0.036 A 
HETATM    5  C8  UNL     1      37.050   7.875  50.585  1.00  0.00     0.052 A 
HETATM    6  C9  UNL     1      37.883   7.216  49.723  1.00  0.00     0.030 A 
HETATM    7  N5  UNL     1      38.989   6.592  50.234  1.00  0.00    -0.196 N 
ATOM      8  H5  UNL     1      39.616   6.097  49.601  1.00  0.00     0.184 HD
ENDROOT
BRANCH   6   9
HETATM    9  C10 UNL     1      37.662   7.123  48.280  1.00  0.00     0.078 C 
BRANCH   9  10
HETATM   10  C11 UNL     1      38.936   6.789  47.550  1.00  0.00     0.143 C 
BRANCH  10  11
HETATM   11  N3  UNL     1      38.824   5.480  46.906  1.00  0.00    -0.268 N 
HETATM   12  C12 UNL     1      38.917   4.219  47.534  1.00  0.00     0.245 C 
HETATM   13  O1  UNL     1      39.281   4.012  48.743  1.00  0.00    -0.271 OA
HETATM   14  C13 UNL     1      38.518   3.207  46.538  1.00  0.00     0.230 C 
HETATM   15  N4  UNL     1      38.530   3.918  45.288  1.00  0.00    -0.329 N 
HETATM   16  C14 UNL     1      38.493   3.288  43.965  1.00  0.00     0.155 C 
HETATM   17  C15 UNL     1      38.586   5.309  45.515  1.00  0.00     0.327 C 
HETATM   18  O2  UNL     1      38.444   6.160  44.601  1.00  0.00    -0.247 OA
ENDBRANCH  10  11
ENDBRANCH   9  10
ENDBRANCH   6   9
BRANCH   4  19
HETATM   19  C4  UNL     1      36.393   8.639  52.845  1.00  0.00    -0.008 C 
HETATM   20  C5  UNL     1      36.829  10.083  53.032  1.00  0.00     0.021 C 
HETATM   21  C6  UNL     1      35.020   8.630  52.157  1.00  0.00     0.021 C 
HETATM   22  C7  UNL     1      36.333   7.944  54.184  1.00  0.00     0.021 C 
ENDBRANCH   4  19
BRANCH   1  23
HETATM   23  N1  UNL     1      40.278   6.046  52.074  1.00  0.00    -0.230 N 
HETATM   24  C1  UNL     1      41.132   6.651  53.033  1.00  0.00     0.165 C 
ATOM     25  H1  UNL     1      40.488   5.089  51.789  1.00  0.00     0.177 HD
ENDBRANCH   1  23
TORSDOF 5
ENDMDL
MODEL 5
REMARK VINA RESULT: -7.467687342      2.361      7.285
REMARK  5 active torsions:
REMARK  status: ('A' for Active; 'I' for Inactive)
REMARK    1  A    between atoms: N1_2  and  C2_4 
REMARK    2  A    between atoms: C3_7  and  C4_8 
REMARK    3  A    between atoms: C9_13  and  C10_14 
REMARK    4  A    between atoms: C10_14  and  C11_15 
REMARK    5  A    between atoms: C11_15  and  N3_16 
ROOT
HETATM    1  C2  UNL     1      39.392   6.447  51.675  1.00  0.00     0.678 A 
HETATM    2  N2  UNL     1      38.574   7.247  52.430  1.00  0.00    -0.195 N 
ATOM      3  H2  UNL     1      38.896   7.543  53.352  1.00  0.00     0.184 HD
HETATM    4  C3  UNL     1      37.372   7.656  52.010  1.00  0.00     0.036 A 
HETATM    5  C8  UNL     1      36.952   7.234  50.743  1.00  0.00     0.052 A 
HETATM    6  C9  UNL     1      37.750   6.436  49.970  1.00  0.00     0.030 A 
HETATM    7  N5  UNL     1      38.969   6.058  50.465  1.00  0.00    -0.196 N 
ATOM      8  H5  UNL     1      39.572   5.464  49.897  1.00  0.00     0.184 HD
ENDROOT
BRANCH   6   9
HETATM    9  C10 UNL     1      37.380   5.946  48.642  1.00  0.00     0.078 C 
BRANCH   9  10
HETATM   10  C11 UNL     1      38.022   4.616  48.350  1.00  0.00     0.143 C 
BRANCH  10  11
HETATM   11  N3  UNL     1      39.002   4.752  47.272  1.00  0.00    -0.268 N 
HETATM   12  C12 UNL     1      40.402   4.865  47.412  1.00  0.00     0.245 C 
HETATM   13  O1  UNL     1      41.030   5.037  48.514  1.00  0.00    -0.271 OA
HETATM   14  C13 UNL     1      40.986   4.750  46.063  1.00  0.00     0.230 C 
HETATM   15  N4  UNL     1      39.862   4.902  45.178  1.00  0.00    -0.329 N 
HETATM   16  C14 UNL     1      39.958   5.158  43.738  1.00  0.00     0.155 C 
HETATM   17  C15 UNL     1      38.654   4.774  45.894  1.00  0.00     0.327 C 
HETATM   18  O2  UNL     1      37.529   4.704  45.336  1.00  0.00    -0.247 OA
ENDBRANCH  10  11
ENDBRANCH   9  10
ENDBRANCH   6   9
BRANCH   4  19
HETATM   19  C4  UNL     1      36.473   8.517  52.804  1.00  0.00    -0.008 C 
HETATM   20  C5  UNL     1      35.093   8.599  52.171  1.00  0.00     0.021 C 
HETATM   21  C6  UNL     1      36.335   7.864  54.188  1.00  0.00     0.021 C 
HETATM   22  C7  UNL     1      37.071   9.898  52.914  1.00  0.00     0.021 C 
ENDBRANCH   4  19
BRANCH   1  23
HETATM   23  N1  UNL     1      40.510   6.123  52.187  1.00  0.00    -0.230 N 
HETATM   24  C1  UNL     1      41.177   6.856  53.203  1.00  0.00     0.165 C 
ATOM     25  H1  UNL     1      40.960   5.274  51.843  1.00  0.00     0.177 HD
ENDBRANCH   1  23
TORSDOF 5
ENDMDL
