MODEL 1
REMARK VINA RESULT: -8.881429395      0.000      0.000
REMARK  3 active torsions:
REMARK  status: ('A' for Active; 'I' for Inactive)
REMARK    1  A    between atoms: C2_2  and  N1_4 
REMARK    2  A    between atoms: N1_4  and  S1_6 
REMARK    3  A    between atoms: S1_6  and  N2_9 
ROOT
HETATM    1  N2  UNL     1      37.590   6.051  47.279  1.00  0.00    -0.193 NA
HETATM    2  C4  UNL     1      38.530   6.768  46.472  1.00  0.00     0.110 C 
HETATM    3  C5  UNL     1      38.662   6.081  45.133  1.00  0.00     0.041 C 
HETATM    4  C6  UNL     1      39.344   4.743  45.304  1.00  0.00     0.066 C 
HETATM    5  C7  UNL     1      40.805   4.871  45.281  1.00  0.00     0.026 C 
HETATM    6  C8  UNL     1      41.490   3.844  44.534  1.00  0.00     0.017 C 
HETATM    7  C9  UNL     1      40.607   2.842  43.920  1.00  0.00     0.141 C 
HETATM    8  S2  UNL     1      39.016   3.664  43.910  1.00  0.00     0.153 S 
HETATM    9  O3  UNL     1      37.902   2.726  44.182  1.00  0.00    -0.227 OA
HETATM   10  O4  UNL     1      38.824   4.491  42.687  1.00  0.00    -0.227 OA
HETATM   11  C10 UNL     1      38.917   4.088  46.606  1.00  0.00     0.041 C 
HETATM   12  C11 UNL     1      37.615   4.632  47.112  1.00  0.00     0.110 C 
ENDROOT
BRANCH   1  13
HETATM   13  S1  UNL     1      37.659   6.533  48.941  1.00  0.00     0.299 S 
HETATM   14  O1  UNL     1      37.255   7.973  49.005  1.00  0.00    -0.188 OA
HETATM   15  O2  UNL     1      36.648   5.721  49.673  1.00  0.00    -0.188 OA
BRANCH  13  16
HETATM   16  N1  UNL     1      39.253   6.311  49.492  1.00  0.00    -0.303 N 
ATOM     17  H1  UNL     1      40.047   6.800  49.077  1.00  0.00     0.173 HD
BRANCH  16  18
HETATM   18  C2  UNL     1      39.403   5.394  50.574  1.00  0.00     0.086 C 
HETATM   19  C1  UNL     1      39.999   6.078  51.783  1.00  0.00     0.032 C 
HETATM   20  C3  UNL     1      40.228   4.179  50.245  1.00  0.00     0.032 C 
ENDBRANCH  16  18
ENDBRANCH  13  16
ENDBRANCH   1  13
TORSDOF 3
ENDMDL
MODEL 2
REMARK VINA RESULT: -8.143566485      1.800      2.166
REMARK  3 active torsions:
REMARK  status: ('A' for Active; 'I' for Inactive)
REMARK    1  A    between atoms: C2_2  and  N1_4 
REMARK    2  A    between atoms: N1_4  and  S1_6 
REMARK    3  A    between atoms: S1_6  and  N2_9 
ROOT
HETATM    1  N2  UNL     1      37.692   6.279  47.774  1.00  0.00    -0.193 NA
HETATM    2  C4  UNL     1      38.814   6.896  47.133  1.00  0.00     0.110 C 
HETATM    3  C5  UNL     1      38.873   6.446  45.692  1.00  0.00     0.041 C 
HETATM    4  C6  UNL     1      39.233   4.979  45.624  1.00  0.00     0.066 C 
HETATM    5  C7  UNL     1      40.686   4.775  45.653  1.00  0.00     0.026 C 
HETATM    6  C8  UNL     1      41.172   3.768  44.740  1.00  0.00     0.017 C 
HETATM    7  C9  UNL     1      40.130   3.119  43.933  1.00  0.00     0.141 C 
HETATM    8  S2  UNL     1      38.761   4.268  44.046  1.00  0.00     0.153 S 
HETATM    9  O3  UNL     1      37.455   3.574  44.117  1.00  0.00    -0.227 OA
HETATM   10  O4  UNL     1      38.830   5.321  42.996  1.00  0.00    -0.227 OA
HETATM   11  C10 UNL     1      38.595   4.218  46.772  1.00  0.00     0.041 C 
HETATM   12  C11 UNL     1      37.416   4.944  47.346  1.00  0.00     0.110 C 
ENDROOT
BRANCH   1  13
HETATM   13  S1  UNL     1      37.765   6.430  49.498  1.00  0.00     0.299 S 
HETATM   14  O1  UNL     1      36.582   5.704  50.060  1.00  0.00    -0.188 OA
HETATM   15  O2  UNL     1      39.006   5.736  49.944  1.00  0.00    -0.188 OA
BRANCH  13  16
HETATM   16  N1  UNL     1      37.720   8.084  49.888  1.00  0.00    -0.303 N 
ATOM     17  H1  UNL     1      37.708   8.813  49.174  1.00  0.00     0.173 HD
BRANCH  16  18
HETATM   18  C2  UNL     1      37.702   8.383  51.284  1.00  0.00     0.086 C 
HETATM   19  C1  UNL     1      36.294   8.658  51.759  1.00  0.00     0.032 C 
HETATM   20  C3  UNL     1      38.585   9.535  51.681  1.00  0.00     0.032 C 
ENDBRANCH  16  18
ENDBRANCH  13  16
ENDBRANCH   1  13
TORSDOF 3
ENDMDL
MODEL 3
REMARK VINA RESULT: -8.140928441      2.763      6.452
REMARK  3 active torsions:
REMARK  status: ('A' for Active; 'I' for Inactive)
REMARK    1  A    between atoms: C2_2  and  N1_4 
REMARK    2  A    between atoms: N1_4  and  S1_6 
REMARK    3  A    between atoms: S1_6  and  N2_9 
ROOT
HETATM    1  N2  UNL     1      38.821   6.391  47.510  1.00  0.00    -0.193 NA
HETATM    2  C4  UNL     1      37.961   7.533  47.573  1.00  0.00     0.110 C 
HETATM    3  C5  UNL     1      38.182   8.250  48.884  1.00  0.00     0.041 C 
HETATM    4  C6  UNL     1      37.671   7.402  50.028  1.00  0.00     0.066 C 
HETATM    5  C7  UNL     1      36.237   7.609  50.259  1.00  0.00     0.026 C 
HETATM    6  C8  UNL     1      35.856   7.691  51.648  1.00  0.00     0.017 C 
HETATM    7  C9  UNL     1      36.969   7.555  52.598  1.00  0.00     0.141 C 
HETATM    8  S2  UNL     1      38.404   7.905  51.586  1.00  0.00     0.153 S 
HETATM    9  O3  UNL     1      39.565   7.062  51.952  1.00  0.00    -0.227 OA
HETATM   10  O4  UNL     1      38.707   9.362  51.534  1.00  0.00    -0.227 OA
HETATM   11  C10 UNL     1      37.930   5.930  49.759  1.00  0.00     0.041 C 
HETATM   12  C11 UNL     1      39.025   5.723  48.756  1.00  0.00     0.110 C 
ENDROOT
BRANCH   1  13
HETATM   13  S1  UNL     1      38.372   5.309  46.233  1.00  0.00     0.299 S 
HETATM   14  O1  UNL     1      37.052   4.708  46.602  1.00  0.00    -0.188 OA
HETATM   15  O2  UNL     1      38.194   6.134  45.006  1.00  0.00    -0.188 OA
BRANCH  13  16
HETATM   16  N1  UNL     1      39.579   4.119  46.097  1.00  0.00    -0.303 N 
ATOM     17  H1  UNL     1      39.651   3.337  46.750  1.00  0.00     0.173 HD
BRANCH  16  18
HETATM   18  C2  UNL     1      40.484   4.288  45.008  1.00  0.00     0.086 C 
HETATM   19  C1  UNL     1      40.624   3.008  44.217  1.00  0.00     0.032 C 
HETATM   20  C3  UNL     1      41.854   4.766  45.410  1.00  0.00     0.032 C 
ENDBRANCH  16  18
ENDBRANCH  13  16
ENDBRANCH   1  13
TORSDOF 3
ENDMDL
MODEL 4
REMARK VINA RESULT: -8.004295549      2.260      2.879
REMARK  3 active torsions:
REMARK  status: ('A' for Active; 'I' for Inactive)
REMARK    1  A    between atoms: C2_2  and  N1_4 
REMARK    2  A    between atoms: N1_4  and  S1_6 
REMARK    3  A    between atoms: S1_6  and  N2_9 
ROOT
HETATM    1  N2  UNL     1      39.147   6.453  48.350  1.00  0.00    -0.193 NA
HETATM    2  C4  UNL     1      40.106   5.395  48.260  1.00  0.00     0.110 C 
HETATM    3  C5  UNL     1      40.546   5.243  46.823  1.00  0.00     0.041 C 
HETATM    4  C6  UNL     1      39.404   4.710  45.987  1.00  0.00     0.066 C 
HETATM    5  C7  UNL     1      39.339   3.245  46.028  1.00  0.00     0.026 C 
HETATM    6  C8  UNL     1      39.059   2.617  44.759  1.00  0.00     0.017 C 
HETATM    7  C9  UNL     1      38.889   3.552  43.638  1.00  0.00     0.141 C 
HETATM    8  S2  UNL     1      39.661   5.050  44.245  1.00  0.00     0.153 S 
HETATM    9  O3  UNL     1      38.941   6.267  43.804  1.00  0.00    -0.227 OA
HETATM   10  O4  UNL     1      41.122   5.076  43.963  1.00  0.00    -0.227 OA
HETATM   11  C10 UNL     1      38.081   5.285  46.461  1.00  0.00     0.041 C 
HETATM   12  C11 UNL     1      38.263   6.558  47.232  1.00  0.00     0.110 C 
ENDROOT
BRANCH   1  13
HETATM   13  S1  UNL     1      38.313   6.447  49.868  1.00  0.00     0.299 S 
HETATM   14  O1  UNL     1      37.128   5.543  49.723  1.00  0.00    -0.188 OA
HETATM   15  O2  UNL     1      39.242   5.858  50.873  1.00  0.00    -0.188 OA
BRANCH  13  16
HETATM   16  N1  UNL     1      37.837   8.042  50.218  1.00  0.00    -0.303 N 
ATOM     17  H1  UNL     1      37.807   8.771  49.506  1.00  0.00     0.173 HD
BRANCH  16  18
HETATM   18  C2  UNL     1      37.482   8.289  51.578  1.00  0.00     0.086 C 
HETATM   19  C1  UNL     1      35.985   8.433  51.728  1.00  0.00     0.032 C 
HETATM   20  C3  UNL     1      38.151   9.493  52.183  1.00  0.00     0.032 C 
ENDBRANCH  16  18
ENDBRANCH  13  16
ENDBRANCH   1  13
TORSDOF 3
ENDMDL
MODEL 5
REMARK VINA RESULT: -7.990818833      2.794      6.482
REMARK  3 active torsions:
REMARK  status: ('A' for Active; 'I' for Inactive)
REMARK    1  A    between atoms: C2_2  and  N1_4 
REMARK    2  A    between atoms: N1_4  and  S1_6 
REMARK    3  A    between atoms: S1_6  and  N2_9 
ROOT
HETATM    1  N2  UNL     1      38.812   5.952  47.869  1.00  0.00    -0.193 NA
HETATM    2  C4  UNL     1      37.896   7.046  47.753  1.00  0.00     0.110 C 
HETATM    3  C5  UNL     1      38.092   7.984  48.921  1.00  0.00     0.041 C 
HETATM    4  C6  UNL     1      37.634   7.319  50.199  1.00  0.00     0.066 C 
HETATM    5  C7  UNL     1      36.194   7.494  50.417  1.00  0.00     0.026 C 
HETATM    6  C8  UNL     1      35.820   7.791  51.778  1.00  0.00     0.017 C 
HETATM    7  C9  UNL     1      36.947   7.872  52.718  1.00  0.00     0.141 C 
HETATM    8  S2  UNL     1      38.354   8.113  51.637  1.00  0.00     0.153 S 
HETATM    9  O3  UNL     1      39.558   7.401  52.122  1.00  0.00    -0.227 OA
HETATM   10  O4  UNL     1      38.584   9.552  51.336  1.00  0.00    -0.227 OA
HETATM   11  C10 UNL     1      37.963   5.837  50.178  1.00  0.00     0.041 C 
HETATM   12  C11 UNL     1      39.059   5.516  49.206  1.00  0.00     0.110 C 
ENDROOT
BRANCH   1  13
HETATM   13  S1  UNL     1      38.406   4.649  46.801  1.00  0.00     0.299 S 
HETATM   14  O1  UNL     1      38.691   3.372  47.528  1.00  0.00    -0.188 OA
HETATM   15  O2  UNL     1      36.941   4.736  46.545  1.00  0.00    -0.188 OA
BRANCH  13  16
HETATM   16  N1  UNL     1      39.362   4.793  45.402  1.00  0.00    -0.303 N 
ATOM     17  H1  UNL     1      39.140   5.451  44.655  1.00  0.00     0.173 HD
BRANCH  16  18
HETATM   18  C2  UNL     1      40.496   3.929  45.346  1.00  0.00     0.086 C 
HETATM   19  C1  UNL     1      41.781   4.724  45.338  1.00  0.00     0.032 C 
HETATM   20  C3  UNL     1      40.498   2.986  44.172  1.00  0.00     0.032 C 
ENDBRANCH  16  18
ENDBRANCH  13  16
ENDBRANCH   1  13
TORSDOF 3
ENDMDL
