MODEL 1
REMARK VINA RESULT: -7.822401013      0.000      0.000
REMARK  5 active torsions:
REMARK  status: ('A' for Active; 'I' for Inactive)
REMARK    1  A    between atoms: N2_5  and  C3_6 
REMARK    2  A    between atoms: C7_11  and  C8_12 
REMARK    3  A    between atoms: C8_12  and  C9_13 
REMARK    4  A    between atoms: C10_14  and  N3_15 
REMARK    5  A    between atoms: N4_20  and  O2_21 
ROOT
HETATM    1  C9  UNL     1      38.594   5.848  49.843  1.00  0.00     0.016 A 
HETATM    2  C10 UNL     1      37.973   7.101  49.809  1.00  0.00     0.043 A 
HETATM    3  C13 UNL     1      38.274   7.964  50.837  1.00  0.00     0.050 A 
HETATM    4  C14 UNL     1      39.149   7.585  51.835  1.00  0.00     0.125 A 
HETATM    5  N4  UNL     1      39.730   6.370  51.838  1.00  0.00    -0.240 N 
HETATM    6  C15 UNL     1      39.475   5.484  50.861  1.00  0.00     0.048 A 
HETATM    7  C16 UNL     1      40.123   4.145  50.874  1.00  0.00     0.072 C 
ENDROOT
BRANCH   1   8
HETATM    8  C8  UNL     1      38.295   4.889  48.830  1.00  0.00     0.035 C 
BRANCH   8   9
HETATM    9  C7  UNL     1      38.760   4.793  47.605  1.00  0.00     0.062 A 
HETATM   10  C2  UNL     1      40.016   4.805  47.075  1.00  0.00     0.054 A 
HETATM   11  C1  UNL     1      41.170   4.926  47.698  1.00  0.00     0.045 C 
HETATM   12  N1  UNL     1      39.895   4.666  45.719  1.00  0.00    -0.295 N 
HETATM   13  N2  UNL     1      38.657   4.569  45.380  1.00  0.00    -0.252 N 
ATOM     14  H1  UNL     1      40.679   4.643  45.067  1.00  0.00     0.187 HD
HETATM   15  C6  UNL     1      37.916   4.640  46.492  1.00  0.00     0.275 A 
HETATM   16  O1  UNL     1      36.644   4.581  46.563  1.00  0.00    -0.266 OA
BRANCH  13  17
HETATM   17  C3  UNL     1      38.092   4.407  44.033  1.00  0.00     0.103 C 
HETATM   18  C4  UNL     1      38.794   5.391  43.107  1.00  0.00     0.034 C 
HETATM   19  C5  UNL     1      38.361   3.000  43.565  1.00  0.00     0.034 C 
ENDBRANCH  13  17
ENDBRANCH   8   9
ENDBRANCH   1   8
BRANCH   2  20
HETATM   20  N3  UNL     1      37.078   7.440  48.753  1.00  0.00    -0.389 N 
HETATM   21  C11 UNL     1      37.599   8.219  47.641  1.00  0.00     0.149 C 
HETATM   22  C12 UNL     1      35.702   7.038  48.759  1.00  0.00     0.149 C 
ENDBRANCH   2  20
BRANCH   5  23
HETATM   23  O2  UNL     1      40.602   5.992  52.832  1.00  0.00    -0.283 OA
ATOM     24  H2  UNL     1      40.983   5.122  52.855  1.00  0.00     0.245 HD
ENDBRANCH   5  23
TORSDOF 5
ENDMDL
MODEL 2
REMARK VINA RESULT: -7.149116814      1.412      1.847
REMARK  5 active torsions:
REMARK  status: ('A' for Active; 'I' for Inactive)
REMARK    1  A    between atoms: N2_5  and  C3_6 
REMARK    2  A    between atoms: C7_11  and  C8_12 
REMARK    3  A    between atoms: C8_12  and  C9_13 
REMARK    4  A    between atoms: C10_14  and  N3_15 
REMARK    5  A    between atoms: N4_20  and  O2_21 
ROOT
HETATM    1  C9  UNL     1      38.713   5.886  50.336  1.00  0.00     0.016 A 
HETATM    2  C10 UNL     1      37.915   6.757  51.086  1.00  0.00     0.043 A 
HETATM    3  C13 UNL     1      38.477   7.275  52.230  1.00  0.00     0.050 A 
HETATM    4  C14 UNL     1      39.765   6.935  52.592  1.00  0.00     0.125 A 
HETATM    5  N4  UNL     1      40.507   6.093  51.848  1.00  0.00    -0.240 N 
HETATM    6  C15 UNL     1      40.013   5.555  50.721  1.00  0.00     0.048 A 
HETATM    7  C16 UNL     1      40.841   4.627  49.906  1.00  0.00     0.072 C 
ENDROOT
BRANCH   1   8
HETATM    8  C8  UNL     1      38.179   5.282  49.161  1.00  0.00     0.035 C 
BRANCH   8   9
HETATM    9  C7  UNL     1      38.429   5.542  47.898  1.00  0.00     0.062 A 
HETATM   10  C2  UNL     1      38.532   6.697  47.181  1.00  0.00     0.054 A 
HETATM   11  C1  UNL     1      38.397   7.938  47.599  1.00  0.00     0.045 C 
HETATM   12  N1  UNL     1      38.811   6.357  45.885  1.00  0.00    -0.295 N 
HETATM   13  N2  UNL     1      38.887   5.079  45.755  1.00  0.00    -0.252 N 
ATOM     14  H1  UNL     1      38.941   7.026  45.126  1.00  0.00     0.187 HD
HETATM   15  C6  UNL     1      38.662   4.527  46.954  1.00  0.00     0.275 A 
HETATM   16  O1  UNL     1      38.654   3.281  47.228  1.00  0.00    -0.266 OA
BRANCH  13  17
HETATM   17  C3  UNL     1      39.167   4.300  44.541  1.00  0.00     0.103 C 
HETATM   18  C4  UNL     1      38.697   5.114  43.343  1.00  0.00     0.034 C 
HETATM   19  C5  UNL     1      40.656   4.082  44.444  1.00  0.00     0.034 C 
ENDBRANCH  13  17
ENDBRANCH   8   9
ENDBRANCH   1   8
BRANCH   2  20
HETATM   20  N3  UNL     1      36.592   7.074  50.664  1.00  0.00    -0.389 N 
HETATM   21  C11 UNL     1      35.981   8.286  51.187  1.00  0.00     0.149 C 
HETATM   22  C12 UNL     1      35.861   6.243  49.753  1.00  0.00     0.149 C 
ENDBRANCH   2  20
BRANCH   5  23
HETATM   23  O2  UNL     1      41.790   5.754  52.208  1.00  0.00    -0.283 OA
ATOM     24  H2  UNL     1      42.545   6.132  51.774  1.00  0.00     0.245 HD
ENDBRANCH   5  23
TORSDOF 5
ENDMDL
MODEL 3
REMARK VINA RESULT: -6.726896357      2.080      5.890
REMARK  5 active torsions:
REMARK  status: ('A' for Active; 'I' for Inactive)
REMARK    1  A    between atoms: N2_5  and  C3_6 
REMARK    2  A    between atoms: C7_11  and  C8_12 
REMARK    3  A    between atoms: C8_12  and  C9_13 
REMARK    4  A    between atoms: C10_14  and  N3_15 
REMARK    5  A    between atoms: N4_20  and  O2_21 
ROOT
HETATM    1  C9  UNL     1      39.822   4.337  46.397  1.00  0.00     0.016 A 
HETATM    2  C10 UNL     1      40.224   4.492  45.065  1.00  0.00     0.043 A 
HETATM    3  C13 UNL     1      39.709   3.595  44.159  1.00  0.00     0.050 A 
HETATM    4  C14 UNL     1      38.840   2.604  44.572  1.00  0.00     0.125 A 
HETATM    5  N4  UNL     1      38.472   2.484  45.862  1.00  0.00    -0.240 N 
HETATM    6  C15 UNL     1      38.942   3.329  46.793  1.00  0.00     0.048 A 
HETATM    7  C16 UNL     1      38.529   3.187  48.214  1.00  0.00     0.072 C 
ENDROOT
BRANCH   1   8
HETATM    8  C8  UNL     1      40.349   5.208  47.394  1.00  0.00     0.035 C 
BRANCH   8   9
HETATM    9  C7  UNL     1      39.777   5.687  48.476  1.00  0.00     0.062 A 
HETATM   10  C2  UNL     1      39.989   5.500  49.810  1.00  0.00     0.054 A 
HETATM   11  C1  UNL     1      40.886   4.738  50.400  1.00  0.00     0.045 C 
HETATM   12  N1  UNL     1      39.079   6.267  50.485  1.00  0.00    -0.295 N 
HETATM   13  N2  UNL     1      38.325   6.910  49.663  1.00  0.00    -0.252 N 
ATOM     14  H1  UNL     1      39.008   6.321  51.501  1.00  0.00     0.187 HD
HETATM   15  C6  UNL     1      38.706   6.594  48.419  1.00  0.00     0.275 A 
HETATM   16  O1  UNL     1      38.196   7.031  47.334  1.00  0.00    -0.266 OA
BRANCH  13  17
HETATM   17  C3  UNL     1      37.227   7.837  49.968  1.00  0.00     0.103 C 
HETATM   18  C4  UNL     1      35.935   7.033  50.028  1.00  0.00     0.034 C 
HETATM   19  C5  UNL     1      37.489   8.465  51.313  1.00  0.00     0.034 C 
ENDBRANCH  13  17
ENDBRANCH   8   9
ENDBRANCH   1   8
BRANCH   2  20
HETATM   20  N3  UNL     1      41.124   5.533  44.695  1.00  0.00    -0.389 N 
HETATM   21  C11 UNL     1      40.580   6.868  44.501  1.00  0.00     0.149 C 
HETATM   22  C12 UNL     1      42.527   5.302  44.514  1.00  0.00     0.149 C 
ENDBRANCH   2  20
BRANCH   5  23
HETATM   23  O2  UNL     1      37.607   1.498  46.274  1.00  0.00    -0.283 OA
ATOM     24  H2  UNL     1      37.323   1.430  47.178  1.00  0.00     0.245 HD
ENDBRANCH   5  23
TORSDOF 5
ENDMDL
MODEL 4
REMARK VINA RESULT: -6.616685118      1.637      2.985
REMARK  5 active torsions:
REMARK  status: ('A' for Active; 'I' for Inactive)
REMARK    1  A    between atoms: N2_5  and  C3_6 
REMARK    2  A    between atoms: C7_11  and  C8_12 
REMARK    3  A    between atoms: C8_12  and  C9_13 
REMARK    4  A    between atoms: C10_14  and  N3_15 
REMARK    5  A    between atoms: N4_20  and  O2_21 
ROOT
HETATM    1  C9  UNL     1      37.991   6.047  49.905  1.00  0.00     0.016 A 
HETATM    2  C10 UNL     1      39.257   5.765  50.430  1.00  0.00     0.043 A 
HETATM    3  C13 UNL     1      39.626   6.466  51.554  1.00  0.00     0.050 A 
HETATM    4  C14 UNL     1      38.768   7.392  52.114  1.00  0.00     0.125 A 
HETATM    5  N4  UNL     1      37.555   7.639  51.584  1.00  0.00    -0.240 N 
HETATM    6  C15 UNL     1      37.139   6.987  50.486  1.00  0.00     0.048 A 
HETATM    7  C16 UNL     1      35.798   7.267  49.909  1.00  0.00     0.072 C 
ENDROOT
BRANCH   1   8
HETATM    8  C8  UNL     1      37.561   5.386  48.716  1.00  0.00     0.035 C 
BRANCH   8   9
HETATM    9  C7  UNL     1      37.942   5.568  47.473  1.00  0.00     0.062 A 
HETATM   10  C2  UNL     1      38.332   6.665  46.762  1.00  0.00     0.054 A 
HETATM   11  C1  UNL     1      38.436   7.913  47.168  1.00  0.00     0.045 C 
HETATM   12  N1  UNL     1      38.617   6.253  45.488  1.00  0.00    -0.295 N 
HETATM   13  N2  UNL     1      38.431   4.985  45.366  1.00  0.00    -0.252 N 
ATOM     14  H1  UNL     1      38.935   6.868  44.738  1.00  0.00     0.187 HD
HETATM   15  C6  UNL     1      38.017   4.512  46.549  1.00  0.00     0.275 A 
HETATM   16  O1  UNL     1      37.729   3.300  46.823  1.00  0.00    -0.266 OA
BRANCH  13  17
HETATM   17  C3  UNL     1      38.619   4.147  44.174  1.00  0.00     0.103 C 
HETATM   18  C4  UNL     1      38.530   5.046  42.949  1.00  0.00     0.034 C 
HETATM   19  C5  UNL     1      39.989   3.522  44.239  1.00  0.00     0.034 C 
ENDBRANCH  13  17
ENDBRANCH   8   9
ENDBRANCH   1   8
BRANCH   2  20
HETATM   20  N3  UNL     1      40.101   4.799  49.810  1.00  0.00    -0.389 N 
HETATM   21  C11 UNL     1      40.122   3.455  50.366  1.00  0.00     0.149 C 
HETATM   22  C12 UNL     1      40.915   5.112  48.673  1.00  0.00     0.149 C 
ENDBRANCH   2  20
BRANCH   5  23
HETATM   23  O2  UNL     1      36.701   8.561  52.141  1.00  0.00    -0.283 OA
ATOM     24  H2  UNL     1      36.258   9.213  51.611  1.00  0.00     0.245 HD
ENDBRANCH   5  23
TORSDOF 5
ENDMDL
MODEL 5
REMARK VINA RESULT: -6.557606926      1.506      2.047
REMARK  5 active torsions:
REMARK  status: ('A' for Active; 'I' for Inactive)
REMARK    1  A    between atoms: N2_5  and  C3_6 
REMARK    2  A    between atoms: C7_11  and  C8_12 
REMARK    3  A    between atoms: C8_12  and  C9_13 
REMARK    4  A    between atoms: C10_14  and  N3_15 
REMARK    5  A    between atoms: N4_20  and  O2_21 
ROOT
HETATM    1  C9  UNL     1      38.588   5.587  49.531  1.00  0.00     0.016 A 
HETATM    2  C10 UNL     1      37.888   6.797  49.604  1.00  0.00     0.043 A 
HETATM    3  C13 UNL     1      38.214   7.633  50.647  1.00  0.00     0.050 A 
HETATM    4  C14 UNL     1      39.186   7.269  51.558  1.00  0.00     0.125 A 
HETATM    5  N4  UNL     1      39.840   6.097  51.459  1.00  0.00    -0.240 N 
HETATM    6  C15 UNL     1      39.567   5.239  50.462  1.00  0.00     0.048 A 
HETATM    7  C16 UNL     1      40.296   3.947  50.362  1.00  0.00     0.072 C 
ENDROOT
BRANCH   1   8
HETATM    8  C8  UNL     1      38.272   4.656  48.498  1.00  0.00     0.035 C 
BRANCH   8   9
HETATM    9  C7  UNL     1      38.910   4.399  47.380  1.00  0.00     0.062 A 
HETATM   10  C2  UNL     1      38.895   3.348  46.512  1.00  0.00     0.054 A 
HETATM   11  C1  UNL     1      38.187   2.240  46.576  1.00  0.00     0.045 C 
HETATM   12  N1  UNL     1      39.778   3.629  45.504  1.00  0.00    -0.295 N 
HETATM   13  N2  UNL     1      40.332   4.776  45.691  1.00  0.00    -0.252 N 
ATOM     14  H1  UNL     1      39.969   3.013  44.714  1.00  0.00     0.187 HD
HETATM   15  C6  UNL     1      39.840   5.294  46.823  1.00  0.00     0.275 A 
HETATM   16  O1  UNL     1      40.147   6.419  47.340  1.00  0.00    -0.266 OA
BRANCH  13  17
HETATM   17  C3  UNL     1      41.331   5.452  44.852  1.00  0.00     0.103 C 
HETATM   18  C4  UNL     1      42.697   4.868  45.185  1.00  0.00     0.034 C 
HETATM   19  C5  UNL     1      41.008   5.178  43.406  1.00  0.00     0.034 C 
ENDBRANCH  13  17
ENDBRANCH   8   9
ENDBRANCH   1   8
BRANCH   2  20
HETATM   20  N3  UNL     1      36.895   7.121  48.636  1.00  0.00    -0.389 N 
HETATM   21  C11 UNL     1      37.251   8.055  47.579  1.00  0.00     0.149 C 
HETATM   22  C12 UNL     1      35.577   6.559  48.676  1.00  0.00     0.149 C 
ENDBRANCH   2  20
BRANCH   5  23
HETATM   23  O2  UNL     1      40.809   5.734  52.365  1.00  0.00    -0.283 OA
ATOM     24  H2  UNL     1      40.654   5.775  53.302  1.00  0.00     0.245 HD
ENDBRANCH   5  23
TORSDOF 5
ENDMDL
