MODEL 1
REMARK VINA RESULT: -7.062131250      0.000      0.000
REMARK  3 active torsions:
REMARK  status: ('A' for Active; 'I' for Inactive)
REMARK    1  A    between atoms: C1_2  and  C2_3 
REMARK       I    between atoms: C1_2  and  N3_14 
REMARK    2  A    between atoms: C2_3  and  N1_4 
REMARK    3  A    between atoms: N3_14  and  C7_16 
ROOT
HETATM    1  O1  UNL     1      -2.774   4.125  12.402  1.00  0.00    -0.272 OA
HETATM    2  C1  UNL     1      -3.951   3.867  12.106  1.00  0.00     0.235 C 
HETATM    3  N3  UNL     1      -4.969   4.713  12.563  1.00  0.00    -0.354 N 
ATOM      4  H3  UNL     1      -5.927   4.475  12.303  1.00  0.00     0.162 HD
ENDROOT
BRANCH   2   5
HETATM    5  C2  UNL     1      -4.238   2.686  11.287  1.00  0.00     0.220 C 
BRANCH   5   6
HETATM    6  N1  UNL     1      -5.037   1.712  11.966  1.00  0.00    -0.396 N 
HETATM    7  C3  UNL     1      -4.789   1.622  13.361  1.00  0.00     0.145 C 
HETATM    8  C4  UNL     1      -4.394   0.239  13.752  1.00  0.00     0.257 C 
HETATM    9  N2  UNL     1      -3.642  -0.480  12.769  1.00  0.00    -0.021 N 
HETATM   10  C5  UNL     1      -4.305  -0.594  11.501  1.00  0.00     0.356 C 
ATOM     11  H22 UNL     1      -2.715  -0.071  12.654  1.00  0.00     0.282 HD
ATOM     12  H21 UNL     1      -3.380  -1.401  13.120  1.00  0.00     0.282 HD
HETATM   13  F1  UNL     1      -4.990  -1.797  11.486  1.00  0.00    -0.191 F 
HETATM   14 CL1  UNL     1      -3.145  -0.670  10.150  1.00  0.00    -0.051 Cl
HETATM   15  C6  UNL     1      -5.312   0.508  11.274  1.00  0.00     0.209 C 
ENDBRANCH   5   6
ENDBRANCH   2   5
BRANCH   3  16
HETATM   16  C7  UNL     1      -4.777   5.892  13.370  1.00  0.00     0.092 C 
HETATM   17  C8  UNL     1      -5.680   7.039  13.036  1.00  0.00     0.009 C 
HETATM   18  C9  UNL     1      -4.958   8.294  13.558  1.00  0.00     0.011 C 
HETATM   19  C13 UNL     1      -6.999   7.015  13.747  1.00  0.00     0.011 C 
HETATM   20  C10 UNL     1      -4.770   8.152  15.045  1.00  0.00    -0.013 C 
HETATM   21  C11 UNL     1      -6.122   8.101  15.736  1.00  0.00     0.009 C 
HETATM   22  C16 UNL     1      -4.039   6.887  15.441  1.00  0.00     0.011 C 
HETATM   23  C12 UNL     1      -6.835   6.872  15.258  1.00  0.00    -0.013 C 
HETATM   24  C14 UNL     1      -6.094   5.596  15.496  1.00  0.00     0.011 C 
HETATM   25  C15 UNL     1      -4.743   5.658  14.843  1.00  0.00     0.009 C 
ENDBRANCH   3  16
TORSDOF 3
ENDMDL
MODEL 2
REMARK VINA RESULT: -7.053115158      2.105      2.940
REMARK  3 active torsions:
REMARK  status: ('A' for Active; 'I' for Inactive)
REMARK    1  A    between atoms: C1_2  and  C2_3 
REMARK       I    between atoms: C1_2  and  N3_14 
REMARK    2  A    between atoms: C2_3  and  N1_4 
REMARK    3  A    between atoms: N3_14  and  C7_16 
ROOT
HETATM    1  O1  UNL     1      -6.618   2.735  14.489  1.00  0.00    -0.272 OA
HETATM    2  C1  UNL     1      -5.379   2.685  14.480  1.00  0.00     0.235 C 
HETATM    3  N3  UNL     1      -4.649   3.871  14.628  1.00  0.00    -0.354 N 
ATOM      4  H3  UNL     1      -3.631   3.798  14.617  1.00  0.00     0.162 HD
ENDROOT
BRANCH   2   5
HETATM    5  C2  UNL     1      -4.718   1.387  14.316  1.00  0.00     0.220 C 
BRANCH   5   6
HETATM    6  N1  UNL     1      -4.668   0.949  12.955  1.00  0.00    -0.396 N 
HETATM    7  C3  UNL     1      -4.266  -0.402  12.790  1.00  0.00     0.145 C 
HETATM    8  C4  UNL     1      -3.064  -0.505  11.914  1.00  0.00     0.257 C 
HETATM    9  N2  UNL     1      -2.143   0.587  12.013  1.00  0.00    -0.021 N 
HETATM   10  C5  UNL     1      -2.732   1.868  11.742  1.00  0.00     0.356 C 
ATOM     11  H22 UNL     1      -1.684   0.588  12.924  1.00  0.00     0.282 HD
ATOM     12  H21 UNL     1      -1.333   0.430  11.413  1.00  0.00     0.282 HD
HETATM   13  F1  UNL     1      -2.528   2.153  10.403  1.00  0.00    -0.191 F 
HETATM   14 CL1  UNL     1      -1.928   3.173  12.652  1.00  0.00    -0.051 Cl
HETATM   15  C6  UNL     1      -4.220   1.886  11.993  1.00  0.00     0.209 C 
ENDBRANCH   5   6
ENDBRANCH   2   5
BRANCH   3  16
HETATM   16  C7  UNL     1      -5.215   5.186  14.794  1.00  0.00     0.092 C 
HETATM   17  C8  UNL     1      -4.265   6.222  15.310  1.00  0.00     0.009 C 
HETATM   18  C9  UNL     1      -5.150   7.312  15.941  1.00  0.00     0.011 C 
HETATM   19  C13 UNL     1      -3.473   6.920  14.246  1.00  0.00     0.011 C 
HETATM   20  C10 UNL     1      -6.052   7.870  14.873  1.00  0.00    -0.013 C 
HETATM   21  C11 UNL     1      -5.222   8.546  13.794  1.00  0.00     0.009 C 
HETATM   22  C16 UNL     1      -6.884   6.816  14.175  1.00  0.00     0.011 C 
HETATM   23  C12 UNL     1      -4.367   7.496  13.150  1.00  0.00    -0.013 C 
HETATM   24  C14 UNL     1      -5.129   6.352  12.564  1.00  0.00     0.011 C 
HETATM   25  C15 UNL     1      -5.977   5.705  13.622  1.00  0.00     0.009 C 
ENDBRANCH   3  16
TORSDOF 3
ENDMDL
MODEL 3
REMARK VINA RESULT: -7.033456392      1.264      1.736
REMARK  3 active torsions:
REMARK  status: ('A' for Active; 'I' for Inactive)
REMARK    1  A    between atoms: C1_2  and  C2_3 
REMARK       I    between atoms: C1_2  and  N3_14 
REMARK    2  A    between atoms: C2_3  and  N1_4 
REMARK    3  A    between atoms: N3_14  and  C7_16 
ROOT
HETATM    1  O1  UNL     1      -5.672   4.637  10.458  1.00  0.00    -0.272 OA
HETATM    2  C1  UNL     1      -4.812   4.159  11.213  1.00  0.00     0.235 C 
HETATM    3  N3  UNL     1      -4.582   4.766  12.454  1.00  0.00    -0.354 N 
ATOM      4  H3  UNL     1      -3.868   4.350  13.053  1.00  0.00     0.162 HD
ENDROOT
BRANCH   2   5
HETATM    5  C2  UNL     1      -4.064   2.974  10.782  1.00  0.00     0.220 C 
BRANCH   5   6
HETATM    6  N1  UNL     1      -4.726   1.746  11.099  1.00  0.00    -0.396 N 
HETATM    7  C3  UNL     1      -5.127   1.631  12.456  1.00  0.00     0.145 C 
HETATM    8  C4  UNL     1      -4.535   0.420  13.093  1.00  0.00     0.257 C 
HETATM    9  N2  UNL     1      -3.234   0.057  12.620  1.00  0.00    -0.021 N 
HETATM   10  C5  UNL     1      -3.172  -0.162  11.202  1.00  0.00     0.356 C 
ATOM     11  H22 UNL     1      -2.541   0.749  12.907  1.00  0.00     0.282 HD
ATOM     12  H21 UNL     1      -2.881  -0.756  13.124  1.00  0.00     0.282 HD
HETATM   13  F1  UNL     1      -3.351  -1.515  10.974  1.00  0.00    -0.191 F 
HETATM   14 CL1  UNL     1      -1.568   0.243  10.538  1.00  0.00    -0.051 Cl
HETATM   15  C6  UNL     1      -4.257   0.576  10.455  1.00  0.00     0.209 C 
ENDBRANCH   5   6
ENDBRANCH   2   5
BRANCH   3  16
HETATM   16  C7  UNL     1      -5.269   5.929  12.955  1.00  0.00     0.092 C 
HETATM   17  C8  UNL     1      -6.451   5.637  13.827  1.00  0.00     0.009 C 
HETATM   18  C9  UNL     1      -7.330   6.900  13.761  1.00  0.00     0.011 C 
HETATM   19  C13 UNL     1      -6.121   5.458  15.278  1.00  0.00     0.011 C 
HETATM   20  C10 UNL     1      -6.531   8.064  14.283  1.00  0.00    -0.013 C 
HETATM   21  C11 UNL     1      -6.186   7.842  15.746  1.00  0.00     0.009 C 
HETATM   22  C16 UNL     1      -5.217   8.265  13.560  1.00  0.00     0.011 C 
HETATM   23  C12 UNL     1      -5.311   6.628  15.832  1.00  0.00    -0.013 C 
HETATM   24  C14 UNL     1      -4.058   6.712  15.021  1.00  0.00     0.011 C 
HETATM   25  C15 UNL     1      -4.396   6.966  13.579  1.00  0.00     0.009 C 
ENDBRANCH   3  16
TORSDOF 3
ENDMDL
MODEL 4
REMARK VINA RESULT: -7.016135203      1.592      2.476
REMARK  3 active torsions:
REMARK  status: ('A' for Active; 'I' for Inactive)
REMARK    1  A    between atoms: C1_2  and  C2_3 
REMARK       I    between atoms: C1_2  and  N3_14 
REMARK    2  A    between atoms: C2_3  and  N1_4 
REMARK    3  A    between atoms: N3_14  and  C7_16 
ROOT
HETATM    1  O1  UNL     1      -6.014   2.390  13.789  1.00  0.00    -0.272 OA
HETATM    2  C1  UNL     1      -4.824   2.654  13.561  1.00  0.00     0.235 C 
HETATM    3  N3  UNL     1      -4.401   3.988  13.611  1.00  0.00    -0.354 N 
ATOM      4  H3  UNL     1      -3.417   4.175  13.419  1.00  0.00     0.162 HD
ENDROOT
BRANCH   2   5
HETATM    5  C2  UNL     1      -3.898   1.562  13.247  1.00  0.00     0.220 C 
BRANCH   5   6
HETATM    6  N1  UNL     1      -4.500   0.519  12.475  1.00  0.00    -0.396 N 
HETATM    7  C3  UNL     1      -4.539  -0.742  13.125  1.00  0.00     0.145 C 
HETATM    8  C4  UNL     1      -3.847  -1.788  12.319  1.00  0.00     0.257 C 
HETATM    9  N2  UNL     1      -2.726  -1.327  11.558  1.00  0.00    -0.021 N 
HETATM   10  C5  UNL     1      -3.041  -0.261  10.649  1.00  0.00     0.356 C 
ATOM     11  H22 UNL     1      -1.958  -1.058  12.173  1.00  0.00     0.282 HD
ATOM     12  H21 UNL     1      -2.285  -2.102  11.062  1.00  0.00     0.282 HD
HETATM   13  F1  UNL     1      -3.322  -0.823   9.416  1.00  0.00    -0.191 F 
HETATM   14 CL1  UNL     1      -1.650   0.824  10.392  1.00  0.00    -0.051 Cl
HETATM   15  C6  UNL     1      -4.255   0.527  11.080  1.00  0.00     0.209 C 
ENDBRANCH   5   6
ENDBRANCH   2   5
BRANCH   3  16
HETATM   16  C7  UNL     1      -5.241   5.120  13.910  1.00  0.00     0.092 C 
HETATM   17  C8  UNL     1      -4.918   5.824  15.192  1.00  0.00     0.009 C 
HETATM   18  C9  UNL     1      -6.209   6.563  15.590  1.00  0.00     0.011 C 
HETATM   19  C13 UNL     1      -3.873   6.891  15.066  1.00  0.00     0.011 C 
HETATM   20  C10 UNL     1      -6.558   7.537  14.496  1.00  0.00    -0.013 C 
HETATM   21  C11 UNL     1      -5.469   8.588  14.371  1.00  0.00     0.009 C 
HETATM   22  C16 UNL     1      -6.687   6.890  13.134  1.00  0.00     0.011 C 
HETATM   23  C12 UNL     1      -4.205   7.893  13.962  1.00  0.00    -0.013 C 
HETATM   24  C14 UNL     1      -4.312   7.118  12.689  1.00  0.00     0.011 C 
HETATM   25  C15 UNL     1      -5.412   6.100  12.798  1.00  0.00     0.009 C 
ENDBRANCH   3  16
TORSDOF 3
ENDMDL
MODEL 5
REMARK VINA RESULT: -6.871671395      1.729      2.367
REMARK  3 active torsions:
REMARK  status: ('A' for Active; 'I' for Inactive)
REMARK    1  A    between atoms: C1_2  and  C2_3 
REMARK       I    between atoms: C1_2  and  N3_14 
REMARK    2  A    between atoms: C2_3  and  N1_4 
REMARK    3  A    between atoms: N3_14  and  C7_16 
ROOT
HETATM    1  O1  UNL     1      -5.280   4.147  10.685  1.00  0.00    -0.272 OA
HETATM    2  C1  UNL     1      -4.182   4.257  11.251  1.00  0.00     0.235 C 
HETATM    3  N3  UNL     1      -4.046   5.170  12.304  1.00  0.00    -0.354 N 
ATOM      4  H3  UNL     1      -3.132   5.237  12.750  1.00  0.00     0.162 HD
ENDROOT
BRANCH   2   5
HETATM    5  C2  UNL     1      -3.061   3.425  10.801  1.00  0.00     0.220 C 
BRANCH   5   6
HETATM    6  N1  UNL     1      -2.610   2.504  11.798  1.00  0.00    -0.396 N 
HETATM    7  C3  UNL     1      -1.484   1.730  11.411  1.00  0.00     0.145 C 
HETATM    8  C4  UNL     1      -1.777   0.271  11.496  1.00  0.00     0.257 C 
HETATM    9  N2  UNL     1      -3.128  -0.098  11.199  1.00  0.00    -0.021 N 
HETATM   10  C5  UNL     1      -4.103   0.557  12.025  1.00  0.00     0.356 C 
ATOM     11  H22 UNL     1      -3.334   0.055  10.211  1.00  0.00     0.282 HD
ATOM     12  H21 UNL     1      -3.243  -1.110  11.242  1.00  0.00     0.282 HD
HETATM   13  F1  UNL     1      -4.381  -0.276  13.094  1.00  0.00    -0.191 F 
HETATM   14 CL1  UNL     1      -5.647   0.794  11.167  1.00  0.00    -0.051 Cl
HETATM   15  C6  UNL     1      -3.601   1.867  12.584  1.00  0.00     0.209 C 
ENDBRANCH   5   6
ENDBRANCH   2   5
BRANCH   3  16
HETATM   16  C7  UNL     1      -5.092   6.024  12.809  1.00  0.00     0.092 C 
HETATM   17  C8  UNL     1      -6.067   5.352  13.727  1.00  0.00     0.009 C 
HETATM   18  C9  UNL     1      -7.342   6.213  13.670  1.00  0.00     0.011 C 
HETATM   19  C13 UNL     1      -5.656   5.345  15.168  1.00  0.00     0.011 C 
HETATM   20  C10 UNL     1      -7.001   7.601  14.144  1.00  0.00    -0.013 C 
HETATM   21  C11 UNL     1      -6.561   7.559  15.598  1.00  0.00     0.009 C 
HETATM   22  C16 UNL     1      -5.867   8.239  13.372  1.00  0.00     0.011 C 
HETATM   23  C12 UNL     1      -5.306   6.742  15.673  1.00  0.00    -0.013 C 
HETATM   24  C14 UNL     1      -4.189   7.247  14.817  1.00  0.00     0.011 C 
HETATM   25  C15 UNL     1      -4.634   7.322  13.384  1.00  0.00     0.009 C 
ENDBRANCH   3  16
TORSDOF 3
ENDMDL
