MODEL 1
REMARK VINA RESULT: -6.471831467      0.000      0.000
REMARK  4 active torsions:
REMARK  status: ('A' for Active; 'I' for Inactive)
REMARK    1  A    between atoms: C2_2  and  C3_3 
REMARK    2  A    between atoms: C2_2  and  N2_12 
REMARK       I    between atoms: C3_3  and  N1_5 
REMARK    3  A    between atoms: N1_5  and  C4_7 
REMARK    4  A    between atoms: C9_16  and  C10_17 
ROOT
HETATM    1  N2  UNL     1      -5.250   2.419  14.944  1.00  0.00     0.104 N 
HETATM    2  C7  UNL     1      -6.342   3.253  15.348  1.00  0.00     0.293 C 
HETATM    3  C8  UNL     1      -6.562   4.255  14.200  1.00  0.00     0.152 C 
HETATM    4  N3  UNL     1      -5.556   5.184  14.251  1.00  0.00    -0.389 N 
HETATM    5  C9  UNL     1      -5.686   6.531  14.409  1.00  0.00     0.066 C 
HETATM    6  C14 UNL     1      -4.313   4.705  14.830  1.00  0.00     0.152 C 
HETATM    7  C15 UNL     1      -4.108   3.230  14.600  1.00  0.00     0.293 C 
ENDROOT
BRANCH   1   8
HETATM    8  C2  UNL     1      -4.933   1.399  15.921  1.00  0.00     0.310 C 
HETATM    9  C1  UNL     1      -6.201   1.166  16.740  1.00  0.00     0.053 C 
BRANCH   8  10
HETATM   10  C3  UNL     1      -4.671   0.103  15.210  1.00  0.00     0.251 C 
HETATM   11  O1  UNL     1      -4.893  -1.010  15.743  1.00  0.00    -0.271 OA
HETATM   12  N1  UNL     1      -4.155   0.121  13.889  1.00  0.00    -0.351 N 
ATOM     13  H1  UNL     1      -3.964   1.011  13.428  1.00  0.00     0.163 HD
BRANCH  12  14
HETATM   14  C4  UNL     1      -3.902  -1.115  13.199  1.00  0.00     0.126 A 
HETATM   15  C5  UNL     1      -2.998  -1.063  11.997  1.00  0.00     0.072 A 
HETATM   16  C6  UNL     1      -4.484  -1.189  11.818  1.00  0.00     0.135 A 
HETATM   17 CL1  UNL     1      -5.383   0.227  11.199  1.00  0.00    -0.099 Cl
HETATM   18 CL2  UNL     1      -5.142  -2.770  11.362  1.00  0.00    -0.099 Cl
ENDBRANCH  12  14
ENDBRANCH   8  10
ENDBRANCH   1   8
BRANCH   5  19
HETATM   19  C10 UNL     1      -6.288   7.388  13.344  1.00  0.00    -0.019 C 
HETATM   20  C11 UNL     1      -7.713   7.776  13.571  1.00  0.00     0.020 C 
HETATM   21  C12 UNL     1      -5.987   6.913  11.950  1.00  0.00     0.020 C 
HETATM   22  C13 UNL     1      -5.529   8.731  13.472  1.00  0.00     0.020 C 
ENDBRANCH   5  19
TORSDOF 4
ENDMDL
MODEL 2
REMARK VINA RESULT: -6.411843070      2.794      3.683
REMARK  4 active torsions:
REMARK  status: ('A' for Active; 'I' for Inactive)
REMARK    1  A    between atoms: C2_2  and  C3_3 
REMARK    2  A    between atoms: C2_2  and  N2_12 
REMARK       I    between atoms: C3_3  and  N1_5 
REMARK    3  A    between atoms: N1_5  and  C4_7 
REMARK    4  A    between atoms: C9_16  and  C10_17 
ROOT
HETATM    1  N2  UNL     1      -3.172   3.461  11.716  1.00  0.00     0.104 N 
HETATM    2  C7  UNL     1      -3.056   3.655  13.130  1.00  0.00     0.293 C 
HETATM    3  C8  UNL     1      -4.431   4.153  13.608  1.00  0.00     0.152 C 
HETATM    4  N3  UNL     1      -4.565   5.461  13.225  1.00  0.00    -0.389 N 
HETATM    5  C9  UNL     1      -4.764   6.541  14.033  1.00  0.00     0.066 C 
HETATM    6  C14 UNL     1      -3.815   5.828  12.035  1.00  0.00     0.152 C 
HETATM    7  C15 UNL     1      -3.648   4.668  11.088  1.00  0.00     0.293 C 
ENDROOT
BRANCH   1   8
HETATM    8  C2  UNL     1      -1.951   2.967  11.115  1.00  0.00     0.310 C 
HETATM    9  C1  UNL     1      -0.903   2.922  12.226  1.00  0.00     0.053 C 
BRANCH   8  10
HETATM   10  C3  UNL     1      -2.153   1.540  10.696  1.00  0.00     0.251 C 
HETATM   11  O1  UNL     1      -1.338   0.937   9.957  1.00  0.00    -0.271 OA
HETATM   12  N1  UNL     1      -3.299   0.834  11.142  1.00  0.00    -0.351 N 
ATOM     13  H1  UNL     1      -3.981   1.297  11.744  1.00  0.00     0.163 HD
BRANCH  12  14
HETATM   14  C4  UNL     1      -3.500  -0.533  10.747  1.00  0.00     0.126 A 
HETATM   15  C5  UNL     1      -4.914  -1.049  10.735  1.00  0.00     0.072 A 
HETATM   16  C6  UNL     1      -3.980  -1.436  11.844  1.00  0.00     0.135 A 
HETATM   17 CL1  UNL     1      -4.254  -0.730  13.465  1.00  0.00    -0.099 Cl
HETATM   18 CL2  UNL     1      -3.293  -3.070  11.831  1.00  0.00    -0.099 Cl
ENDBRANCH  12  14
ENDBRANCH   8  10
ENDBRANCH   1   8
BRANCH   5  19
HETATM   19  C10 UNL     1      -6.043   6.732  14.779  1.00  0.00    -0.019 C 
HETATM   20  C11 UNL     1      -6.390   5.640  15.736  1.00  0.00     0.020 C 
HETATM   21  C12 UNL     1      -7.184   7.182  13.908  1.00  0.00     0.020 C 
HETATM   22  C13 UNL     1      -5.759   7.940  15.704  1.00  0.00     0.020 C 
ENDBRANCH   5  19
TORSDOF 4
ENDMDL
MODEL 3
REMARK VINA RESULT: -6.334606009      2.968      3.694
REMARK  4 active torsions:
REMARK  status: ('A' for Active; 'I' for Inactive)
REMARK    1  A    between atoms: C2_2  and  C3_3 
REMARK    2  A    between atoms: C2_2  and  N2_12 
REMARK       I    between atoms: C3_3  and  N1_5 
REMARK    3  A    between atoms: N1_5  and  C4_7 
REMARK    4  A    between atoms: C9_16  and  C10_17 
ROOT
HETATM    1  N2  UNL     1      -3.217   3.536  11.618  1.00  0.00     0.104 N 
HETATM    2  C7  UNL     1      -3.033   4.326  12.799  1.00  0.00     0.293 C 
HETATM    3  C8  UNL     1      -4.438   4.786  13.229  1.00  0.00     0.152 C 
HETATM    4  N3  UNL     1      -4.840   5.776  12.372  1.00  0.00    -0.389 N 
HETATM    5  C9  UNL     1      -5.175   7.058  12.692  1.00  0.00     0.066 C 
HETATM    6  C14 UNL     1      -4.262   5.702  11.041  1.00  0.00     0.152 C 
HETATM    7  C15 UNL     1      -3.954   4.285  10.631  1.00  0.00     0.293 C 
ENDROOT
BRANCH   1   8
HETATM    8  C2  UNL     1      -1.974   3.007  11.099  1.00  0.00     0.310 C 
HETATM    9  C1  UNL     1      -0.993   2.961  12.270  1.00  0.00     0.053 C 
BRANCH   8  10
HETATM   10  C3  UNL     1      -2.181   1.576  10.694  1.00  0.00     0.251 C 
HETATM   11  O1  UNL     1      -1.359   0.957   9.977  1.00  0.00    -0.271 OA
HETATM   12  N1  UNL     1      -3.340   0.886  11.130  1.00  0.00    -0.351 N 
ATOM     13  H1  UNL     1      -4.028   1.362  11.714  1.00  0.00     0.163 HD
BRANCH  12  14
HETATM   14  C4  UNL     1      -3.547  -0.485  10.748  1.00  0.00     0.126 A 
HETATM   15  C5  UNL     1      -4.959  -1.005  10.774  1.00  0.00     0.072 A 
HETATM   16  C6  UNL     1      -3.997  -1.382  11.863  1.00  0.00     0.135 A 
HETATM   17 CL1  UNL     1      -4.234  -0.667  13.485  1.00  0.00    -0.099 Cl
HETATM   18 CL2  UNL     1      -3.306  -3.014  11.843  1.00  0.00    -0.099 Cl
ENDBRANCH  12  14
ENDBRANCH   8  10
ENDBRANCH   1   8
BRANCH   5  19
HETATM   19  C10 UNL     1      -6.408   7.370  13.474  1.00  0.00    -0.019 C 
HETATM   20  C11 UNL     1      -6.192   7.615  14.931  1.00  0.00     0.020 C 
HETATM   21  C12 UNL     1      -7.563   6.460  13.160  1.00  0.00     0.020 C 
HETATM   22  C13 UNL     1      -6.847   8.756  12.941  1.00  0.00     0.020 C 
ENDBRANCH   5  19
TORSDOF 4
ENDMDL
MODEL 4
REMARK VINA RESULT: -6.305939421      3.108      4.725
REMARK  4 active torsions:
REMARK  status: ('A' for Active; 'I' for Inactive)
REMARK    1  A    between atoms: C2_2  and  C3_3 
REMARK    2  A    between atoms: C2_2  and  N2_12 
REMARK       I    between atoms: C3_3  and  N1_5 
REMARK    3  A    between atoms: N1_5  and  C4_7 
REMARK    4  A    between atoms: C9_16  and  C10_17 
ROOT
HETATM    1  N2  UNL     1      -3.938   3.571  13.314  1.00  0.00     0.104 N 
HETATM    2  C7  UNL     1      -4.986   2.601  13.208  1.00  0.00     0.293 C 
HETATM    3  C8  UNL     1      -5.878   2.796  14.446  1.00  0.00     0.152 C 
HETATM    4  N3  UNL     1      -5.218   2.278  15.529  1.00  0.00    -0.389 N 
HETATM    5  C9  UNL     1      -5.641   1.275  16.350  1.00  0.00     0.066 C 
HETATM    6  C14 UNL     1      -3.769   2.296  15.426  1.00  0.00     0.152 C 
HETATM    7  C15 UNL     1      -3.272   3.444  14.586  1.00  0.00     0.293 C 
ENDROOT
BRANCH   1   8
HETATM    8  C2  UNL     1      -3.018   3.528  12.198  1.00  0.00     0.310 C 
HETATM    9  C1  UNL     1      -1.614   3.414  12.790  1.00  0.00     0.053 C 
BRANCH   8  10
HETATM   10  C3  UNL     1      -3.233   2.254  11.434  1.00  0.00     0.251 C 
HETATM   11  O1  UNL     1      -3.592   2.246  10.232  1.00  0.00    -0.271 OA
HETATM   12  N1  UNL     1      -3.029   1.007  12.077  1.00  0.00    -0.351 N 
ATOM     13  H1  UNL     1      -2.737   0.980  13.055  1.00  0.00     0.163 HD
BRANCH  12  14
HETATM   14  C4  UNL     1      -3.232  -0.218  11.354  1.00  0.00     0.126 A 
HETATM   15  C5  UNL     1      -4.652  -0.633  11.080  1.00  0.00     0.072 A 
HETATM   16  C6  UNL     1      -3.860  -1.320  12.155  1.00  0.00     0.135 A 
HETATM   17 CL1  UNL     1      -4.287  -0.991  13.860  1.00  0.00    -0.099 Cl
HETATM   18 CL2  UNL     1      -3.232  -2.944  11.825  1.00  0.00    -0.099 Cl
ENDBRANCH  12  14
ENDBRANCH   8  10
ENDBRANCH   1   8
BRANCH   5  19
HETATM   19  C10 UNL     1      -6.803   1.457  17.270  1.00  0.00    -0.019 C 
HETATM   20  C11 UNL     1      -7.904   0.461  17.108  1.00  0.00     0.020 C 
HETATM   21  C12 UNL     1      -7.266   2.884  17.377  1.00  0.00     0.020 C 
HETATM   22  C13 UNL     1      -6.227   1.127  18.668  1.00  0.00     0.020 C 
ENDBRANCH   5  19
TORSDOF 4
ENDMDL
MODEL 5
REMARK VINA RESULT: -6.301486187      2.759      3.282
REMARK  4 active torsions:
REMARK  status: ('A' for Active; 'I' for Inactive)
REMARK    1  A    between atoms: C2_2  and  C3_3 
REMARK    2  A    between atoms: C2_2  and  N2_12 
REMARK       I    between atoms: C3_3  and  N1_5 
REMARK    3  A    between atoms: N1_5  and  C4_7 
REMARK    4  A    between atoms: C9_16  and  C10_17 
ROOT
HETATM    1  N2  UNL     1      -4.098   3.816  14.004  1.00  0.00     0.104 N 
HETATM    2  C7  UNL     1      -4.386   4.907  14.887  1.00  0.00     0.293 C 
HETATM    3  C8  UNL     1      -3.873   6.175  14.181  1.00  0.00     0.152 C 
HETATM    4  N3  UNL     1      -2.507   6.186  14.270  1.00  0.00    -0.389 N 
HETATM    5  C9  UNL     1      -1.726   7.139  14.853  1.00  0.00     0.066 C 
HETATM    6  C14 UNL     1      -1.891   4.873  14.366  1.00  0.00     0.152 C 
HETATM    7  C15 UNL     1      -2.697   3.813  13.661  1.00  0.00     0.293 C 
ENDROOT
BRANCH   1   8
HETATM    8  C2  UNL     1      -4.544   2.541  14.524  1.00  0.00     0.310 C 
HETATM    9  C1  UNL     1      -5.917   2.779  15.152  1.00  0.00     0.053 C 
BRANCH   8  10
HETATM   10  C3  UNL     1      -4.786   1.602  13.378  1.00  0.00     0.251 C 
HETATM   11  O1  UNL     1      -5.504   1.912  12.397  1.00  0.00    -0.271 OA
HETATM   12  N1  UNL     1      -4.190   0.316  13.389  1.00  0.00    -0.351 N 
ATOM     13  H1  UNL     1      -3.601   0.033  14.173  1.00  0.00     0.163 HD
BRANCH  12  14
HETATM   14  C4  UNL     1      -4.414  -0.591  12.296  1.00  0.00     0.126 A 
HETATM   15  C5  UNL     1      -3.500  -1.781  12.186  1.00  0.00     0.072 A 
HETATM   16  C6  UNL     1      -3.324  -0.608  11.265  1.00  0.00     0.135 A 
HETATM   17 CL1  UNL     1      -1.906   0.453  11.512  1.00  0.00    -0.099 Cl
HETATM   18 CL2  UNL     1      -3.874  -0.768   9.588  1.00  0.00    -0.099 Cl
ENDBRANCH  12  14
ENDBRANCH   8  10
ENDBRANCH   1   8
BRANCH   5  19
HETATM   19  C10 UNL     1      -1.600   8.508  14.270  1.00  0.00    -0.019 C 
HETATM   20  C11 UNL     1      -2.576   9.512  14.790  1.00  0.00     0.020 C 
HETATM   21  C12 UNL     1      -1.441   8.512  12.775  1.00  0.00     0.020 C 
HETATM   22  C13 UNL     1      -0.242   9.020  14.809  1.00  0.00     0.020 C 
ENDBRANCH   5  19
TORSDOF 4
ENDMDL
