MODEL 1
REMARK VINA RESULT: -8.011569414      0.000      0.000
REMARK  6 active torsions:
REMARK  status: ('A' for Active; 'I' for Inactive)
REMARK    1  A    between atoms: N1_2  and  C3_4 
REMARK    2  A    between atoms: C3_4  and  C4_5 
REMARK    3  A    between atoms: C7_8  and  C8_9 
REMARK       I    between atoms: C8_9  and  N2_11 
REMARK    4  A    between atoms: N2_11  and  C9_13 
REMARK    5  A    between atoms: C12_16  and  O2_17 
REMARK    6  A    between atoms: C13_19  and  C14_20 
ROOT
HETATM    1  C8  UNL     1      -5.605   5.202  13.735  1.00  0.00     0.222 C 
HETATM    2  O1  UNL     1      -5.275   4.597  12.687  1.00  0.00    -0.273 OA
HETATM    3  N2  UNL     1      -5.884   4.430  14.895  1.00  0.00    -0.356 N 
ATOM      4  H2  UNL     1      -6.152   4.920  15.748  1.00  0.00     0.162 HD
ENDROOT
BRANCH   3   5
HETATM    5  C9  UNL     1      -5.807   2.996  14.928  1.00  0.00     0.085 C 
HETATM    6  C10 UNL     1      -4.354   2.513  14.821  1.00  0.00     0.028 C 
HETATM    7  C11 UNL     1      -4.457   1.009  14.586  1.00  0.00     0.034 C 
HETATM    8  C12 UNL     1      -5.002   0.378  15.824  1.00  0.00     0.131 C 
HETATM    9  C13 UNL     1      -5.669   1.309  16.775  1.00  0.00     0.124 C 
HETATM   10  C15 UNL     1      -6.482   2.394  16.122  1.00  0.00     0.041 C 
BRANCH   8  11
HETATM   11  O2  UNL     1      -3.921  -0.240  16.494  1.00  0.00    -0.395 OA
ATOM     12  H2  UNL     1      -4.149  -0.288  17.415  1.00  0.00     0.210 HD
ENDBRANCH   8  11
BRANCH   9  13
HETATM   13  C14 UNL     1      -6.645   0.505  17.645  1.00  0.00     0.393 C 
HETATM   14  F1  UNL     1      -7.869   0.388  17.037  1.00  0.00    -0.171 F 
HETATM   15  F2  UNL     1      -6.844   1.179  18.843  1.00  0.00    -0.171 F 
HETATM   16  F3  UNL     1      -6.167  -0.774  17.871  1.00  0.00    -0.171 F 
ENDBRANCH   9  13
ENDBRANCH   3   5
BRANCH   1  17
HETATM   17  C7  UNL     1      -5.695   6.663  13.741  1.00  0.00     0.078 C 
HETATM   18  C6  UNL     1      -7.069   7.111  14.194  1.00  0.00     0.014 C 
HETATM   19  C5  UNL     1      -7.921   6.915  12.983  1.00  0.00     0.007 C 
HETATM   20  C4  UNL     1      -6.964   6.732  11.787  1.00  0.00     0.015 C 
HETATM   21  C16 UNL     1      -5.677   7.257  12.321  1.00  0.00     0.020 C 
BRANCH  20  22
HETATM   22  C3  UNL     1      -7.568   7.521  10.659  1.00  0.00     0.275 C 
BRANCH  22  23
HETATM   23  N1  UNL     1      -7.663   6.864   9.404  1.00  0.00     0.080 N 
HETATM   24  C1  UNL     1      -8.809   7.451   8.689  1.00  0.00     0.309 C 
HETATM   25  C2  UNL     1      -6.540   7.007   8.526  1.00  0.00     0.309 C 
ENDBRANCH  22  23
ENDBRANCH  20  22
ENDBRANCH   1  17
TORSDOF 6
ENDMDL
MODEL 2
REMARK VINA RESULT: -7.902358825      2.191      3.704
REMARK  6 active torsions:
REMARK  status: ('A' for Active; 'I' for Inactive)
REMARK    1  A    between atoms: N1_2  and  C3_4 
REMARK    2  A    between atoms: C3_4  and  C4_5 
REMARK    3  A    between atoms: C7_8  and  C8_9 
REMARK       I    between atoms: C8_9  and  N2_11 
REMARK    4  A    between atoms: N2_11  and  C9_13 
REMARK    5  A    between atoms: C12_16  and  O2_17 
REMARK    6  A    between atoms: C13_19  and  C14_20 
ROOT
HETATM    1  C8  UNL     1      -6.540   5.609  14.235  1.00  0.00     0.222 C 
HETATM    2  O1  UNL     1      -6.475   5.120  13.081  1.00  0.00    -0.273 OA
HETATM    3  N2  UNL     1      -6.357   4.738  15.343  1.00  0.00    -0.356 N 
ATOM      4  H2  UNL     1      -6.410   5.133  16.281  1.00  0.00     0.162 HD
ENDROOT
BRANCH   3   5
HETATM    5  C9  UNL     1      -6.101   3.332  15.210  1.00  0.00     0.085 C 
HETATM    6  C10 UNL     1      -4.598   3.047  15.080  1.00  0.00     0.028 C 
HETATM    7  C11 UNL     1      -4.510   1.581  14.668  1.00  0.00     0.034 C 
HETATM    8  C12 UNL     1      -4.982   0.745  15.810  1.00  0.00     0.131 C 
HETATM    9  C13 UNL     1      -5.768   1.466  16.848  1.00  0.00     0.124 C 
HETATM   10  C15 UNL     1      -6.705   2.512  16.308  1.00  0.00     0.041 C 
BRANCH   8  11
HETATM   11  O2  UNL     1      -3.838   0.189  16.428  1.00  0.00    -0.395 OA
ATOM     12  H2  UNL     1      -4.055  -0.701  16.678  1.00  0.00     0.210 HD
ENDBRANCH   8  11
BRANCH   9  13
HETATM   13  C14 UNL     1      -6.643   0.449  17.595  1.00  0.00     0.393 C 
HETATM   14  F1  UNL     1      -7.862   0.300  16.982  1.00  0.00    -0.171 F 
HETATM   15  F2  UNL     1      -6.884   0.918  18.880  1.00  0.00    -0.171 F 
HETATM   16  F3  UNL     1      -6.037  -0.795  17.628  1.00  0.00    -0.171 F 
ENDBRANCH   9  13
ENDBRANCH   3   5
BRANCH   1  17
HETATM   17  C7  UNL     1      -6.799   7.039  14.412  1.00  0.00     0.078 C 
HETATM   18  C6  UNL     1      -6.513   7.795  13.132  1.00  0.00     0.014 C 
HETATM   19  C5  UNL     1      -5.025   7.915  13.117  1.00  0.00     0.007 C 
HETATM   20  C4  UNL     1      -4.534   7.575  14.540  1.00  0.00     0.015 C 
HETATM   21  C16 UNL     1      -5.777   7.707  15.349  1.00  0.00     0.020 C 
BRANCH  20  22
HETATM   22  C3  UNL     1      -3.452   8.573  14.845  1.00  0.00     0.275 C 
BRANCH  22  23
HETATM   23  N1  UNL     1      -2.292   8.072  15.493  1.00  0.00     0.080 N 
HETATM   24  C1  UNL     1      -1.670   7.096  14.582  1.00  0.00     0.309 C 
HETATM   25  C2  UNL     1      -1.270   9.029  15.794  1.00  0.00     0.309 C 
ENDBRANCH  22  23
ENDBRANCH  20  22
ENDBRANCH   1  17
TORSDOF 6
ENDMDL
MODEL 3
REMARK VINA RESULT: -7.673265497      2.216      3.367
REMARK  6 active torsions:
REMARK  status: ('A' for Active; 'I' for Inactive)
REMARK    1  A    between atoms: N1_2  and  C3_4 
REMARK    2  A    between atoms: C3_4  and  C4_5 
REMARK    3  A    between atoms: C7_8  and  C8_9 
REMARK       I    between atoms: C8_9  and  N2_11 
REMARK    4  A    between atoms: N2_11  and  C9_13 
REMARK    5  A    between atoms: C12_16  and  O2_17 
REMARK    6  A    between atoms: C13_19  and  C14_20 
ROOT
HETATM    1  C8  UNL     1      -6.768   5.703  14.503  1.00  0.00     0.222 C 
HETATM    2  O1  UNL     1      -7.202   5.192  13.442  1.00  0.00    -0.273 OA
HETATM    3  N2  UNL     1      -6.147   4.847  15.452  1.00  0.00    -0.356 N 
ATOM      4  H2  UNL     1      -5.793   5.259  16.315  1.00  0.00     0.162 HD
ENDROOT
BRANCH   3   5
HETATM    5  C9  UNL     1      -5.990   3.433  15.259  1.00  0.00     0.085 C 
HETATM    6  C10 UNL     1      -4.515   3.056  15.065  1.00  0.00     0.028 C 
HETATM    7  C11 UNL     1      -4.539   1.604  14.597  1.00  0.00     0.034 C 
HETATM    8  C12 UNL     1      -5.026   0.757  15.725  1.00  0.00     0.131 C 
HETATM    9  C13 UNL     1      -5.727   1.488  16.817  1.00  0.00     0.124 C 
HETATM   10  C15 UNL     1      -6.610   2.613  16.350  1.00  0.00     0.041 C 
BRANCH   8  11
HETATM   11  O2  UNL     1      -3.901   0.105  16.281  1.00  0.00    -0.395 OA
ATOM     12  H2  UNL     1      -3.984   0.151  17.226  1.00  0.00     0.210 HD
ENDBRANCH   8  11
BRANCH   9  13
HETATM   13  C14 UNL     1      -6.642   0.503  17.558  1.00  0.00     0.393 C 
HETATM   14  F1  UNL     1      -7.856   0.387  16.931  1.00  0.00    -0.171 F 
HETATM   15  F2  UNL     1      -6.884   0.987  18.838  1.00  0.00    -0.171 F 
HETATM   16  F3  UNL     1      -6.074  -0.759  17.606  1.00  0.00    -0.171 F 
ENDBRANCH   9  13
ENDBRANCH   3   5
BRANCH   1  17
HETATM   17  C7  UNL     1      -6.909   7.140  14.736  1.00  0.00     0.078 C 
HETATM   18  C6  UNL     1      -7.180   7.868  13.436  1.00  0.00     0.014 C 
HETATM   19  C5  UNL     1      -5.836   7.953  12.792  1.00  0.00     0.007 C 
HETATM   20  C4  UNL     1      -4.795   7.627  13.884  1.00  0.00     0.015 C 
HETATM   21  C16 UNL     1      -5.578   7.801  15.138  1.00  0.00     0.020 C 
BRANCH  20  22
HETATM   22  C3  UNL     1      -3.672   8.604  13.679  1.00  0.00     0.275 C 
BRANCH  22  23
HETATM   23  N1  UNL     1      -3.517   9.610  14.670  1.00  0.00     0.080 N 
HETATM   24  C1  UNL     1      -2.096   9.626  15.057  1.00  0.00     0.309 C 
HETATM   25  C2  UNL     1      -3.826  10.949  14.270  1.00  0.00     0.309 C 
ENDBRANCH  22  23
ENDBRANCH  20  22
ENDBRANCH   1  17
TORSDOF 6
ENDMDL
MODEL 4
REMARK VINA RESULT: -7.506990403      2.130      3.786
REMARK  6 active torsions:
REMARK  status: ('A' for Active; 'I' for Inactive)
REMARK    1  A    between atoms: N1_2  and  C3_4 
REMARK    2  A    between atoms: C3_4  and  C4_5 
REMARK    3  A    between atoms: C7_8  and  C8_9 
REMARK       I    between atoms: C8_9  and  N2_11 
REMARK    4  A    between atoms: N2_11  and  C9_13 
REMARK    5  A    between atoms: C12_16  and  O2_17 
REMARK    6  A    between atoms: C13_19  and  C14_20 
ROOT
HETATM    1  C8  UNL     1      -5.852   5.256  13.801  1.00  0.00     0.222 C 
HETATM    2  O1  UNL     1      -5.745   4.659  12.703  1.00  0.00    -0.273 OA
HETATM    3  N2  UNL     1      -5.886   4.474  14.988  1.00  0.00    -0.356 N 
ATOM      4  H2  UNL     1      -5.974   4.957  15.882  1.00  0.00     0.162 HD
ENDROOT
BRANCH   3   5
HETATM    5  C9  UNL     1      -5.804   3.040  14.994  1.00  0.00     0.085 C 
HETATM    6  C10 UNL     1      -4.350   2.564  14.869  1.00  0.00     0.028 C 
HETATM    7  C11 UNL     1      -4.450   1.064  14.605  1.00  0.00     0.034 C 
HETATM    8  C12 UNL     1      -4.985   0.409  15.834  1.00  0.00     0.131 C 
HETATM    9  C13 UNL     1      -5.650   1.319  16.807  1.00  0.00     0.124 C 
HETATM   10  C15 UNL     1      -6.470   2.413  16.180  1.00  0.00     0.041 C 
BRANCH   8  11
HETATM   11  O2  UNL     1      -3.899  -0.218  16.486  1.00  0.00    -0.395 OA
ATOM     12  H2  UNL     1      -4.260  -0.791  17.153  1.00  0.00     0.210 HD
ENDBRANCH   8  11
BRANCH   9  13
HETATM   13  C14 UNL     1      -6.618   0.495  17.667  1.00  0.00     0.393 C 
HETATM   14  F1  UNL     1      -6.136  -0.772  17.879  1.00  0.00    -0.171 F 
HETATM   15  F2  UNL     1      -7.826   0.368  16.993  1.00  0.00    -0.171 F 
HETATM   16  F3  UNL     1      -6.803   1.084  18.906  1.00  0.00    -0.171 F 
ENDBRANCH   9  13
ENDBRANCH   3   5
BRANCH   1  17
HETATM   17  C7  UNL     1      -5.939   6.716  13.837  1.00  0.00     0.078 C 
HETATM   18  C6  UNL     1      -5.575   7.305  12.490  1.00  0.00     0.014 C 
HETATM   19  C5  UNL     1      -4.083   7.245  12.470  1.00  0.00     0.007 C 
HETATM   20  C4  UNL     1      -3.625   6.990  13.921  1.00  0.00     0.015 C 
HETATM   21  C16 UNL     1      -4.837   7.347  14.709  1.00  0.00     0.020 C 
BRANCH  20  22
HETATM   22  C3  UNL     1      -2.431   7.877  14.132  1.00  0.00     0.275 C 
BRANCH  22  23
HETATM   23  N1  UNL     1      -2.587   8.942  15.058  1.00  0.00     0.080 N 
HETATM   24  C1  UNL     1      -1.414   8.922  15.950  1.00  0.00     0.309 C 
HETATM   25  C2  UNL     1      -2.632  10.263  14.505  1.00  0.00     0.309 C 
ENDBRANCH  22  23
ENDBRANCH  20  22
ENDBRANCH   1  17
TORSDOF 6
ENDMDL
MODEL 5
REMARK VINA RESULT: -7.005337456      3.857      4.752
REMARK  6 active torsions:
REMARK  status: ('A' for Active; 'I' for Inactive)
REMARK    1  A    between atoms: N1_2  and  C3_4 
REMARK    2  A    between atoms: C3_4  and  C4_5 
REMARK    3  A    between atoms: C7_8  and  C8_9 
REMARK       I    between atoms: C8_9  and  N2_11 
REMARK    4  A    between atoms: N2_11  and  C9_13 
REMARK    5  A    between atoms: C12_16  and  O2_17 
REMARK    6  A    between atoms: C13_19  and  C14_20 
ROOT
HETATM    1  C8  UNL     1      -5.885   5.116  14.433  1.00  0.00     0.222 C 
HETATM    2  O1  UNL     1      -6.925   5.068  13.733  1.00  0.00    -0.273 OA
HETATM    3  N2  UNL     1      -4.783   4.303  14.051  1.00  0.00    -0.356 N 
ATOM      4  H2  UNL     1      -3.937   4.340  14.618  1.00  0.00     0.162 HD
ENDROOT
BRANCH   3   5
HETATM    5  C9  UNL     1      -4.799   3.434  12.908  1.00  0.00     0.085 C 
HETATM    6  C10 UNL     1      -3.702   3.813  11.904  1.00  0.00     0.028 C 
HETATM    7  C11 UNL     1      -4.024   3.006  10.649  1.00  0.00     0.034 C 
HETATM    8  C12 UNL     1      -3.810   1.561  10.954  1.00  0.00     0.131 C 
HETATM    9  C13 UNL     1      -3.753   1.215  12.401  1.00  0.00     0.124 C 
HETATM   10  C15 UNL     1      -4.715   1.982  13.266  1.00  0.00     0.041 C 
BRANCH   8  11
HETATM   11  O2  UNL     1      -2.586   1.180  10.359  1.00  0.00    -0.395 OA
ATOM     12  H2  UNL     1      -2.317   0.362  10.762  1.00  0.00     0.210 HD
ENDBRANCH   8  11
BRANCH   9  13
HETATM   13  C14 UNL     1      -4.113  -0.268  12.566  1.00  0.00     0.393 C 
HETATM   14  F1  UNL     1      -3.053  -1.074  12.240  1.00  0.00    -0.171 F 
HETATM   15  F2  UNL     1      -5.150  -0.580  11.696  1.00  0.00    -0.171 F 
HETATM   16  F3  UNL     1      -4.465  -0.549  13.875  1.00  0.00    -0.171 F 
ENDBRANCH   9  13
ENDBRANCH   3   5
BRANCH   1  17
HETATM   17  C7  UNL     1      -5.829   5.990  15.605  1.00  0.00     0.078 C 
HETATM   18  C6  UNL     1      -6.785   7.154  15.449  1.00  0.00     0.014 C 
HETATM   19  C5  UNL     1      -6.060   8.086  14.535  1.00  0.00     0.007 C 
HETATM   20  C4  UNL     1      -4.588   7.625  14.501  1.00  0.00     0.015 C 
HETATM   21  C16 UNL     1      -4.496   6.753  15.704  1.00  0.00     0.020 C 
BRANCH  20  22
HETATM   22  C3  UNL     1      -3.767   8.883  14.548  1.00  0.00     0.275 C 
BRANCH  22  23
HETATM   23  N1  UNL     1      -4.253   9.986  13.797  1.00  0.00     0.080 N 
HETATM   24  C1  UNL     1      -3.897  11.209  14.537  1.00  0.00     0.309 C 
HETATM   25  C2  UNL     1      -3.704  10.151  12.484  1.00  0.00     0.309 C 
ENDBRANCH  22  23
ENDBRANCH  20  22
ENDBRANCH   1  17
TORSDOF 6
ENDMDL
