MODEL 1
REMARK VINA RESULT: -7.317404429      0.000      0.000
REMARK  7 active torsions:
REMARK  status: ('A' for Active; 'I' for Inactive)
REMARK    1  A    between atoms: C3_3  and  C4_4 
REMARK    2  A    between atoms: C5_10  and  N2_11 
REMARK    3  A    between atoms: N2_11  and  C6_13 
REMARK    4  A    between atoms: C9_18  and  N4_19 
REMARK    5  A    between atoms: N4_19  and  C10_21 
REMARK    6  A    between atoms: C10_21  and  C11_22 
REMARK    7  A    between atoms: C11_22  and  N5_23 
ROOT
HETATM    1  C1  UNL     1      -7.391   1.885  16.995  1.00  0.00     0.054 C 
HETATM    2  C2  UNL     1      -6.474   1.098  16.126  1.00  0.00     0.014 A 
HETATM    3  C3  UNL     1      -5.965  -0.127  16.496  1.00  0.00     0.142 A 
HETATM    4  N1  UNL     1      -5.122  -0.807  15.667  1.00  0.00    -0.186 N 
ATOM      5  H1  UNL     1      -4.761  -1.712  15.967  1.00  0.00     0.184 HD
HETATM    6  C5  UNL     1      -4.750  -0.327  14.470  1.00  0.00     0.680 A 
HETATM    7  N3  UNL     1      -5.246   0.874  14.103  1.00  0.00    -0.176 N 
ATOM      8  H3  UNL     1      -4.977   1.257  13.197  1.00  0.00     0.186 HD
HETATM    9  C9  UNL     1      -6.077   1.583  14.877  1.00  0.00     0.125 A 
ENDROOT
BRANCH   9  10
HETATM   10  N4  UNL     1      -6.545   2.715  14.533  1.00  0.00    -0.374 N 
ATOM     11  H4  UNL     1      -7.542   2.834  14.711  1.00  0.00     0.161 HD
BRANCH  10  12
HETATM   12  C10 UNL     1      -5.916   3.837  13.946  1.00  0.00     0.151 C 
BRANCH  12  13
HETATM   13  C11 UNL     1      -5.616   4.949  14.920  1.00  0.00     0.292 C 
BRANCH  13  14
HETATM   14  N5  UNL     1      -4.221   4.989  15.307  1.00  0.00     0.090 N 
HETATM   15  C12 UNL     1      -3.827   6.287  15.720  1.00  0.00     0.272 C 
HETATM   16  C13 UNL     1      -2.397   6.648  15.549  1.00  0.00     0.030 C 
HETATM   17  C14 UNL     1      -1.808   6.137  14.247  1.00  0.00     0.003 C 
HETATM   18  C15 UNL     1      -1.981   4.614  14.323  1.00  0.00     0.030 C 
HETATM   19  C16 UNL     1      -3.463   4.375  14.269  1.00  0.00     0.272 C 
ENDBRANCH  13  14
ENDBRANCH  12  13
ENDBRANCH  10  12
ENDBRANCH   9  10
BRANCH   3  20
HETATM   20  C4  UNL     1      -6.358  -0.695  17.816  1.00  0.00     0.433 C 
HETATM   21  F1  UNL     1      -5.724  -1.938  17.947  1.00  0.00    -0.165 F 
HETATM   22  F2  UNL     1      -6.078   0.144  18.864  1.00  0.00    -0.165 F 
HETATM   23  F3  UNL     1      -7.720  -0.986  17.726  1.00  0.00    -0.165 F 
ENDBRANCH   3  20
BRANCH   6  24
HETATM   24  N2  UNL     1      -3.952  -1.037  13.755  1.00  0.00    -0.222 N 
ATOM     25  H2  UNL     1      -3.188  -1.499  14.249  1.00  0.00     0.178 HD
BRANCH  24  26
HETATM   26  C6  UNL     1      -4.017  -1.250  12.347  1.00  0.00     0.091 C 
HETATM   27  C7  UNL     1      -4.204  -2.756  12.116  1.00  0.00     0.032 C 
HETATM   28  C8  UNL     1      -2.687  -0.908  11.663  1.00  0.00     0.032 C 
ENDBRANCH  24  26
ENDBRANCH   6  24
TORSDOF 7
ENDMDL
MODEL 2
REMARK VINA RESULT: -7.248006235      1.418      1.946
REMARK  7 active torsions:
REMARK  status: ('A' for Active; 'I' for Inactive)
REMARK    1  A    between atoms: C3_3  and  C4_4 
REMARK    2  A    between atoms: C5_10  and  N2_11 
REMARK    3  A    between atoms: N2_11  and  C6_13 
REMARK    4  A    between atoms: C9_18  and  N4_19 
REMARK    5  A    between atoms: N4_19  and  C10_21 
REMARK    6  A    between atoms: C10_21  and  C11_22 
REMARK    7  A    between atoms: C11_22  and  N5_23 
ROOT
HETATM    1  C1  UNL     1      -7.356   1.916  17.009  1.00  0.00     0.054 C 
HETATM    2  C2  UNL     1      -6.451   1.116  16.138  1.00  0.00     0.014 A 
HETATM    3  C3  UNL     1      -5.983  -0.129  16.494  1.00  0.00     0.142 A 
HETATM    4  N1  UNL     1      -5.151  -0.820  15.664  1.00  0.00    -0.186 N 
ATOM      5  H1  UNL     1      -4.820  -1.740  15.954  1.00  0.00     0.184 HD
HETATM    6  C5  UNL     1      -4.751  -0.333  14.479  1.00  0.00     0.680 A 
HETATM    7  N3  UNL     1      -5.208   0.888  14.126  1.00  0.00    -0.176 N 
ATOM      8  H3  UNL     1      -4.916   1.276  13.229  1.00  0.00     0.186 HD
HETATM    9  C9  UNL     1      -6.026   1.609  14.902  1.00  0.00     0.125 A 
ENDROOT
BRANCH   9  10
HETATM   10  N4  UNL     1      -6.457   2.759  14.571  1.00  0.00    -0.374 N 
ATOM     11  H4  UNL     1      -7.467   2.813  14.440  1.00  0.00     0.161 HD
BRANCH  10  12
HETATM   12  C10 UNL     1      -5.771   3.977  14.353  1.00  0.00     0.151 C 
BRANCH  12  13
HETATM   13  C11 UNL     1      -6.092   5.048  15.365  1.00  0.00     0.292 C 
BRANCH  13  14
HETATM   14  N5  UNL     1      -6.116   6.374  14.784  1.00  0.00     0.090 N 
HETATM   15  C12 UNL     1      -6.961   6.435  13.648  1.00  0.00     0.272 C 
HETATM   16  C13 UNL     1      -6.640   7.454  12.617  1.00  0.00     0.030 C 
HETATM   17  C14 UNL     1      -5.150   7.597  12.369  1.00  0.00     0.003 C 
HETATM   18  C15 UNL     1      -4.573   7.999  13.734  1.00  0.00     0.030 C 
HETATM   19  C16 UNL     1      -4.767   6.803  14.620  1.00  0.00     0.272 C 
ENDBRANCH  13  14
ENDBRANCH  12  13
ENDBRANCH  10  12
ENDBRANCH   9  10
BRANCH   3  20
HETATM   20  C4  UNL     1      -6.408  -0.705  17.801  1.00  0.00     0.433 C 
HETATM   21  F1  UNL     1      -5.813  -1.969  17.918  1.00  0.00    -0.165 F 
HETATM   22  F2  UNL     1      -6.115   0.108  18.865  1.00  0.00    -0.165 F 
HETATM   23  F3  UNL     1      -7.778  -0.954  17.691  1.00  0.00    -0.165 F 
ENDBRANCH   3  20
BRANCH   6  24
HETATM   24  N2  UNL     1      -3.965  -1.055  13.762  1.00  0.00    -0.222 N 
ATOM     25  H2  UNL     1      -3.215  -1.539  14.256  1.00  0.00     0.178 HD
BRANCH  24  26
HETATM   26  C6  UNL     1      -4.028  -1.255  12.352  1.00  0.00     0.091 C 
HETATM   27  C7  UNL     1      -4.195  -2.760  12.105  1.00  0.00     0.032 C 
HETATM   28  C8  UNL     1      -2.703  -0.887  11.671  1.00  0.00     0.032 C 
ENDBRANCH  24  26
ENDBRANCH   6  24
TORSDOF 7
ENDMDL
MODEL 3
REMARK VINA RESULT: -7.245014498      1.103      1.756
REMARK  7 active torsions:
REMARK  status: ('A' for Active; 'I' for Inactive)
REMARK    1  A    between atoms: C3_3  and  C4_4 
REMARK    2  A    between atoms: C5_10  and  N2_11 
REMARK    3  A    between atoms: N2_11  and  C6_13 
REMARK    4  A    between atoms: C9_18  and  N4_19 
REMARK    5  A    between atoms: N4_19  and  C10_21 
REMARK    6  A    between atoms: C10_21  and  C11_22 
REMARK    7  A    between atoms: C11_22  and  N5_23 
ROOT
HETATM    1  C1  UNL     1      -7.328   1.857  17.009  1.00  0.00     0.054 C 
HETATM    2  C2  UNL     1      -6.426   1.125  16.078  1.00  0.00     0.014 A 
HETATM    3  C3  UNL     1      -5.906  -0.117  16.368  1.00  0.00     0.142 A 
HETATM    4  N1  UNL     1      -5.078  -0.745  15.484  1.00  0.00    -0.186 N 
ATOM      5  H1  UNL     1      -4.707  -1.664  15.726  1.00  0.00     0.184 HD
HETATM    6  C5  UNL     1      -4.733  -0.197  14.309  1.00  0.00     0.680 A 
HETATM    7  N3  UNL     1      -5.241   1.021  14.021  1.00  0.00    -0.176 N 
ATOM      8  H3  UNL     1      -4.992   1.455  13.133  1.00  0.00     0.186 HD
HETATM    9  C9  UNL     1      -6.058   1.682  14.851  1.00  0.00     0.125 A 
ENDROOT
BRANCH   9  10
HETATM   10  N4  UNL     1      -6.536   2.829  14.582  1.00  0.00    -0.374 N 
ATOM     11  H4  UNL     1      -7.530   2.831  14.351  1.00  0.00     0.161 HD
BRANCH  10  12
HETATM   12  C10 UNL     1      -5.924   4.103  14.548  1.00  0.00     0.151 C 
BRANCH  12  13
HETATM   13  C11 UNL     1      -5.517   4.550  13.167  1.00  0.00     0.292 C 
BRANCH  13  14
HETATM   14  N5  UNL     1      -4.089   4.453  12.948  1.00  0.00     0.090 N 
HETATM   15  C12 UNL     1      -3.766   3.423  12.029  1.00  0.00     0.272 C 
HETATM   16  C13 UNL     1      -2.429   2.792  12.159  1.00  0.00     0.030 C 
HETATM   17  C14 UNL     1      -2.014   2.575  13.603  1.00  0.00     0.003 C 
HETATM   18  C15 UNL     1      -2.016   3.982  14.216  1.00  0.00     0.030 C 
HETATM   19  C16 UNL     1      -3.454   4.415  14.223  1.00  0.00     0.272 C 
ENDBRANCH  13  14
ENDBRANCH  12  13
ENDBRANCH  10  12
ENDBRANCH   9  10
BRANCH   3  20
HETATM   20  C4  UNL     1      -6.269  -0.760  17.662  1.00  0.00     0.433 C 
HETATM   21  F1  UNL     1      -5.695  -2.038  17.674  1.00  0.00    -0.165 F 
HETATM   22  F2  UNL     1      -5.900  -0.015  18.752  1.00  0.00    -0.165 F 
HETATM   23  F3  UNL     1      -7.647  -0.978  17.617  1.00  0.00    -0.165 F 
ENDBRANCH   3  20
BRANCH   6  24
HETATM   24  N2  UNL     1      -3.947  -0.861  13.538  1.00  0.00    -0.222 N 
ATOM     25  H2  UNL     1      -3.381  -1.585  13.982  1.00  0.00     0.178 HD
BRANCH  24  26
HETATM   26  C6  UNL     1      -3.781  -0.699  12.132  1.00  0.00     0.091 C 
HETATM   27  C7  UNL     1      -4.660  -1.748  11.438  1.00  0.00     0.032 C 
HETATM   28  C8  UNL     1      -2.349  -1.029  11.692  1.00  0.00     0.032 C 
ENDBRANCH  24  26
ENDBRANCH   6  24
TORSDOF 7
ENDMDL
MODEL 4
REMARK VINA RESULT: -7.144744149      2.864      5.054
REMARK  7 active torsions:
REMARK  status: ('A' for Active; 'I' for Inactive)
REMARK    1  A    between atoms: C3_3  and  C4_4 
REMARK    2  A    between atoms: C5_10  and  N2_11 
REMARK    3  A    between atoms: N2_11  and  C6_13 
REMARK    4  A    between atoms: C9_18  and  N4_19 
REMARK    5  A    between atoms: N4_19  and  C10_21 
REMARK    6  A    between atoms: C10_21  and  C11_22 
REMARK    7  A    between atoms: C11_22  and  N5_23 
ROOT
HETATM    1  C1  UNL     1      -2.258  -0.121  10.646  1.00  0.00     0.054 C 
HETATM    2  C2  UNL     1      -3.022  -0.301  11.911  1.00  0.00     0.014 A 
HETATM    3  C3  UNL     1      -3.552  -1.513  12.295  1.00  0.00     0.142 A 
HETATM    4  N1  UNL     1      -4.250  -1.625  13.462  1.00  0.00    -0.186 N 
ATOM      5  H1  UNL     1      -4.631  -2.535  13.721  1.00  0.00     0.184 HD
HETATM    6  C5  UNL     1      -4.454  -0.582  14.280  1.00  0.00     0.680 A 
HETATM    7  N3  UNL     1      -3.936   0.609  13.907  1.00  0.00    -0.176 N 
ATOM      8  H3  UNL     1      -4.079   1.415  14.515  1.00  0.00     0.186 HD
HETATM    9  C9  UNL     1      -3.243   0.775  12.774  1.00  0.00     0.125 A 
ENDROOT
BRANCH   9  10
HETATM   10  N4  UNL     1      -2.755   1.896  12.421  1.00  0.00    -0.374 N 
ATOM     11  H4  UNL     1      -2.778   2.071  11.416  1.00  0.00     0.161 HD
BRANCH  10  12
HETATM   12  C10 UNL     1      -2.186   2.940  13.185  1.00  0.00     0.151 C 
BRANCH  12  13
HETATM   13  C11 UNL     1      -3.023   4.194  13.226  1.00  0.00     0.292 C 
BRANCH  13  14
HETATM   14  N5  UNL     1      -3.719   4.360  14.485  1.00  0.00     0.090 N 
HETATM   15  C12 UNL     1      -5.077   3.962  14.391  1.00  0.00     0.272 C 
HETATM   16  C13 UNL     1      -6.039   4.612  15.317  1.00  0.00     0.030 C 
HETATM   17  C14 UNL     1      -5.771   6.093  15.507  1.00  0.00     0.003 C 
HETATM   18  C15 UNL     1      -4.345   6.154  16.070  1.00  0.00     0.030 C 
HETATM   19  C16 UNL     1      -3.454   5.676  14.959  1.00  0.00     0.272 C 
ENDBRANCH  13  14
ENDBRANCH  12  13
ENDBRANCH  10  12
ENDBRANCH   9  10
BRANCH   3  20
HETATM   20  C4  UNL     1      -3.343  -2.695  11.414  1.00  0.00     0.433 C 
HETATM   21  F1  UNL     1      -4.110  -3.748  11.932  1.00  0.00    -0.165 F 
HETATM   22  F2  UNL     1      -3.633  -2.441  10.098  1.00  0.00    -0.165 F 
HETATM   23  F3  UNL     1      -2.015  -3.087  11.594  1.00  0.00    -0.165 F 
ENDBRANCH   3  20
BRANCH   6  24
HETATM   24  N2  UNL     1      -5.124  -0.781  15.360  1.00  0.00    -0.222 N 
ATOM     25  H2  UNL     1      -5.496  -1.721  15.496  1.00  0.00     0.178 HD
BRANCH  24  26
HETATM   26  C6  UNL     1      -5.403   0.168  16.386  1.00  0.00     0.091 C 
HETATM   27  C7  UNL     1      -5.755  -0.618  17.657  1.00  0.00     0.032 C 
HETATM   28  C8  UNL     1      -6.659   0.989  16.069  1.00  0.00     0.032 C 
ENDBRANCH  24  26
ENDBRANCH   6  24
TORSDOF 7
ENDMDL
MODEL 5
REMARK VINA RESULT: -7.139073052      2.018      4.955
REMARK  7 active torsions:
REMARK  status: ('A' for Active; 'I' for Inactive)
REMARK    1  A    between atoms: C3_3  and  C4_4 
REMARK    2  A    between atoms: C5_10  and  N2_11 
REMARK    3  A    between atoms: N2_11  and  C6_13 
REMARK    4  A    between atoms: C9_18  and  N4_19 
REMARK    5  A    between atoms: N4_19  and  C10_21 
REMARK    6  A    between atoms: C10_21  and  C11_22 
REMARK    7  A    between atoms: C11_22  and  N5_23 
ROOT
HETATM    1  C1  UNL     1      -4.554  -1.675  16.041  1.00  0.00     0.054 C 
HETATM    2  C2  UNL     1      -5.142  -0.394  15.561  1.00  0.00     0.014 A 
HETATM    3  C3  UNL     1      -6.068   0.319  16.289  1.00  0.00     0.142 A 
HETATM    4  N1  UNL     1      -6.584   1.485  15.803  1.00  0.00    -0.186 N 
ATOM      5  H1  UNL     1      -7.268   1.992  16.364  1.00  0.00     0.184 HD
HETATM    6  C5  UNL     1      -6.222   1.988  14.613  1.00  0.00     0.680 A 
HETATM    7  N3  UNL     1      -5.314   1.292  13.895  1.00  0.00    -0.176 N 
ATOM      8  H3  UNL     1      -5.026   1.657  12.988  1.00  0.00     0.186 HD
HETATM    9  C9  UNL     1      -4.777   0.143  14.325  1.00  0.00     0.125 A 
ENDROOT
BRANCH   9  10
HETATM   10  N4  UNL     1      -3.922  -0.514  13.650  1.00  0.00    -0.374 N 
ATOM     11  H4  UNL     1      -2.957  -0.397  13.958  1.00  0.00     0.161 HD
BRANCH  10  12
HETATM   12  C10 UNL     1      -4.083  -1.381  12.545  1.00  0.00     0.151 C 
BRANCH  12  13
HETATM   13  C11 UNL     1      -3.776  -0.741  11.215  1.00  0.00     0.292 C 
BRANCH  13  14
HETATM   14  N5  UNL     1      -2.849   0.366  11.330  1.00  0.00     0.090 N 
HETATM   15  C12 UNL     1      -3.372   1.552  10.756  1.00  0.00     0.272 C 
HETATM   16  C13 UNL     1      -2.396   2.543  10.239  1.00  0.00     0.030 C 
HETATM   17  C14 UNL     1      -1.219   1.901   9.528  1.00  0.00     0.003 C 
HETATM   18  C15 UNL     1      -0.574   1.003  10.593  1.00  0.00     0.030 C 
HETATM   19  C16 UNL     1      -1.578  -0.080  10.866  1.00  0.00     0.272 C 
ENDBRANCH  13  14
ENDBRANCH  12  13
ENDBRANCH  10  12
ENDBRANCH   9  10
BRANCH   3  20
HETATM   20  C4  UNL     1      -6.491  -0.206  17.618  1.00  0.00     0.433 C 
HETATM   21  F1  UNL     1      -7.604  -1.034  17.409  1.00  0.00    -0.165 F 
HETATM   22  F2  UNL     1      -5.482  -0.852  18.285  1.00  0.00    -0.165 F 
HETATM   23  F3  UNL     1      -6.979   0.888  18.334  1.00  0.00    -0.165 F 
ENDBRANCH   3  20
BRANCH   6  24
HETATM   24  N2  UNL     1      -6.760   3.093  14.234  1.00  0.00    -0.222 N 
ATOM     25  H2  UNL     1      -7.768   3.079  14.080  1.00  0.00     0.178 HD
BRANCH  24  26
HETATM   26  C6  UNL     1      -6.102   4.337  14.008  1.00  0.00     0.091 C 
HETATM   27  C7  UNL     1      -6.013   5.066  15.356  1.00  0.00     0.032 C 
HETATM   28  C8  UNL     1      -6.936   5.262  13.113  1.00  0.00     0.032 C 
ENDBRANCH  24  26
ENDBRANCH   6  24
TORSDOF 7
ENDMDL
