MODEL 1
REMARK VINA RESULT: -8.119926655      0.000      0.000
REMARK  4 active torsions:
REMARK  status: ('A' for Active; 'I' for Inactive)
REMARK    1  A    between atoms: C2_2  and  N1_3 
REMARK    2  A    between atoms: C2_2  and  C10_15 
REMARK    3  A    between atoms: N1_3  and  C3_5 
REMARK    4  A    between atoms: N3_17  and  C12_18 
ROOT
HETATM    1  C1  UNL     1      -4.203  -3.215  11.995  1.00  0.00     0.032 C 
HETATM    2  C2  UNL     1      -4.203  -1.780  12.309  1.00  0.00     0.079 C 
ENDROOT
BRANCH   2   3
HETATM    3  N1  UNL     1      -3.894  -1.271  13.556  1.00  0.00    -0.405 N 
ATOM      4  H1  UNL     1      -2.949  -1.419  13.908  1.00  0.00     0.154 HD
BRANCH   3   5
HETATM    5  C3  UNL     1      -4.785  -0.570  14.366  1.00  0.00     0.173 C 
HETATM    6  C4  UNL     1      -4.753  -0.793  15.821  1.00  0.00     0.240 C 
HETATM    7  O1  UNL     1      -3.824  -1.413  16.382  1.00  0.00    -0.271 OA
HETATM    8  N2  UNL     1      -5.766  -0.318  16.735  1.00  0.00    -0.359 N 
HETATM    9  C5  UNL     1      -6.771   0.739  16.535  1.00  0.00     0.127 C 
ATOM     10  H2  UNL     1      -5.789  -0.779  17.645  1.00  0.00     0.162 HD
HETATM   11  C6  UNL     1      -6.142   1.784  15.643  1.00  0.00     0.004 C 
HETATM   12  C7  UNL     1      -4.668   1.677  15.469  1.00  0.00     0.013 C 
HETATM   13  C9  UNL     1      -6.275   1.447  14.166  1.00  0.00     0.013 C 
HETATM   14  C8  UNL     1      -4.826   0.948  14.157  1.00  0.00     0.018 C 
ENDBRANCH   3   5
ENDBRANCH   2   3
BRANCH   2  15
HETATM   15  C10 UNL     1      -3.415  -0.970  11.231  1.00  0.00     0.042 C 
HETATM   16  C11 UNL     1      -4.149   0.240  10.853  1.00  0.00     0.280 C 
HETATM   17  N3  UNL     1      -3.414   1.453  10.605  1.00  0.00     0.099 N 
HETATM   18  C16 UNL     1      -2.379   1.570  11.577  1.00  0.00     0.351 C 
HETATM   19  C17 UNL     1      -1.377   0.479  11.389  1.00  0.00     0.270 C 
HETATM   20  F1  UNL     1      -0.348   0.686  12.288  1.00  0.00    -0.204 F 
HETATM   21  F2  UNL     1      -0.816   0.625  10.134  1.00  0.00    -0.204 F 
HETATM   22  C18 UNL     1      -1.979  -0.891  11.561  1.00  0.00     0.089 C 
BRANCH  17  23
HETATM   23  C12 UNL     1      -4.355   2.576  10.710  1.00  0.00     0.223 C 
HETATM   24  C13 UNL     1      -4.168   3.602   9.620  1.00  0.00     0.036 C 
HETATM   25  C14 UNL     1      -4.528   4.653  10.676  1.00  0.00     0.004 C 
HETATM   26  C15 UNL     1      -4.050   3.621  11.716  1.00  0.00     0.036 C 
ENDBRANCH  17  23
ENDBRANCH   2  15
TORSDOF 4
ENDMDL
MODEL 2
REMARK VINA RESULT: -7.486941331      2.173      5.277
REMARK  4 active torsions:
REMARK  status: ('A' for Active; 'I' for Inactive)
REMARK    1  A    between atoms: C2_2  and  N1_3 
REMARK    2  A    between atoms: C2_2  and  C10_15 
REMARK    3  A    between atoms: N1_3  and  C3_5 
REMARK    4  A    between atoms: N3_17  and  C12_18 
ROOT
HETATM    1  C1  UNL     1      -4.600   3.558   9.994  1.00  0.00     0.032 C 
HETATM    2  C2  UNL     1      -4.295   2.575  11.043  1.00  0.00     0.079 C 
ENDROOT
BRANCH   2   3
HETATM    3  N1  UNL     1      -3.200   1.733  11.006  1.00  0.00    -0.405 N 
ATOM      4  H1  UNL     1      -2.276   2.159  10.936  1.00  0.00     0.154 HD
BRANCH   3   5
HETATM    5  C3  UNL     1      -3.270   0.343  11.058  1.00  0.00     0.173 C 
HETATM    6  C4  UNL     1      -2.120  -0.411  11.586  1.00  0.00     0.240 C 
HETATM    7  O1  UNL     1      -1.177   0.145  12.188  1.00  0.00    -0.271 OA
HETATM    8  N2  UNL     1      -1.972  -1.844  11.474  1.00  0.00    -0.359 N 
HETATM    9  C5  UNL     1      -2.998  -2.862  11.197  1.00  0.00     0.127 C 
ATOM     10  H2  UNL     1      -1.025  -2.199  11.604  1.00  0.00     0.162 HD
HETATM   11  C6  UNL     1      -4.283  -2.377  11.826  1.00  0.00     0.004 C 
HETATM   12  C7  UNL     1      -4.143  -1.249  12.786  1.00  0.00     0.013 C 
HETATM   13  C9  UNL     1      -5.054  -1.427  10.923  1.00  0.00     0.013 C 
HETATM   14  C8  UNL     1      -4.520  -0.239  11.730  1.00  0.00     0.018 C 
ENDBRANCH   3   5
ENDBRANCH   2   3
BRANCH   2  15
HETATM   15  C10 UNL     1      -4.375   3.225  12.461  1.00  0.00     0.042 C 
HETATM   16  C11 UNL     1      -5.393   2.560  13.279  1.00  0.00     0.280 C 
HETATM   17  N3  UNL     1      -5.135   2.351  14.680  1.00  0.00     0.099 N 
HETATM   18  C16 UNL     1      -3.776   1.954  14.842  1.00  0.00     0.351 C 
HETATM   19  C17 UNL     1      -2.868   3.075  14.457  1.00  0.00     0.270 C 
HETATM   20  F1  UNL     1      -1.570   2.680  14.718  1.00  0.00    -0.204 F 
HETATM   21  F2  UNL     1      -3.117   4.138  15.304  1.00  0.00    -0.204 F 
HETATM   22  C18 UNL     1      -3.031   3.477  13.015  1.00  0.00     0.089 C 
BRANCH  17  23
HETATM   23  C12 UNL     1      -6.044   1.297  15.149  1.00  0.00     0.223 C 
HETATM   24  C13 UNL     1      -6.833   1.703  16.369  1.00  0.00     0.036 C 
HETATM   25  C14 UNL     1      -6.701   0.246  16.826  1.00  0.00     0.004 C 
HETATM   26  C15 UNL     1      -5.447   0.189  15.933  1.00  0.00     0.036 C 
ENDBRANCH  17  23
ENDBRANCH   2  15
TORSDOF 4
ENDMDL
MODEL 3
REMARK VINA RESULT: -7.380111430      2.769      3.793
REMARK  4 active torsions:
REMARK  status: ('A' for Active; 'I' for Inactive)
REMARK    1  A    between atoms: C2_2  and  N1_3 
REMARK    2  A    between atoms: C2_2  and  C10_15 
REMARK    3  A    between atoms: N1_3  and  C3_5 
REMARK    4  A    between atoms: N3_17  and  C12_18 
ROOT
HETATM    1  C1  UNL     1      -4.558  -1.043  14.750  1.00  0.00     0.032 C 
HETATM    2  C2  UNL     1      -4.521   0.117  13.850  1.00  0.00     0.079 C 
ENDROOT
BRANCH   2   3
HETATM    3  N1  UNL     1      -3.746   1.238  14.080  1.00  0.00    -0.405 N 
ATOM      4  H1  UNL     1      -2.747   1.173  13.883  1.00  0.00     0.154 HD
BRANCH   3   5
HETATM    5  C3  UNL     1      -4.234   2.450  14.564  1.00  0.00     0.173 C 
HETATM    6  C4  UNL     1      -3.499   3.689  14.256  1.00  0.00     0.240 C 
HETATM    7  O1  UNL     1      -2.585   3.730  13.405  1.00  0.00    -0.271 OA
HETATM    8  N2  UNL     1      -3.760   4.962  14.887  1.00  0.00    -0.359 N 
HETATM    9  C5  UNL     1      -4.958   5.403  15.621  1.00  0.00     0.127 C 
ATOM     10  H2  UNL     1      -3.012   5.651  14.814  1.00  0.00     0.162 HD
HETATM   11  C6  UNL     1      -6.145   4.728  14.976  1.00  0.00     0.004 C 
HETATM   12  C7  UNL     1      -5.886   4.099  13.653  1.00  0.00     0.013 C 
HETATM   13  C9  UNL     1      -6.388   3.329  15.520  1.00  0.00     0.013 C 
HETATM   14  C8  UNL     1      -5.713   2.737  14.279  1.00  0.00     0.018 C 
ENDBRANCH   3   5
ENDBRANCH   2   3
BRANCH   2  15
HETATM   15  C10 UNL     1      -4.321  -0.330  12.367  1.00  0.00     0.042 C 
HETATM   16  C11 UNL     1      -3.215   0.406  11.749  1.00  0.00     0.280 C 
HETATM   17  N3  UNL     1      -2.337  -0.287  10.842  1.00  0.00     0.099 N 
HETATM   18  C16 UNL     1      -2.073  -1.588  11.361  1.00  0.00     0.351 C 
HETATM   19  C17 UNL     1      -3.327  -2.399  11.364  1.00  0.00     0.270 C 
HETATM   20  F1  UNL     1      -3.006  -3.676  11.784  1.00  0.00    -0.204 F 
HETATM   21  F2  UNL     1      -3.754  -2.530  10.056  1.00  0.00    -0.204 F 
HETATM   22  C18 UNL     1      -4.401  -1.797  12.231  1.00  0.00     0.089 C 
BRANCH  17  23
HETATM   23  C12 UNL     1      -1.096   0.493  10.738  1.00  0.00     0.223 C 
HETATM   24  C13 UNL     1      -0.738   1.199  12.022  1.00  0.00     0.036 C 
HETATM   25  C14 UNL     1      -0.214   2.338  11.141  1.00  0.00     0.004 C 
HETATM   26  C15 UNL     1      -1.181   1.810  10.063  1.00  0.00     0.036 C 
ENDBRANCH  17  23
ENDBRANCH   2  15
TORSDOF 4
ENDMDL
MODEL 4
REMARK VINA RESULT: -7.307129561      3.177      5.285
REMARK  4 active torsions:
REMARK  status: ('A' for Active; 'I' for Inactive)
REMARK    1  A    between atoms: C2_2  and  N1_3 
REMARK    2  A    between atoms: C2_2  and  C10_15 
REMARK    3  A    between atoms: N1_3  and  C3_5 
REMARK    4  A    between atoms: N3_17  and  C12_18 
ROOT
HETATM    1  C1  UNL     1      -5.033  -0.246  15.944  1.00  0.00     0.032 C 
HETATM    2  C2  UNL     1      -4.587   0.613  14.839  1.00  0.00     0.079 C 
ENDROOT
BRANCH   2   3
HETATM    3  N1  UNL     1      -4.999   0.450  13.530  1.00  0.00    -0.405 N 
ATOM      4  H1  UNL     1      -5.908   0.831  13.268  1.00  0.00     0.154 HD
BRANCH   3   5
HETATM    5  C3  UNL     1      -4.259  -0.199  12.544  1.00  0.00     0.173 C 
HETATM    6  C4  UNL     1      -4.940  -0.637  11.314  1.00  0.00     0.240 C 
HETATM    7  O1  UNL     1      -6.095  -0.263  11.020  1.00  0.00    -0.271 OA
HETATM    8  N2  UNL     1      -4.350  -1.519  10.333  1.00  0.00    -0.359 N 
HETATM    9  C5  UNL     1      -2.931  -1.851  10.122  1.00  0.00     0.127 C 
ATOM     10  H2  UNL     1      -5.007  -1.975   9.700  1.00  0.00     0.162 HD
HETATM   11  C6  UNL     1      -2.132  -0.617  10.468  1.00  0.00     0.004 C 
HETATM   12  C7  UNL     1      -2.916   0.640  10.602  1.00  0.00     0.013 C 
HETATM   13  C9  UNL     1      -1.834  -0.512  11.955  1.00  0.00     0.013 C 
HETATM   14  C8  UNL     1      -2.970   0.504  12.104  1.00  0.00     0.018 C 
ENDBRANCH   3   5
ENDBRANCH   2   3
BRANCH   2  15
HETATM   15  C10 UNL     1      -4.715   2.123  15.217  1.00  0.00     0.042 C 
HETATM   16  C11 UNL     1      -3.554   2.878  14.736  1.00  0.00     0.280 C 
HETATM   17  N3  UNL     1      -3.753   4.204  14.211  1.00  0.00     0.099 N 
HETATM   18  C16 UNL     1      -4.937   4.211  13.417  1.00  0.00     0.351 C 
HETATM   19  C17 UNL     1      -6.131   3.966  14.280  1.00  0.00     0.270 C 
HETATM   20  F1  UNL     1      -7.258   4.075  13.488  1.00  0.00    -0.204 F 
HETATM   21  F2  UNL     1      -6.214   4.996  15.197  1.00  0.00    -0.204 F 
HETATM   22  C18 UNL     1      -6.080   2.627  14.967  1.00  0.00     0.089 C 
BRANCH  17  23
HETATM   23  C12 UNL     1      -2.579   4.543  13.396  1.00  0.00     0.223 C 
HETATM   24  C13 UNL     1      -2.778   4.252  11.929  1.00  0.00     0.036 C 
HETATM   25  C14 UNL     1      -1.298   3.859  11.901  1.00  0.00     0.004 C 
HETATM   26  C15 UNL     1      -1.448   3.583  13.409  1.00  0.00     0.036 C 
ENDBRANCH  17  23
ENDBRANCH   2  15
TORSDOF 4
ENDMDL
MODEL 5
REMARK VINA RESULT: -7.249562719      1.418      1.990
REMARK  4 active torsions:
REMARK  status: ('A' for Active; 'I' for Inactive)
REMARK    1  A    between atoms: C2_2  and  N1_3 
REMARK    2  A    between atoms: C2_2  and  C10_15 
REMARK    3  A    between atoms: N1_3  and  C3_5 
REMARK    4  A    between atoms: N3_17  and  C12_18 
ROOT
HETATM    1  C1  UNL     1      -4.468  -1.937  12.047  1.00  0.00     0.032 C 
HETATM    2  C2  UNL     1      -4.511  -0.613  12.684  1.00  0.00     0.079 C 
ENDROOT
BRANCH   2   3
HETATM    3  N1  UNL     1      -4.186  -0.391  14.009  1.00  0.00    -0.405 N 
ATOM      4  H1  UNL     1      -3.210  -0.203  14.233  1.00  0.00     0.154 HD
BRANCH   3   5
HETATM    5  C3  UNL     1      -5.101  -0.409  15.060  1.00  0.00     0.173 C 
HETATM    6  C4  UNL     1      -4.688  -0.974  16.356  1.00  0.00     0.240 C 
HETATM    7  O1  UNL     1      -3.495  -1.238  16.620  1.00  0.00    -0.271 OA
HETATM    8  N2  UNL     1      -5.599  -1.266  17.438  1.00  0.00    -0.359 N 
HETATM    9  C5  UNL     1      -6.963  -0.760  17.662  1.00  0.00     0.127 C 
ATOM     10  H2  UNL     1      -5.249  -1.913  18.145  1.00  0.00     0.162 HD
HETATM   11  C6  UNL     1      -7.004   0.652  17.125  1.00  0.00     0.004 C 
HETATM   12  C7  UNL     1      -5.682   1.266  16.831  1.00  0.00     0.013 C 
HETATM   13  C9  UNL     1      -7.285   0.700  15.631  1.00  0.00     0.013 C 
HETATM   14  C8  UNL     1      -5.793   0.924  15.365  1.00  0.00     0.018 C 
ENDBRANCH   3   5
ENDBRANCH   2   3
BRANCH   2  15
HETATM   15  C10 UNL     1      -3.782   0.455  11.807  1.00  0.00     0.042 C 
HETATM   16  C11 UNL     1      -4.182   1.808  12.202  1.00  0.00     0.280 C 
HETATM   17  N3  UNL     1      -3.190   2.853  12.211  1.00  0.00     0.099 N 
HETATM   18  C16 UNL     1      -1.975   2.328  12.739  1.00  0.00     0.351 C 
HETATM   19  C17 UNL     1      -1.422   1.295  11.814  1.00  0.00     0.270 C 
HETATM   20  F1  UNL     1      -0.202   0.884  12.317  1.00  0.00    -0.204 F 
HETATM   21  F2  UNL     1      -1.145   1.905  10.606  1.00  0.00    -0.204 F 
HETATM   22  C18 UNL     1      -2.354   0.125  11.634  1.00  0.00     0.089 C 
BRANCH  17  23
HETATM   23  C12 UNL     1      -3.697   3.942  13.056  1.00  0.00     0.223 C 
HETATM   24  C13 UNL     1      -3.384   3.745  14.519  1.00  0.00     0.036 C 
HETATM   25  C14 UNL     1      -4.746   4.387  14.802  1.00  0.00     0.004 C 
HETATM   26  C15 UNL     1      -5.142   3.924  13.387  1.00  0.00     0.036 C 
ENDBRANCH  17  23
ENDBRANCH   2  15
TORSDOF 4
ENDMDL
