MODEL 1
REMARK VINA RESULT: -11.373737750      0.000      0.000
REMARK  6 active torsions:
REMARK  status: ('A' for Active; 'I' for Inactive)
REMARK    1  A    between atoms: C1_2  and  C2_4 
REMARK    2  A    between atoms: C5_7  and  N2_8 
REMARK       I    between atoms: N2_8  and  C6_10 
REMARK       I    between atoms: C6_10  and  N3_12 
REMARK    3  A    between atoms: N3_12  and  C7_14 
REMARK    4  A    between atoms: C14_21  and  O3_22 
REMARK    5  A    between atoms: O3_22  and  C15_23 
REMARK    6  A    between atoms: C18_26  and  C19_27 
ROOT
HETATM    1  C2  UNL     1      12.059  25.475  34.120  1.00  0.00     0.063 A 
HETATM    2  C3  UNL     1      13.025  24.961  35.010  1.00  0.00     0.022 A 
HETATM    3  C4  UNL     1      13.704  23.817  34.718  1.00  0.00     0.030 A 
HETATM    4  C5  UNL     1      13.480  23.091  33.526  1.00  0.00     0.039 A 
HETATM    5  C13 UNL     1      12.547  23.589  32.665  1.00  0.00     0.067 A 
HETATM    6  C14 UNL     1      11.840  24.787  32.971  1.00  0.00     0.093 A 
ENDROOT
BRANCH   6   7
HETATM    7  O3  UNL     1      10.922  25.200  32.018  1.00  0.00    -0.310 OA
BRANCH   7   8
HETATM    8  C15 UNL     1       9.556  25.126  32.240  1.00  0.00     0.076 A 
HETATM    9  C16 UNL     1       9.053  23.927  32.765  1.00  0.00     0.038 A 
HETATM   10  C17 UNL     1       7.696  23.797  33.004  1.00  0.00     0.015 A 
HETATM   11  C18 UNL     1       6.832  24.834  32.729  1.00  0.00    -0.026 A 
HETATM   12  C25 UNL     1       7.312  26.015  32.214  1.00  0.00     0.015 A 
HETATM   13  C26 UNL     1       8.661  26.150  31.975  1.00  0.00     0.038 A 
BRANCH  11  14
HETATM   14  C19 UNL     1       5.407  24.681  32.985  1.00  0.00    -0.026 A 
HETATM   15  C20 UNL     1       4.894  23.420  33.133  1.00  0.00     0.012 A 
HETATM   16  C21 UNL     1       3.539  23.296  33.377  1.00  0.00     0.001 A 
HETATM   17  C22 UNL     1       2.741  24.421  33.465  1.00  0.00     0.000 A 
HETATM   18  C23 UNL     1       3.264  25.689  33.314  1.00  0.00     0.001 A 
HETATM   19  C24 UNL     1       4.614  25.830  33.070  1.00  0.00     0.012 A 
ENDBRANCH  11  14
ENDBRANCH   7   8
ENDBRANCH   6   7
BRANCH   1  20
HETATM   20  C1  UNL     1      11.341  26.650  34.522  1.00  0.00     0.267 C 
HETATM   21  N1  UNL     1      10.246  26.743  35.404  1.00  0.00    -0.057 NA
HETATM   22  O1  UNL     1      11.755  27.772  34.021  1.00  0.00    -0.271 OA
ENDBRANCH   1  20
BRANCH   4  23
HETATM   23  N2  UNL     1      14.218  21.910  33.300  1.00  0.00    -0.309 N 
HETATM   24  C6  UNL     1      13.983  20.624  33.793  1.00  0.00     0.325 C 
HETATM   25  O2  UNL     1      13.006  20.410  34.542  1.00  0.00    -0.247 OA
HETATM   26  N3  UNL     1      14.884  19.586  33.415  1.00  0.00    -0.309 N 
ATOM     27  H3  UNL     1      15.656  19.852  32.804  1.00  0.00     0.170 HD
ATOM     28  H2  UNL     1      15.033  22.008  32.694  1.00  0.00     0.170 HD
BRANCH  26  29
HETATM   29  C7  UNL     1      14.822  18.245  33.793  1.00  0.00     0.036 A 
HETATM   30  C8  UNL     1      13.783  17.717  34.503  1.00  0.00     0.029 A 
HETATM   31  C9  UNL     1      13.797  16.368  34.868  1.00  0.00     0.002 A 
HETATM   32  C10 UNL     1      14.860  15.572  34.512  1.00  0.00     0.000 A 
HETATM   33  C11 UNL     1      15.911  16.107  33.792  1.00  0.00     0.002 A 
HETATM   34  C12 UNL     1      15.901  17.429  33.431  1.00  0.00     0.029 A 
ENDBRANCH  26  29
ENDBRANCH   4  23
TORSDOF 6
ENDMDL
MODEL 2
REMARK VINA RESULT: -11.199610442      2.222      9.585
REMARK  6 active torsions:
REMARK  status: ('A' for Active; 'I' for Inactive)
REMARK    1  A    between atoms: C1_2  and  C2_4 
REMARK    2  A    between atoms: C5_7  and  N2_8 
REMARK       I    between atoms: N2_8  and  C6_10 
REMARK       I    between atoms: C6_10  and  N3_12 
REMARK    3  A    between atoms: N3_12  and  C7_14 
REMARK    4  A    between atoms: C14_21  and  O3_22 
REMARK    5  A    between atoms: O3_22  and  C15_23 
REMARK    6  A    between atoms: C18_26  and  C19_27 
ROOT
HETATM    1  C2  UNL     1      12.447  24.336  35.914  1.00  0.00     0.063 A 
HETATM    2  C3  UNL     1      11.353  24.959  36.551  1.00  0.00     0.022 A 
HETATM    3  C4  UNL     1      10.230  25.281  35.852  1.00  0.00     0.030 A 
HETATM    4  C5  UNL     1      10.099  25.014  34.470  1.00  0.00     0.039 A 
HETATM    5  C13 UNL     1      11.156  24.410  33.855  1.00  0.00     0.067 A 
HETATM    6  C14 UNL     1      12.329  24.071  34.588  1.00  0.00     0.093 A 
ENDROOT
BRANCH   6   7
HETATM    7  O3  UNL     1      13.333  23.454  33.859  1.00  0.00    -0.310 OA
BRANCH   7   8
HETATM    8  C15 UNL     1      13.572  22.092  33.954  1.00  0.00     0.076 A 
HETATM    9  C16 UNL     1      14.707  21.589  33.303  1.00  0.00     0.038 A 
HETATM   10  C17 UNL     1      14.991  20.236  33.362  1.00  0.00     0.015 A 
HETATM   11  C18 UNL     1      14.168  19.375  34.055  1.00  0.00    -0.026 A 
HETATM   12  C25 UNL     1      13.052  19.856  34.699  1.00  0.00     0.015 A 
HETATM   13  C26 UNL     1      12.765  21.201  34.643  1.00  0.00     0.038 A 
BRANCH  11  14
HETATM   14  C19 UNL     1      14.480  17.954  34.107  1.00  0.00    -0.026 A 
HETATM   15  C20 UNL     1      13.559  17.095  34.643  1.00  0.00     0.012 A 
HETATM   16  C21 UNL     1      13.873  15.749  34.682  1.00  0.00     0.001 A 
HETATM   17  C22 UNL     1      15.085  15.303  34.191  1.00  0.00     0.000 A 
HETATM   18  C23 UNL     1      16.011  16.175  33.654  1.00  0.00     0.001 A 
HETATM   19  C24 UNL     1      15.712  17.520  33.607  1.00  0.00     0.012 A 
ENDBRANCH  11  14
ENDBRANCH   7   8
ENDBRANCH   6   7
BRANCH   1  20
HETATM   20  C1  UNL     1      13.619  24.082  36.701  1.00  0.00     0.267 C 
HETATM   21  N1  UNL     1      14.768  24.886  36.837  1.00  0.00    -0.057 NA
HETATM   22  O1  UNL     1      13.623  22.977  37.380  1.00  0.00    -0.271 OA
ENDBRANCH   1  20
BRANCH   4  23
HETATM   23  N2  UNL     1       8.906  25.386  33.815  1.00  0.00    -0.309 N 
HETATM   24  C6  UNL     1       7.602  24.944  34.053  1.00  0.00     0.325 C 
HETATM   25  O2  UNL     1       7.381  24.106  34.953  1.00  0.00    -0.247 OA
HETATM   26  N3  UNL     1       6.556  25.476  33.245  1.00  0.00    -0.309 N 
ATOM     27  H3  UNL     1       6.829  26.151  32.531  1.00  0.00     0.170 HD
ATOM     28  H2  UNL     1       9.010  26.070  33.065  1.00  0.00     0.170 HD
BRANCH  26  29
HETATM   29  C7  UNL     1       5.198  25.170  33.326  1.00  0.00     0.036 A 
HETATM   30  C8  UNL     1       4.249  26.079  33.695  1.00  0.00     0.029 A 
HETATM   31  C9  UNL     1       2.907  25.697  33.779  1.00  0.00     0.002 A 
HETATM   32  C10 UNL     1       2.542  24.404  33.489  1.00  0.00     0.000 A 
HETATM   33  C11 UNL     1       3.503  23.484  33.114  1.00  0.00     0.002 A 
HETATM   34  C12 UNL     1       4.821  23.854  33.031  1.00  0.00     0.029 A 
ENDBRANCH  26  29
ENDBRANCH   4  23
TORSDOF 6
ENDMDL
MODEL 3
REMARK VINA RESULT: -10.956908949      1.924      2.717
REMARK  6 active torsions:
REMARK  status: ('A' for Active; 'I' for Inactive)
REMARK    1  A    between atoms: C1_2  and  C2_4 
REMARK    2  A    between atoms: C5_7  and  N2_8 
REMARK       I    between atoms: N2_8  and  C6_10 
REMARK       I    between atoms: C6_10  and  N3_12 
REMARK    3  A    between atoms: N3_12  and  C7_14 
REMARK    4  A    between atoms: C14_21  and  O3_22 
REMARK    5  A    between atoms: O3_22  and  C15_23 
REMARK    6  A    between atoms: C18_26  and  C19_27 
ROOT
HETATM    1  C2  UNL     1      13.164  23.663  32.945  1.00  0.00     0.063 A 
HETATM    2  C3  UNL     1      13.890  22.565  32.439  1.00  0.00     0.022 A 
HETATM    3  C4  UNL     1      13.798  21.339  33.023  1.00  0.00     0.030 A 
HETATM    4  C5  UNL     1      12.982  21.101  34.153  1.00  0.00     0.039 A 
HETATM    5  C13 UNL     1      12.278  22.162  34.641  1.00  0.00     0.067 A 
HETATM    6  C14 UNL     1      12.374  23.443  34.027  1.00  0.00     0.093 A 
ENDROOT
BRANCH   6   7
HETATM    7  O3  UNL     1      11.607  24.443  34.606  1.00  0.00    -0.310 OA
BRANCH   7   8
HETATM    8  C15 UNL     1      10.230  24.487  34.451  1.00  0.00     0.076 A 
HETATM    9  C16 UNL     1       9.451  24.523  35.616  1.00  0.00     0.038 A 
HETATM   10  C17 UNL     1       8.071  24.564  35.520  1.00  0.00     0.015 A 
HETATM   11  C18 UNL     1       7.453  24.569  34.288  1.00  0.00    -0.026 A 
HETATM   12  C25 UNL     1       8.205  24.534  33.138  1.00  0.00     0.015 A 
HETATM   13  C26 UNL     1       9.579  24.493  33.228  1.00  0.00     0.038 A 
BRANCH  11  14
HETATM   14  C19 UNL     1       6.000  24.611  34.204  1.00  0.00    -0.026 A 
HETATM   15  C20 UNL     1       5.419  25.290  33.167  1.00  0.00     0.012 A 
HETATM   16  C21 UNL     1       4.038  25.317  33.103  1.00  0.00     0.001 A 
HETATM   17  C22 UNL     1       3.284  24.674  34.066  1.00  0.00     0.000 A 
HETATM   18  C23 UNL     1       3.876  23.993  35.110  1.00  0.00     0.001 A 
HETATM   19  C24 UNL     1       5.252  23.956  35.187  1.00  0.00     0.012 A 
ENDBRANCH  11  14
ENDBRANCH   7   8
ENDBRANCH   6   7
BRANCH   1  20
HETATM   20  C1  UNL     1      13.358  24.937  32.316  1.00  0.00     0.267 C 
HETATM   21  N1  UNL     1      13.613  25.207  30.957  1.00  0.00    -0.057 NA
HETATM   22  O1  UNL     1      13.280  25.975  33.089  1.00  0.00    -0.271 OA
ENDBRANCH   1  20
BRANCH   4  23
HETATM   23  N2  UNL     1      12.946  19.803  34.706  1.00  0.00    -0.309 N 
HETATM   24  C6  UNL     1      13.580  18.642  34.255  1.00  0.00     0.325 C 
HETATM   25  O2  UNL     1      14.292  18.676  33.229  1.00  0.00    -0.247 OA
HETATM   26  N3  UNL     1      13.383  17.440  34.997  1.00  0.00    -0.309 N 
ATOM     27  H3  UNL     1      12.782  17.505  35.818  1.00  0.00     0.170 HD
ATOM     28  H2  UNL     1      12.382  19.698  35.549  1.00  0.00     0.170 HD
BRANCH  26  29
HETATM   29  C7  UNL     1      13.927  16.187  34.718  1.00  0.00     0.036 A 
HETATM   30  C8  UNL     1      15.265  15.972  34.557  1.00  0.00     0.029 A 
HETATM   31  C9  UNL     1      15.739  14.693  34.255  1.00  0.00     0.002 A 
HETATM   32  C10 UNL     1      14.856  13.648  34.120  1.00  0.00     0.000 A 
HETATM   33  C11 UNL     1      13.500  13.865  34.285  1.00  0.00     0.002 A 
HETATM   34  C12 UNL     1      13.032  15.119  34.581  1.00  0.00     0.029 A 
ENDBRANCH  26  29
ENDBRANCH   4  23
TORSDOF 6
ENDMDL
MODEL 4
REMARK VINA RESULT: -10.888417607      1.938      2.571
REMARK  6 active torsions:
REMARK  status: ('A' for Active; 'I' for Inactive)
REMARK    1  A    between atoms: C1_2  and  C2_4 
REMARK    2  A    between atoms: C5_7  and  N2_8 
REMARK       I    between atoms: N2_8  and  C6_10 
REMARK       I    between atoms: C6_10  and  N3_12 
REMARK    3  A    between atoms: N3_12  and  C7_14 
REMARK    4  A    between atoms: C14_21  and  O3_22 
REMARK    5  A    between atoms: O3_22  and  C15_23 
REMARK    6  A    between atoms: C18_26  and  C19_27 
ROOT
HETATM    1  C2  UNL     1      13.218  23.618  32.983  1.00  0.00     0.063 A 
HETATM    2  C3  UNL     1      13.940  22.517  32.478  1.00  0.00     0.022 A 
HETATM    3  C4  UNL     1      13.861  21.297  33.078  1.00  0.00     0.030 A 
HETATM    4  C5  UNL     1      13.063  21.068  34.221  1.00  0.00     0.039 A 
HETATM    5  C13 UNL     1      12.363  22.133  34.708  1.00  0.00     0.067 A 
HETATM    6  C14 UNL     1      12.445  23.407  34.079  1.00  0.00     0.093 A 
ENDROOT
BRANCH   6   7
HETATM    7  O3  UNL     1      11.683  24.410  34.658  1.00  0.00    -0.310 OA
BRANCH   7   8
HETATM    8  C15 UNL     1      10.307  24.467  34.495  1.00  0.00     0.076 A 
HETATM    9  C16 UNL     1       9.523  24.534  35.655  1.00  0.00     0.038 A 
HETATM   10  C17 UNL     1       8.144  24.589  35.550  1.00  0.00     0.015 A 
HETATM   11  C18 UNL     1       7.532  24.577  34.315  1.00  0.00    -0.026 A 
HETATM   12  C25 UNL     1       8.290  24.512  33.170  1.00  0.00     0.015 A 
HETATM   13  C26 UNL     1       9.662  24.458  33.269  1.00  0.00     0.038 A 
BRANCH  11  14
HETATM   14  C19 UNL     1       6.080  24.635  34.223  1.00  0.00    -0.026 A 
HETATM   15  C20 UNL     1       5.332  23.985  35.167  1.00  0.00     0.012 A 
HETATM   16  C21 UNL     1       3.955  24.053  35.062  1.00  0.00     0.001 A 
HETATM   17  C22 UNL     1       3.369  24.759  34.029  1.00  0.00     0.000 A 
HETATM   18  C23 UNL     1       4.129  25.410  33.079  1.00  0.00     0.001 A 
HETATM   19  C24 UNL     1       5.504  25.352  33.170  1.00  0.00     0.012 A 
ENDBRANCH  11  14
ENDBRANCH   7   8
ENDBRANCH   6   7
BRANCH   1  20
HETATM   20  C1  UNL     1      13.398  24.885  32.337  1.00  0.00     0.267 C 
HETATM   21  N1  UNL     1      13.632  25.141  30.972  1.00  0.00    -0.057 NA
HETATM   22  O1  UNL     1      13.328  25.931  33.100  1.00  0.00    -0.271 OA
ENDBRANCH   1  20
BRANCH   4  23
HETATM   23  N2  UNL     1      13.040  19.777  34.789  1.00  0.00    -0.309 N 
HETATM   24  C6  UNL     1      13.571  18.588  34.282  1.00  0.00     0.325 C 
HETATM   25  O2  UNL     1      14.161  18.587  33.180  1.00  0.00    -0.247 OA
HETATM   26  N3  UNL     1      13.414  17.400  35.054  1.00  0.00    -0.309 N 
ATOM     27  H3  UNL     1      12.915  17.494  35.938  1.00  0.00     0.170 HD
ATOM     28  H2  UNL     1      12.573  19.700  35.693  1.00  0.00     0.170 HD
BRANCH  26  29
HETATM   29  C7  UNL     1      13.872  16.124  34.728  1.00  0.00     0.036 A 
HETATM   30  C8  UNL     1      13.041  15.057  34.543  1.00  0.00     0.029 A 
HETATM   31  C9  UNL     1      13.571  13.800  34.242  1.00  0.00     0.002 A 
HETATM   32  C10 UNL     1      14.931  13.636  34.132  1.00  0.00     0.000 A 
HETATM   33  C11 UNL     1      15.773  14.717  34.317  1.00  0.00     0.002 A 
HETATM   34  C12 UNL     1      15.257  15.953  34.613  1.00  0.00     0.029 A 
ENDBRANCH  26  29
ENDBRANCH   4  23
TORSDOF 6
ENDMDL
MODEL 5
REMARK VINA RESULT: -10.132036545      1.208      1.722
REMARK  6 active torsions:
REMARK  status: ('A' for Active; 'I' for Inactive)
REMARK    1  A    between atoms: C1_2  and  C2_4 
REMARK    2  A    between atoms: C5_7  and  N2_8 
REMARK       I    between atoms: N2_8  and  C6_10 
REMARK       I    between atoms: C6_10  and  N3_12 
REMARK    3  A    between atoms: N3_12  and  C7_14 
REMARK    4  A    between atoms: C14_21  and  O3_22 
REMARK    5  A    between atoms: O3_22  and  C15_23 
REMARK    6  A    between atoms: C18_26  and  C19_27 
ROOT
HETATM    1  C2  UNL     1      12.957  24.256  34.002  1.00  0.00     0.063 A 
HETATM    2  C3  UNL     1      13.833  23.594  34.888  1.00  0.00     0.022 A 
HETATM    3  C4  UNL     1      14.320  22.357  34.592  1.00  0.00     0.030 A 
HETATM    4  C5  UNL     1      13.981  21.678  33.400  1.00  0.00     0.039 A 
HETATM    5  C13 UNL     1      13.135  22.319  32.543  1.00  0.00     0.067 A 
HETATM    6  C14 UNL     1      12.629  23.613  32.852  1.00  0.00     0.093 A 
ENDROOT
BRANCH   6   7
HETATM    7  O3  UNL     1      11.786  24.168  31.902  1.00  0.00    -0.310 OA
BRANCH   7   8
HETATM    8  C15 UNL     1      10.439  24.379  32.156  1.00  0.00     0.076 A 
HETATM    9  C16 UNL     1       9.957  25.689  32.030  1.00  0.00     0.038 A 
HETATM   10  C17 UNL     1       8.621  25.957  32.276  1.00  0.00     0.015 A 
HETATM   11  C18 UNL     1       7.759  24.947  32.646  1.00  0.00    -0.026 A 
HETATM   12  C25 UNL     1       8.220  23.658  32.774  1.00  0.00     0.015 A 
HETATM   13  C26 UNL     1       9.547  23.387  32.530  1.00  0.00     0.038 A 
BRANCH  11  14
HETATM   14  C19 UNL     1       6.357  25.246  32.902  1.00  0.00    -0.026 A 
HETATM   15  C20 UNL     1       5.795  24.818  34.075  1.00  0.00     0.012 A 
HETATM   16  C21 UNL     1       4.462  25.113  34.300  1.00  0.00     0.001 A 
HETATM   17  C22 UNL     1       3.737  25.818  33.359  1.00  0.00     0.000 A 
HETATM   18  C23 UNL     1       4.310  26.245  32.178  1.00  0.00     0.001 A 
HETATM   19  C24 UNL     1       5.637  25.959  31.939  1.00  0.00     0.012 A 
ENDBRANCH  11  14
ENDBRANCH   7   8
ENDBRANCH   6   7
BRANCH   1  20
HETATM   20  C1  UNL     1      12.437  25.529  34.407  1.00  0.00     0.267 C 
HETATM   21  N1  UNL     1      11.478  25.801  35.403  1.00  0.00    -0.057 NA
HETATM   22  O1  UNL     1      12.912  26.565  33.788  1.00  0.00    -0.271 OA
ENDBRANCH   1  20
BRANCH   4  23
HETATM   23  N2  UNL     1      14.520  20.394  33.171  1.00  0.00    -0.309 N 
HETATM   24  C6  UNL     1      14.110  19.166  33.694  1.00  0.00     0.325 C 
HETATM   25  O2  UNL     1      13.139  19.114  34.480  1.00  0.00    -0.247 OA
HETATM   26  N3  UNL     1      14.828  17.998  33.305  1.00  0.00    -0.309 N 
ATOM     27  H3  UNL     1      15.609  18.135  32.664  1.00  0.00     0.170 HD
ATOM     28  H2  UNL     1      15.319  20.359  32.537  1.00  0.00     0.170 HD
BRANCH  26  29
HETATM   29  C7  UNL     1      14.575  16.687  33.709  1.00  0.00     0.036 A 
HETATM   30  C8  UNL     1      13.317  16.170  33.824  1.00  0.00     0.029 A 
HETATM   31  C9  UNL     1      13.136  14.855  34.258  1.00  0.00     0.002 A 
HETATM   32  C10 UNL     1      14.227  14.078  34.569  1.00  0.00     0.000 A 
HETATM   33  C11 UNL     1      15.502  14.601  34.450  1.00  0.00     0.002 A 
HETATM   34  C12 UNL     1      15.683  15.892  34.025  1.00  0.00     0.029 A 
ENDBRANCH  26  29
ENDBRANCH   4  23
TORSDOF 6
ENDMDL
