MODEL 1
REMARK VINA RESULT: -10.997927082      0.000      0.000
REMARK  6 active torsions:
REMARK  status: ('A' for Active; 'I' for Inactive)
REMARK    1  A    between atoms: C1_4  and  C2_6 
REMARK    2  A    between atoms: C6_12  and  C7_13 
REMARK    3  A    between atoms: C12_18  and  O1_19 
REMARK    4  A    between atoms: O1_19  and  C13_20 
REMARK    5  A    between atoms: C13_20  and  C14_21 
REMARK    6  A    between atoms: C17_24  and  C18_25 
ROOT
HETATM    1  C7  UNL     1       6.203  24.616  35.135  1.00  0.00     0.041 A 
HETATM    2  C8  UNL     1       5.414  23.756  35.924  1.00  0.00     0.018 A 
HETATM    3  C9  UNL     1       4.080  23.557  35.670  1.00  0.00     0.001 A 
HETATM    4  C10 UNL     1       3.491  24.212  34.619  1.00  0.00     0.003 A 
HETATM    5  C11 UNL     1       4.264  25.053  33.850  1.00  0.00     0.038 A 
HETATM    6  C12 UNL     1       5.628  25.267  34.094  1.00  0.00     0.083 A 
ENDROOT
BRANCH   1   7
HETATM    7  C6  UNL     1       7.606  24.766  35.480  1.00  0.00     0.119 A 
HETATM    8  N3  UNL     1       8.308  25.864  35.738  1.00  0.00    -0.340 N 
HETATM    9  C5  UNL     1       9.618  25.565  36.025  1.00  0.00     0.060 A 
ATOM     10  H3  UNL     1       7.924  26.808  35.725  1.00  0.00     0.167 HD
HETATM   11  C4  UNL     1      10.723  26.322  36.351  1.00  0.00     0.033 A 
HETATM   12  C26 UNL     1       9.716  24.197  35.935  1.00  0.00     0.061 A 
HETATM   13  C3  UNL     1      11.954  25.758  36.598  1.00  0.00     0.017 A 
HETATM   14  C2  UNL     1      12.057  24.377  36.508  1.00  0.00     0.007 A 
HETATM   15  C27 UNL     1      10.948  23.629  36.182  1.00  0.00     0.046 A 
HETATM   16  N4  UNL     1       8.503  23.739  35.608  1.00  0.00    -0.340 N 
ATOM     17  H4  UNL     1       8.275  22.754  35.472  1.00  0.00     0.167 HD
BRANCH  14  18
HETATM   18  C1  UNL     1      13.361  23.766  36.770  1.00  0.00     0.120 C 
HETATM   19  N1  UNL     1      13.576  22.506  36.693  1.00  0.00    -0.387 N 
ATOM     20  H12 UNL     1      14.485  22.080  36.876  1.00  0.00     0.157 HD
ATOM     21  H11 UNL     1      12.779  21.925  36.433  1.00  0.00     0.157 HD
HETATM   22  N2  UNL     1      14.475  24.577  37.133  1.00  0.00    -0.082 NA
ENDBRANCH  14  18
ENDBRANCH   1   7
BRANCH   6  23
HETATM   23  O1  UNL     1       6.337  26.110  33.300  1.00  0.00    -0.346 OA
BRANCH  23  24
HETATM   24  C13 UNL     1       6.879  25.948  32.044  1.00  0.00     0.214 C 
BRANCH  24  25
HETATM   25  C14 UNL     1       8.211  25.295  32.157  1.00  0.00    -0.034 A 
HETATM   26  C15 UNL     1       8.342  23.912  32.184  1.00  0.00     0.010 A 
HETATM   27  C16 UNL     1       9.552  23.272  32.285  1.00  0.00     0.013 A 
HETATM   28  C17 UNL     1      10.715  24.016  32.367  1.00  0.00    -0.026 A 
HETATM   29  C24 UNL     1      10.605  25.392  32.341  1.00  0.00     0.013 A 
HETATM   30  C25 UNL     1       9.388  26.019  32.240  1.00  0.00     0.010 A 
BRANCH  28  31
HETATM   31  C18 UNL     1      11.982  23.327  32.473  1.00  0.00    -0.026 A 
HETATM   32  C19 UNL     1      12.123  22.266  33.333  1.00  0.00     0.012 A 
HETATM   33  C20 UNL     1      13.335  21.594  33.445  1.00  0.00     0.001 A 
HETATM   34  C21 UNL     1      14.391  22.005  32.681  1.00  0.00     0.000 A 
HETATM   35  C22 UNL     1      14.256  23.072  31.814  1.00  0.00     0.001 A 
HETATM   36  C23 UNL     1      13.047  23.727  31.716  1.00  0.00     0.012 A 
ENDBRANCH  28  31
ENDBRANCH  24  25
ENDBRANCH  23  24
ENDBRANCH   6  23
TORSDOF 6
ENDMDL
MODEL 2
REMARK VINA RESULT: -10.913766451      2.488      6.543
REMARK  6 active torsions:
REMARK  status: ('A' for Active; 'I' for Inactive)
REMARK    1  A    between atoms: C1_4  and  C2_6 
REMARK    2  A    between atoms: C6_12  and  C7_13 
REMARK    3  A    between atoms: C12_18  and  O1_19 
REMARK    4  A    between atoms: O1_19  and  C13_20 
REMARK    5  A    between atoms: C13_20  and  C14_21 
REMARK    6  A    between atoms: C17_24  and  C18_25 
ROOT
HETATM    1  C7  UNL     1      11.816  24.331  35.072  1.00  0.00     0.041 A 
HETATM    2  C8  UNL     1      11.397  24.341  36.417  1.00  0.00     0.018 A 
HETATM    3  C9  UNL     1      10.719  25.404  36.959  1.00  0.00     0.001 A 
HETATM    4  C10 UNL     1      10.436  26.492  36.174  1.00  0.00     0.003 A 
HETATM    5  C11 UNL     1      10.848  26.481  34.859  1.00  0.00     0.038 A 
HETATM    6  C12 UNL     1      11.541  25.404  34.289  1.00  0.00     0.083 A 
ENDROOT
BRANCH   1   7
HETATM    7  C6  UNL     1      12.530  23.164  34.587  1.00  0.00     0.119 A 
HETATM    8  N3  UNL     1      13.417  23.054  33.604  1.00  0.00    -0.340 N 
HETATM    9  C5  UNL     1      13.857  21.759  33.469  1.00  0.00     0.060 A 
ATOM     10  H3  UNL     1      13.731  23.831  33.024  1.00  0.00     0.167 HD
HETATM   11  C4  UNL     1      14.752  21.136  32.625  1.00  0.00     0.033 A 
HETATM   12  C26 UNL     1      13.195  21.037  34.432  1.00  0.00     0.061 A 
HETATM   13  C3  UNL     1      15.021  19.788  32.702  1.00  0.00     0.017 A 
HETATM   14  C2  UNL     1      14.353  19.056  33.675  1.00  0.00     0.007 A 
HETATM   15  C27 UNL     1      13.461  19.687  34.513  1.00  0.00     0.046 A 
HETATM   16  N4  UNL     1      12.406  21.895  35.089  1.00  0.00    -0.340 N 
ATOM     17  H4  UNL     1      11.793  21.638  35.863  1.00  0.00     0.167 HD
BRANCH  14  18
HETATM   18  C1  UNL     1      14.631  17.622  33.768  1.00  0.00     0.120 C 
HETATM   19  N1  UNL     1      15.656  17.068  33.237  1.00  0.00    -0.387 N 
ATOM     20  H12 UNL     1      15.849  16.069  33.302  1.00  0.00     0.157 HD
ATOM     21  H11 UNL     1      16.293  17.683  32.732  1.00  0.00     0.157 HD
HETATM   22  N2  UNL     1      13.740  16.762  34.473  1.00  0.00    -0.082 NA
ENDBRANCH  14  18
ENDBRANCH   1   7
BRANCH   6  23
HETATM   23  O1  UNL     1      11.922  25.452  32.986  1.00  0.00    -0.346 OA
BRANCH  23  24
HETATM   24  C13 UNL     1      11.238  25.184  31.822  1.00  0.00     0.214 C 
BRANCH  24  25
HETATM   25  C14 UNL     1       9.783  25.080  32.110  1.00  0.00    -0.034 A 
HETATM   26  C15 UNL     1       9.222  23.911  32.609  1.00  0.00     0.010 A 
HETATM   27  C16 UNL     1       7.885  23.776  32.889  1.00  0.00     0.013 A 
HETATM   28  C17 UNL     1       7.030  24.842  32.673  1.00  0.00    -0.026 A 
HETATM   29  C24 UNL     1       7.569  26.012  32.177  1.00  0.00     0.013 A 
HETATM   30  C25 UNL     1       8.908  26.133  31.901  1.00  0.00     0.010 A 
BRANCH  28  31
HETATM   31  C18 UNL     1       5.624  24.685  32.974  1.00  0.00    -0.026 A 
HETATM   32  C19 UNL     1       4.815  25.788  33.095  1.00  0.00     0.012 A 
HETATM   33  C20 UNL     1       3.462  25.653  33.383  1.00  0.00     0.001 A 
HETATM   34  C21 UNL     1       2.943  24.399  33.544  1.00  0.00     0.000 A 
HETATM   35  C22 UNL     1       3.751  23.285  33.423  1.00  0.00     0.001 A 
HETATM   36  C23 UNL     1       5.091  23.437  33.137  1.00  0.00     0.012 A 
ENDBRANCH  28  31
ENDBRANCH  24  25
ENDBRANCH  23  24
ENDBRANCH   6  23
TORSDOF 6
ENDMDL
MODEL 3
REMARK VINA RESULT: -10.879357979      3.511      7.471
REMARK  6 active torsions:
REMARK  status: ('A' for Active; 'I' for Inactive)
REMARK    1  A    between atoms: C1_4  and  C2_6 
REMARK    2  A    between atoms: C6_12  and  C7_13 
REMARK    3  A    between atoms: C12_18  and  O1_19 
REMARK    4  A    between atoms: O1_19  and  C13_20 
REMARK    5  A    between atoms: C13_20  and  C14_21 
REMARK    6  A    between atoms: C17_24  and  C18_25 
ROOT
HETATM    1  C7  UNL     1      13.588  22.598  34.858  1.00  0.00     0.041 A 
HETATM    2  C8  UNL     1      13.250  22.880  36.196  1.00  0.00     0.018 A 
HETATM    3  C9  UNL     1      12.939  24.150  36.615  1.00  0.00     0.001 A 
HETATM    4  C10 UNL     1      12.956  25.179  35.709  1.00  0.00     0.003 A 
HETATM    5  C11 UNL     1      13.288  24.901  34.402  1.00  0.00     0.038 A 
HETATM    6  C12 UNL     1      13.607  23.611  33.956  1.00  0.00     0.083 A 
ENDROOT
BRANCH   1   7
HETATM    7  C6  UNL     1      13.904  21.225  34.508  1.00  0.00     0.119 A 
HETATM    8  N3  UNL     1      14.678  20.748  33.539  1.00  0.00    -0.340 N 
HETATM    9  C5  UNL     1      14.710  19.374  33.552  1.00  0.00     0.060 A 
ATOM     10  H3  UNL     1      15.185  21.328  32.870  1.00  0.00     0.167 HD
HETATM   11  C4  UNL     1      15.345  18.425  32.781  1.00  0.00     0.033 A 
HETATM   12  C26 UNL     1      13.903  18.993  34.597  1.00  0.00     0.061 A 
HETATM   13  C3  UNL     1      15.206  17.075  33.013  1.00  0.00     0.017 A 
HETATM   14  C2  UNL     1      14.391  16.687  34.068  1.00  0.00     0.007 A 
HETATM   15  C27 UNL     1      13.761  17.642  34.833  1.00  0.00     0.046 A 
HETATM   16  N4  UNL     1      13.431  20.114  35.155  1.00  0.00    -0.340 N 
ATOM     17  H4  UNL     1      12.801  20.138  35.957  1.00  0.00     0.167 HD
BRANCH  14  18
HETATM   18  C1  UNL     1      14.235  15.254  34.326  1.00  0.00     0.120 C 
HETATM   19  N1  UNL     1      15.209  14.423  34.294  1.00  0.00    -0.387 N 
ATOM     20  H12 UNL     1      15.100  13.425  34.473  1.00  0.00     0.157 HD
ATOM     21  H11 UNL     1      16.128  14.810  34.077  1.00  0.00     0.157 HD
HETATM   22  N2  UNL     1      12.952  14.714  34.629  1.00  0.00    -0.082 NA
ENDBRANCH  14  18
ENDBRANCH   1   7
BRANCH   6  23
HETATM   23  O1  UNL     1      13.928  23.400  32.653  1.00  0.00    -0.346 OA
BRANCH  23  24
HETATM   24  C13 UNL     1      13.163  23.414  31.508  1.00  0.00     0.214 C 
BRANCH  24  25
HETATM   25  C14 UNL     1      11.770  23.813  31.843  1.00  0.00    -0.034 A 
HETATM   26  C15 UNL     1      10.832  22.885  32.275  1.00  0.00     0.010 A 
HETATM   27  C16 UNL     1       9.538  23.213  32.595  1.00  0.00     0.013 A 
HETATM   28  C17 UNL     1       9.121  24.528  32.491  1.00  0.00    -0.026 A 
HETATM   29  C24 UNL     1      10.039  25.466  32.064  1.00  0.00     0.013 A 
HETATM   30  C25 UNL     1      11.330  25.122  31.747  1.00  0.00     0.010 A 
BRANCH  28  31
HETATM   31  C18 UNL     1       7.755  24.859  32.832  1.00  0.00    -0.026 A 
HETATM   32  C19 UNL     1       6.907  25.367  31.879  1.00  0.00     0.012 A 
HETATM   33  C20 UNL     1       5.592  25.690  32.192  1.00  0.00     0.001 A 
HETATM   34  C21 UNL     1       5.149  25.492  33.470  1.00  0.00     0.000 A 
HETATM   35  C22 UNL     1       5.997  24.982  34.434  1.00  0.00     0.001 A 
HETATM   36  C23 UNL     1       7.299  24.668  34.106  1.00  0.00     0.012 A 
ENDBRANCH  28  31
ENDBRANCH  24  25
ENDBRANCH  23  24
ENDBRANCH   6  23
TORSDOF 6
ENDMDL
MODEL 4
REMARK VINA RESULT: -10.621513775      3.251      7.524
REMARK  6 active torsions:
REMARK  status: ('A' for Active; 'I' for Inactive)
REMARK    1  A    between atoms: C1_4  and  C2_6 
REMARK    2  A    between atoms: C6_12  and  C7_13 
REMARK    3  A    between atoms: C12_18  and  O1_19 
REMARK    4  A    between atoms: O1_19  and  C13_20 
REMARK    5  A    between atoms: C13_20  and  C14_21 
REMARK    6  A    between atoms: C17_24  and  C18_25 
ROOT
HETATM    1  C7  UNL     1      13.400  23.084  33.324  1.00  0.00     0.041 A 
HETATM    2  C8  UNL     1      13.494  23.264  31.931  1.00  0.00     0.018 A 
HETATM    3  C9  UNL     1      13.444  24.508  31.353  1.00  0.00     0.001 A 
HETATM    4  C10 UNL     1      13.299  25.614  32.152  1.00  0.00     0.003 A 
HETATM    5  C11 UNL     1      13.207  25.435  33.514  1.00  0.00     0.038 A 
HETATM    6  C12 UNL     1      13.256  24.172  34.121  1.00  0.00     0.083 A 
ENDROOT
BRANCH   1   7
HETATM    7  C6  UNL     1      13.461  21.729  33.845  1.00  0.00     0.119 A 
HETATM    8  N3  UNL     1      12.964  21.225  34.969  1.00  0.00    -0.340 N 
HETATM    9  C5  UNL     1      13.246  19.885  35.084  1.00  0.00     0.060 A 
ATOM     10  H3  UNL     1      12.441  21.764  35.659  1.00  0.00     0.167 HD
HETATM   11  C4  UNL     1      12.963  18.926  36.034  1.00  0.00     0.033 A 
HETATM   12  C26 UNL     1      13.959  19.556  33.956  1.00  0.00     0.061 A 
HETATM   13  C3  UNL     1      13.372  17.618  35.903  1.00  0.00     0.017 A 
HETATM   14  C2  UNL     1      14.093  17.282  34.765  1.00  0.00     0.007 A 
HETATM   15  C27 UNL     1      14.370  18.246  33.822  1.00  0.00     0.046 A 
HETATM   16  N4  UNL     1      14.077  20.672  33.229  1.00  0.00    -0.340 N 
ATOM     17  H4  UNL     1      14.561  20.729  32.334  1.00  0.00     0.167 HD
BRANCH  14  18
HETATM   18  C1  UNL     1      14.533  15.894  34.614  1.00  0.00     0.120 C 
HETATM   19  N1  UNL     1      15.695  15.567  34.189  1.00  0.00    -0.387 N 
ATOM     20  H12 UNL     1      16.002  14.600  34.084  1.00  0.00     0.157 HD
ATOM     21  H11 UNL     1      16.324  16.334  33.952  1.00  0.00     0.157 HD
HETATM   22  N2  UNL     1      13.655  14.822  34.945  1.00  0.00    -0.082 NA
ENDBRANCH  14  18
ENDBRANCH   1   7
BRANCH   6  23
HETATM   23  O1  UNL     1      13.159  24.061  35.470  1.00  0.00    -0.346 OA
BRANCH  23  24
HETATM   24  C13 UNL     1      12.480  24.811  36.405  1.00  0.00     0.214 C 
BRANCH  24  25
HETATM   25  C14 UNL     1      11.025  24.795  36.095  1.00  0.00    -0.034 A 
HETATM   26  C15 UNL     1      10.350  23.608  35.841  1.00  0.00     0.010 A 
HETATM   27  C16 UNL     1       9.008  23.551  35.553  1.00  0.00     0.013 A 
HETATM   28  C17 UNL     1       8.269  24.718  35.508  1.00  0.00    -0.026 A 
HETATM   29  C24 UNL     1       8.922  25.908  35.758  1.00  0.00     0.013 A 
HETATM   30  C25 UNL     1      10.264  25.950  36.044  1.00  0.00     0.010 A 
BRANCH  28  31
HETATM   31  C18 UNL     1       6.856  24.642  35.204  1.00  0.00    -0.026 A 
HETATM   32  C19 UNL     1       6.025  23.860  35.968  1.00  0.00     0.012 A 
HETATM   33  C20 UNL     1       4.666  23.778  35.688  1.00  0.00     0.001 A 
HETATM   34  C21 UNL     1       4.163  24.491  34.636  1.00  0.00     0.000 A 
HETATM   35  C22 UNL     1       4.994  25.279  33.864  1.00  0.00     0.001 A 
HETATM   36  C23 UNL     1       6.339  25.350  34.155  1.00  0.00     0.012 A 
ENDBRANCH  28  31
ENDBRANCH  24  25
ENDBRANCH  23  24
ENDBRANCH   6  23
TORSDOF 6
ENDMDL
MODEL 5
REMARK VINA RESULT: -10.426648779      2.831      6.538
REMARK  6 active torsions:
REMARK  status: ('A' for Active; 'I' for Inactive)
REMARK    1  A    between atoms: C1_4  and  C2_6 
REMARK    2  A    between atoms: C6_12  and  C7_13 
REMARK    3  A    between atoms: C12_18  and  O1_19 
REMARK    4  A    between atoms: O1_19  and  C13_20 
REMARK    5  A    between atoms: C13_20  and  C14_21 
REMARK    6  A    between atoms: C17_24  and  C18_25 
ROOT
HETATM    1  C7  UNL     1      11.375  24.728  35.199  1.00  0.00     0.041 A 
HETATM    2  C8  UNL     1      11.417  24.525  36.593  1.00  0.00     0.018 A 
HETATM    3  C9  UNL     1      12.598  24.337  37.265  1.00  0.00     0.001 A 
HETATM    4  C10 UNL     1      13.778  24.346  36.566  1.00  0.00     0.003 A 
HETATM    5  C11 UNL     1      13.734  24.542  35.203  1.00  0.00     0.038 A 
HETATM    6  C12 UNL     1      12.537  24.737  34.500  1.00  0.00     0.083 A 
ENDROOT
BRANCH   1   7
HETATM    7  C6  UNL     1      10.078  24.916  34.574  1.00  0.00     0.119 A 
HETATM    8  N3  UNL     1       9.775  25.300  33.338  1.00  0.00    -0.340 N 
HETATM    9  C5  UNL     1       8.415  25.351  33.149  1.00  0.00     0.060 A 
ATOM     10  H3  UNL     1      10.464  25.528  32.622  1.00  0.00     0.167 HD
HETATM   11  C4  UNL     1       7.609  25.679  32.079  1.00  0.00     0.033 A 
HETATM   12  C26 UNL     1       7.857  24.973  34.347  1.00  0.00     0.061 A 
HETATM   13  C3  UNL     1       6.235  25.646  32.156  1.00  0.00     0.017 A 
HETATM   14  C2  UNL     1       5.669  25.265  33.365  1.00  0.00     0.007 A 
HETATM   15  C27 UNL     1       6.481  24.938  34.427  1.00  0.00     0.046 A 
HETATM   16  N4  UNL     1       8.868  24.718  35.185  1.00  0.00    -0.340 N 
ATOM     17  H4  UNL     1       8.753  24.415  36.152  1.00  0.00     0.167 HD
BRANCH  14  18
HETATM   18  C1  UNL     1       4.209  25.225  33.458  1.00  0.00     0.120 C 
HETATM   19  N1  UNL     1       3.507  24.220  33.087  1.00  0.00    -0.387 N 
ATOM     20  H12 UNL     1       2.489  24.193  33.152  1.00  0.00     0.157 HD
ATOM     21  H11 UNL     1       4.020  23.422  32.713  1.00  0.00     0.157 HD
HETATM   22  N2  UNL     1       3.491  26.340  33.980  1.00  0.00    -0.082 NA
ENDBRANCH  14  18
ENDBRANCH   1   7
BRANCH   6  23
HETATM   23  O1  UNL     1      12.560  24.925  33.156  1.00  0.00    -0.346 OA
BRANCH  23  24
HETATM   24  C13 UNL     1      12.563  24.034  32.106  1.00  0.00     0.214 C 
BRANCH  24  25
HETATM   25  C14 UNL     1      13.063  22.714  32.574  1.00  0.00    -0.034 A 
HETATM   26  C15 UNL     1      12.309  21.911  33.420  1.00  0.00     0.010 A 
HETATM   27  C16 UNL     1      12.733  20.686  33.873  1.00  0.00     0.013 A 
HETATM   28  C17 UNL     1      13.969  20.204  33.482  1.00  0.00    -0.026 A 
HETATM   29  C24 UNL     1      14.733  20.987  32.641  1.00  0.00     0.013 A 
HETATM   30  C25 UNL     1      14.296  22.210  32.196  1.00  0.00     0.010 A 
BRANCH  28  31
HETATM   31  C18 UNL     1      14.402  18.911  33.967  1.00  0.00    -0.026 A 
HETATM   32  C19 UNL     1      13.949  18.437  35.173  1.00  0.00     0.012 A 
HETATM   33  C20 UNL     1      14.357  17.197  35.651  1.00  0.00     0.001 A 
HETATM   34  C21 UNL     1      15.219  16.450  34.899  1.00  0.00     0.000 A 
HETATM   35  C22 UNL     1      15.679  16.921  33.684  1.00  0.00     0.001 A 
HETATM   36  C23 UNL     1      15.265  18.153  33.226  1.00  0.00     0.012 A 
ENDBRANCH  28  31
ENDBRANCH  24  25
ENDBRANCH  23  24
ENDBRANCH   6  23
TORSDOF 6
ENDMDL
