MODEL 1
REMARK VINA RESULT: -3.084838220      0.000      0.000
REMARK  5 active torsions:
REMARK  status: ('A' for Active; 'I' for Inactive)
REMARK    1  A    between atoms: C1_4  and  C2_6 
REMARK    2  A    between atoms: C5_9  and  N3_10 
REMARK    3  A    between atoms: C6_11  and  C7_12 
REMARK    4  A    between atoms: C7_12  and  C8_13 
REMARK    5  A    between atoms: C12_21  and  C13_22 
ROOT
HETATM    1  N3  UNL     1      12.923  22.703  33.759  1.00  0.00    -0.314 N 
HETATM    2  C6  UNL     1      13.864  23.244  32.971  1.00  0.00     0.024 A 
HETATM    3  C11 UNL     1      14.709  22.211  32.569  1.00  0.00     0.040 A 
HETATM    4  C12 UNL     1      14.263  21.036  33.127  1.00  0.00     0.004 A 
HETATM    5  C19 UNL     1      13.152  21.374  33.861  1.00  0.00     0.061 A 
HETATM    6  C20 UNL     1      12.341  20.458  34.630  1.00  0.00    -0.008 A 
HETATM    7  C21 UNL     1      12.884  19.782  35.704  1.00  0.00     0.014 A 
HETATM    8  C22 UNL     1      12.111  18.908  36.438  1.00  0.00     0.001 A 
HETATM    9  C23 UNL     1      10.772  18.676  36.125  1.00  0.00     0.000 A 
HETATM   10  C24 UNL     1      10.249  19.361  35.048  1.00  0.00     0.001 A 
HETATM   11  C25 UNL     1      11.018  20.241  34.307  1.00  0.00     0.014 A 
ENDROOT
BRANCH   1  12
HETATM   12  C5  UNL     1      11.850  23.439  34.380  1.00  0.00     0.040 A 
HETATM   13  C4  UNL     1      10.728  23.764  33.652  1.00  0.00     0.031 A 
HETATM   14  C3  UNL     1       9.686  24.467  34.206  1.00  0.00     0.017 A 
HETATM   15  C2  UNL     1       9.719  24.887  35.544  1.00  0.00     0.005 A 
HETATM   16  C27 UNL     1      10.842  24.561  36.275  1.00  0.00     0.017 A 
HETATM   17  C26 UNL     1      11.883  23.849  35.691  1.00  0.00     0.031 A 
BRANCH  15  18
HETATM   18  C1  UNL     1       8.604  25.630  36.109  1.00  0.00     0.120 C 
HETATM   19  N1  UNL     1       8.750  26.645  36.829  1.00  0.00    -0.387 N 
ATOM     20  H12 UNL     1       7.968  27.166  37.225  1.00  0.00     0.157 HD
ATOM     21  H11 UNL     1       9.698  26.966  37.030  1.00  0.00     0.157 HD
HETATM   22  N2  UNL     1       7.280  25.180  35.828  1.00  0.00    -0.082 NA
ENDBRANCH  15  18
ENDBRANCH   1  12
BRANCH   2  23
HETATM   23  C7  UNL     1      14.002  24.689  32.586  1.00  0.00     0.116 C 
BRANCH  23  24
HETATM   24  C8  UNL     1      13.489  24.814  31.196  1.00  0.00     0.031 A 
HETATM   25  C9  UNL     1      12.489  24.135  30.557  1.00  0.00     0.114 A 
HETATM   26  N4  UNL     1      12.406  24.616  29.304  1.00  0.00    -0.360 N 
HETATM   27  C10 UNL     1      13.316  25.573  29.129  1.00  0.00     0.180 A 
ATOM     28  H4  UNL     1      11.746  24.297  28.595  1.00  0.00     0.166 HD
HETATM   29  N5  UNL     1      13.986  25.701  30.286  1.00  0.00    -0.354 N 
ATOM     30  H5  UNL     1      14.747  26.359  30.458  1.00  0.00     0.166 HD
ENDBRANCH  23  24
ENDBRANCH   2  23
BRANCH   4  31
HETATM   31  C13 UNL     1      14.883  19.728  32.941  1.00  0.00    -0.024 A 
HETATM   32  C14 UNL     1      14.848  19.023  31.770  1.00  0.00     0.012 A 
HETATM   33  C15 UNL     1      15.466  17.797  31.696  1.00  0.00     0.001 A 
HETATM   34  C16 UNL     1      16.135  17.221  32.758  1.00  0.00     0.000 A 
HETATM   35  C17 UNL     1      16.165  17.939  33.936  1.00  0.00     0.001 A 
HETATM   36  C18 UNL     1      15.545  19.171  34.014  1.00  0.00     0.012 A 
ENDBRANCH   4  31
TORSDOF 5
ENDMDL
MODEL 2
REMARK VINA RESULT: -1.969687958      2.803      5.164
REMARK  5 active torsions:
REMARK  status: ('A' for Active; 'I' for Inactive)
REMARK    1  A    between atoms: C1_4  and  C2_6 
REMARK    2  A    between atoms: C5_9  and  N3_10 
REMARK    3  A    between atoms: C6_11  and  C7_12 
REMARK    4  A    between atoms: C7_12  and  C8_13 
REMARK    5  A    between atoms: C12_21  and  C13_22 
ROOT
HETATM    1  N3  UNL     1      10.559  24.389  33.777  1.00  0.00    -0.314 N 
HETATM    2  C6  UNL     1       9.705  23.781  32.939  1.00  0.00     0.024 A 
HETATM    3  C11 UNL     1       9.968  22.414  33.004  1.00  0.00     0.040 A 
HETATM    4  C12 UNL     1      10.994  22.205  33.895  1.00  0.00     0.004 A 
HETATM    5  C19 UNL     1      11.340  23.451  34.358  1.00  0.00     0.061 A 
HETATM    6  C20 UNL     1      12.381  23.731  35.321  1.00  0.00    -0.008 A 
HETATM    7  C21 UNL     1      13.698  23.440  35.026  1.00  0.00     0.014 A 
HETATM    8  C22 UNL     1      14.691  23.707  35.945  1.00  0.00     0.001 A 
HETATM    9  C23 UNL     1      14.404  24.272  37.187  1.00  0.00     0.000 A 
HETATM   10  C24 UNL     1      13.083  24.555  37.462  1.00  0.00     0.001 A 
HETATM   11  C25 UNL     1      12.080  24.291  36.545  1.00  0.00     0.014 A 
ENDROOT
BRANCH   1  12
HETATM   12  C5  UNL     1      10.611  25.812  34.005  1.00  0.00     0.040 A 
HETATM   13  C4  UNL     1      11.774  26.505  33.755  1.00  0.00     0.031 A 
HETATM   14  C3  UNL     1      11.866  27.860  33.963  1.00  0.00     0.017 A 
HETATM   15  C2  UNL     1      10.775  28.600  34.443  1.00  0.00     0.005 A 
HETATM   16  C27 UNL     1       9.610  27.907  34.694  1.00  0.00     0.017 A 
HETATM   17  C26 UNL     1       9.542  26.535  34.475  1.00  0.00     0.031 A 
BRANCH  15  18
HETATM   18  C1  UNL     1      10.896  30.033  34.655  1.00  0.00     0.120 C 
HETATM   19  N1  UNL     1      10.017  30.856  34.306  1.00  0.00    -0.387 N 
ATOM     20  H12 UNL     1      10.102  31.861  34.456  1.00  0.00     0.157 HD
ATOM     21  H11 UNL     1       9.175  30.503  33.849  1.00  0.00     0.157 HD
HETATM   22  N2  UNL     1      12.073  30.526  35.294  1.00  0.00    -0.082 NA
ENDBRANCH  15  18
ENDBRANCH   1  12
BRANCH   2  23
HETATM   23  C7  UNL     1       8.659  24.433  32.081  1.00  0.00     0.116 C 
BRANCH  23  24
HETATM   24  C8  UNL     1       7.360  24.260  32.783  1.00  0.00     0.031 A 
HETATM   25  C9  UNL     1       7.003  24.551  34.071  1.00  0.00     0.114 A 
HETATM   26  N4  UNL     1       5.711  24.213  34.222  1.00  0.00    -0.360 N 
HETATM   27  C10 UNL     1       5.238  23.720  33.078  1.00  0.00     0.180 A 
ATOM     28  H4  UNL     1       5.174  24.318  35.082  1.00  0.00     0.166 HD
HETATM   29  N5  UNL     1       6.244  23.746  32.188  1.00  0.00    -0.354 N 
ATOM     30  H5  UNL     1       6.184  23.430  31.220  1.00  0.00     0.166 HD
ENDBRANCH  23  24
ENDBRANCH   2  23
BRANCH   4  31
HETATM   31  C13 UNL     1      11.558  20.904  34.237  1.00  0.00    -0.024 A 
HETATM   32  C14 UNL     1      10.861  19.907  34.862  1.00  0.00     0.012 A 
HETATM   33  C15 UNL     1      11.484  18.714  35.141  1.00  0.00     0.001 A 
HETATM   34  C16 UNL     1      12.802  18.454  34.821  1.00  0.00     0.000 A 
HETATM   35  C17 UNL     1      13.499  19.466  34.192  1.00  0.00     0.001 A 
HETATM   36  C18 UNL     1      12.876  20.666  33.910  1.00  0.00     0.012 A 
ENDBRANCH   4  31
TORSDOF 5
ENDMDL
MODEL 3
REMARK VINA RESULT: -1.581141520      0.936      1.041
REMARK  5 active torsions:
REMARK  status: ('A' for Active; 'I' for Inactive)
REMARK    1  A    between atoms: C1_4  and  C2_6 
REMARK    2  A    between atoms: C5_9  and  N3_10 
REMARK    3  A    between atoms: C6_11  and  C7_12 
REMARK    4  A    between atoms: C7_12  and  C8_13 
REMARK    5  A    between atoms: C12_21  and  C13_22 
ROOT
HETATM    1  N3  UNL     1      13.068  22.422  33.877  1.00  0.00    -0.314 N 
HETATM    2  C6  UNL     1      14.005  22.933  33.065  1.00  0.00     0.024 A 
HETATM    3  C11 UNL     1      14.826  21.880  32.668  1.00  0.00     0.040 A 
HETATM    4  C12 UNL     1      14.370  20.722  33.253  1.00  0.00     0.004 A 
HETATM    5  C19 UNL     1      13.277  21.091  33.998  1.00  0.00     0.061 A 
HETATM    6  C20 UNL     1      12.463  20.202  34.796  1.00  0.00    -0.008 A 
HETATM    7  C21 UNL     1      13.012  19.536  35.873  1.00  0.00     0.014 A 
HETATM    8  C22 UNL     1      12.237  18.687  36.634  1.00  0.00     0.001 A 
HETATM    9  C23 UNL     1      10.890  18.473  36.346  1.00  0.00     0.000 A 
HETATM   10  C24 UNL     1      10.360  19.147  35.266  1.00  0.00     0.001 A 
HETATM   11  C25 UNL     1      11.132  20.002  34.497  1.00  0.00     0.014 A 
ENDROOT
BRANCH   1  12
HETATM   12  C5  UNL     1      12.017  23.186  34.502  1.00  0.00     0.040 A 
HETATM   13  C4  UNL     1      10.738  23.138  33.996  1.00  0.00     0.031 A 
HETATM   14  C3  UNL     1       9.710  23.853  34.561  1.00  0.00     0.017 A 
HETATM   15  C2  UNL     1       9.920  24.669  35.682  1.00  0.00     0.005 A 
HETATM   16  C27 UNL     1      11.200  24.718  36.191  1.00  0.00     0.017 A 
HETATM   17  C26 UNL     1      12.223  23.984  35.601  1.00  0.00     0.031 A 
BRANCH  15  18
HETATM   18  C1  UNL     1       8.816  25.417  36.263  1.00  0.00     0.120 C 
HETATM   19  N1  UNL     1       8.978  26.414  37.005  1.00  0.00    -0.387 N 
ATOM     20  H12 UNL     1       8.203  26.939  37.412  1.00  0.00     0.157 HD
ATOM     21  H11 UNL     1       9.930  26.715  37.214  1.00  0.00     0.157 HD
HETATM   22  N2  UNL     1       7.485  24.996  35.971  1.00  0.00    -0.082 NA
ENDBRANCH  15  18
ENDBRANCH   1  12
BRANCH   2  23
HETATM   23  C7  UNL     1      14.160  24.369  32.653  1.00  0.00     0.116 C 
BRANCH  23  24
HETATM   24  C8  UNL     1      12.840  24.813  32.135  1.00  0.00     0.031 A 
HETATM   25  C9  UNL     1      12.128  24.390  31.046  1.00  0.00     0.114 A 
HETATM   26  N4  UNL     1      10.988  25.102  31.004  1.00  0.00    -0.360 N 
HETATM   27  C10 UNL     1      10.953  25.956  32.024  1.00  0.00     0.180 A 
ATOM     28  H4  UNL     1      10.260  25.001  30.297  1.00  0.00     0.166 HD
HETATM   29  N5  UNL     1      12.086  25.786  32.725  1.00  0.00    -0.354 N 
ATOM     30  H5  UNL     1      12.344  26.303  33.566  1.00  0.00     0.166 HD
ENDBRANCH  23  24
ENDBRANCH   2  23
BRANCH   4  31
HETATM   31  C13 UNL     1      14.965  19.402  33.081  1.00  0.00    -0.024 A 
HETATM   32  C14 UNL     1      14.901  18.677  31.922  1.00  0.00     0.012 A 
HETATM   33  C15 UNL     1      15.497  17.440  31.860  1.00  0.00     0.001 A 
HETATM   34  C16 UNL     1      16.174  16.871  32.921  1.00  0.00     0.000 A 
HETATM   35  C17 UNL     1      16.234  17.608  34.086  1.00  0.00     0.001 A 
HETATM   36  C18 UNL     1      15.636  18.852  34.152  1.00  0.00     0.012 A 
ENDBRANCH   4  31
TORSDOF 5
ENDMDL
MODEL 4
REMARK VINA RESULT: -1.360529910      1.278      1.829
REMARK  5 active torsions:
REMARK  status: ('A' for Active; 'I' for Inactive)
REMARK    1  A    between atoms: C1_4  and  C2_6 
REMARK    2  A    between atoms: C5_9  and  N3_10 
REMARK    3  A    between atoms: C6_11  and  C7_12 
REMARK    4  A    between atoms: C7_12  and  C8_13 
REMARK    5  A    between atoms: C12_21  and  C13_22 
ROOT
HETATM    1  N3  UNL     1      12.627  22.202  33.235  1.00  0.00    -0.314 N 
HETATM    2  C6  UNL     1      13.508  22.678  32.343  1.00  0.00     0.024 A 
HETATM    3  C11 UNL     1      14.472  21.690  32.149  1.00  0.00     0.040 A 
HETATM    4  C12 UNL     1      14.158  20.609  32.938  1.00  0.00     0.004 A 
HETATM    5  C19 UNL     1      13.007  20.957  33.601  1.00  0.00     0.061 A 
HETATM    6  C20 UNL     1      12.299  20.128  34.549  1.00  0.00    -0.008 A 
HETATM    7  C21 UNL     1      12.903  19.752  35.732  1.00  0.00     0.014 A 
HETATM    8  C22 UNL     1      12.228  18.961  36.636  1.00  0.00     0.001 A 
HETATM    9  C23 UNL     1      10.929  18.517  36.393  1.00  0.00     0.000 A 
HETATM   10  C24 UNL     1      10.343  18.904  35.206  1.00  0.00     0.001 A 
HETATM   11  C25 UNL     1      11.013  19.699  34.292  1.00  0.00     0.014 A 
ENDROOT
BRANCH   1  12
HETATM   12  C5  UNL     1      11.468  22.919  33.707  1.00  0.00     0.040 A 
HETATM   13  C4  UNL     1      10.459  23.248  32.830  1.00  0.00     0.031 A 
HETATM   14  C3  UNL     1       9.341  23.933  33.239  1.00  0.00     0.017 A 
HETATM   15  C2  UNL     1       9.178  24.331  34.574  1.00  0.00     0.005 A 
HETATM   16  C27 UNL     1      10.187  24.002  35.454  1.00  0.00     0.017 A 
HETATM   17  C26 UNL     1      11.309  23.307  35.015  1.00  0.00     0.031 A 
BRANCH  15  18
HETATM   18  C1  UNL     1       7.986  25.055  34.985  1.00  0.00     0.120 C 
HETATM   19  N1  UNL     1       7.009  24.508  35.548  1.00  0.00    -0.387 N 
ATOM     20  H12 UNL     1       6.173  25.016  35.836  1.00  0.00     0.157 HD
ATOM     21  H11 UNL     1       7.051  23.504  35.726  1.00  0.00     0.157 HD
HETATM   22  N2  UNL     1       7.927  26.459  34.735  1.00  0.00    -0.082 NA
ENDBRANCH  15  18
ENDBRANCH   1  12
BRANCH   2  23
HETATM   23  C7  UNL     1      13.482  24.021  31.671  1.00  0.00     0.116 C 
BRANCH  23  24
HETATM   24  C8  UNL     1      13.113  25.015  32.712  1.00  0.00     0.031 A 
HETATM   25  C9  UNL     1      13.622  25.216  33.966  1.00  0.00     0.114 A 
HETATM   26  N4  UNL     1      12.951  26.242  34.518  1.00  0.00    -0.360 N 
HETATM   27  C10 UNL     1      12.039  26.696  33.661  1.00  0.00     0.180 A 
ATOM     28  H4  UNL     1      13.116  26.616  35.452  1.00  0.00     0.166 HD
HETATM   29  N5  UNL     1      12.131  25.949  32.548  1.00  0.00    -0.354 N 
ATOM     30  H5  UNL     1      11.557  26.061  31.712  1.00  0.00     0.166 HD
ENDBRANCH  23  24
ENDBRANCH   2  23
BRANCH   4  31
HETATM   31  C13 UNL     1      14.928  19.372  33.014  1.00  0.00    -0.024 A 
HETATM   32  C14 UNL     1      15.114  18.519  31.961  1.00  0.00     0.012 A 
HETATM   33  C15 UNL     1      15.859  17.376  32.135  1.00  0.00     0.001 A 
HETATM   34  C16 UNL     1      16.445  17.030  33.336  1.00  0.00     0.000 A 
HETATM   35  C17 UNL     1      16.252  17.895  34.393  1.00  0.00     0.001 A 
HETATM   36  C18 UNL     1      15.504  19.044  34.222  1.00  0.00     0.012 A 
ENDBRANCH   4  31
TORSDOF 5
ENDMDL
MODEL 5
REMARK VINA RESULT: -0.759699343      2.157      6.798
REMARK  5 active torsions:
REMARK  status: ('A' for Active; 'I' for Inactive)
REMARK    1  A    between atoms: C1_4  and  C2_6 
REMARK    2  A    between atoms: C5_9  and  N3_10 
REMARK    3  A    between atoms: C6_11  and  C7_12 
REMARK    4  A    between atoms: C7_12  and  C8_13 
REMARK    5  A    between atoms: C12_21  and  C13_22 
ROOT
HETATM    1  N3  UNL     1      12.035  23.478  33.136  1.00  0.00    -0.314 N 
HETATM    2  C6  UNL     1      11.742  23.986  31.930  1.00  0.00     0.024 A 
HETATM    3  C11 UNL     1      10.978  25.132  32.140  1.00  0.00     0.040 A 
HETATM    4  C12 UNL     1      10.813  25.309  33.493  1.00  0.00     0.004 A 
HETATM    5  C19 UNL     1      11.481  24.265  34.086  1.00  0.00     0.061 A 
HETATM    6  C20 UNL     1      11.585  24.032  35.508  1.00  0.00    -0.008 A 
HETATM    7  C21 UNL     1      10.453  23.772  36.254  1.00  0.00     0.014 A 
HETATM    8  C22 UNL     1      10.552  23.551  37.612  1.00  0.00     0.001 A 
HETATM    9  C23 UNL     1      11.780  23.581  38.270  1.00  0.00     0.000 A 
HETATM   10  C24 UNL     1      12.899  23.842  37.506  1.00  0.00     0.001 A 
HETATM   11  C25 UNL     1      12.809  24.065  36.143  1.00  0.00     0.014 A 
ENDROOT
BRANCH   1  12
HETATM   12  C5  UNL     1      12.818  22.288  33.358  1.00  0.00     0.040 A 
HETATM   13  C4  UNL     1      12.276  21.227  34.048  1.00  0.00     0.031 A 
HETATM   14  C3  UNL     1      12.991  20.077  34.284  1.00  0.00     0.017 A 
HETATM   15  C2  UNL     1      14.310  19.933  33.829  1.00  0.00     0.005 A 
HETATM   16  C27 UNL     1      14.854  20.993  33.136  1.00  0.00     0.017 A 
HETATM   17  C26 UNL     1      14.110  22.146  32.912  1.00  0.00     0.031 A 
BRANCH  15  18
HETATM   18  C1  UNL     1      15.046  18.706  34.089  1.00  0.00     0.120 C 
HETATM   19  N1  UNL     1      16.020  18.330  33.397  1.00  0.00    -0.387 N 
ATOM     20  H12 UNL     1      16.537  17.470  33.580  1.00  0.00     0.157 HD
ATOM     21  H11 UNL     1      16.311  18.912  32.610  1.00  0.00     0.157 HD
HETATM   22  N2  UNL     1      14.639  17.893  35.189  1.00  0.00    -0.082 NA
ENDBRANCH  15  18
ENDBRANCH   1  12
BRANCH   2  23
HETATM   23  C7  UNL     1      12.148  23.436  30.592  1.00  0.00     0.116 C 
BRANCH  23  24
HETATM   24  C8  UNL     1      12.837  24.536  29.867  1.00  0.00     0.031 A 
HETATM   25  C9  UNL     1      12.605  25.059  28.624  1.00  0.00     0.114 A 
HETATM   26  N4  UNL     1      13.498  26.043  28.424  1.00  0.00    -0.360 N 
HETATM   27  C10 UNL     1      14.284  26.161  29.492  1.00  0.00     0.180 A 
ATOM     28  H4  UNL     1      13.564  26.613  27.581  1.00  0.00     0.166 HD
HETATM   29  N5  UNL     1      13.886  25.240  30.384  1.00  0.00    -0.354 N 
ATOM     30  H5  UNL     1      14.301  25.089  31.304  1.00  0.00     0.166 HD
ENDBRANCH  23  24
ENDBRANCH   2  23
BRANCH   4  31
HETATM   31  C13 UNL     1      10.071  26.400  34.115  1.00  0.00    -0.024 A 
HETATM   32  C14 UNL     1       8.729  26.363  34.377  1.00  0.00     0.012 A 
HETATM   33  C15 UNL     1       8.122  27.445  34.968  1.00  0.00     0.001 A 
HETATM   34  C16 UNL     1       8.800  28.595  35.322  1.00  0.00     0.000 A 
HETATM   35  C17 UNL     1      10.153  28.625  35.053  1.00  0.00     0.001 A 
HETATM   36  C18 UNL     1      10.767  27.539  34.459  1.00  0.00     0.012 A 
ENDBRANCH   4  31
TORSDOF 5
ENDMDL
