MODEL 1
REMARK VINA RESULT: -12.027814684      0.000      0.000
REMARK  6 active torsions:
REMARK  status: ('A' for Active; 'I' for Inactive)
REMARK    1  A    between atoms: C1_2  and  C2_3 
REMARK       I    between atoms: C1_2  and  N3_22 
REMARK    2  A    between atoms: C2_3  and  S1_4 
REMARK    3  A    between atoms: S1_4  and  C3_5 
REMARK    4  A    between atoms: C7_9  and  C8_10 
REMARK    5  A    between atoms: N3_22  and  C16_24 
REMARK    6  A    between atoms: C19_29  and  C20_30 
ROOT
HETATM    1  S1  UNL     1      12.417  24.577  36.349  1.00  0.00    -0.121 SA
ENDROOT
BRANCH   1   2
HETATM    2  C2  UNL     1      10.616  24.400  36.416  1.00  0.00     0.182 C 
BRANCH   2   3
HETATM    3  C1  UNL     1       9.983  25.242  35.348  1.00  0.00     0.231 C 
HETATM    4  O1  UNL     1      10.089  26.480  35.424  1.00  0.00    -0.272 OA
HETATM    5  N3  UNL     1       9.286  24.622  34.287  1.00  0.00    -0.325 N 
ATOM      6  H3  UNL     1       9.239  23.604  34.286  1.00  0.00     0.169 HD
BRANCH   5   7
HETATM    7  C16 UNL     1       8.654  25.303  33.232  1.00  0.00     0.062 A 
HETATM    8  C17 UNL     1       9.230  26.133  32.291  1.00  0.00     0.118 A 
HETATM    9  N4  UNL     1       8.240  26.567  31.498  1.00  0.00    -0.372 N 
HETATM   10  C18 UNL     1       7.072  26.043  31.904  1.00  0.00     0.102 A 
ATOM     11  H4  UNL     1       8.357  27.200  30.707  1.00  0.00     0.164 HD
HETATM   12  C19 UNL     1       7.283  25.233  32.999  1.00  0.00     0.018 A 
BRANCH  12  13
HETATM   13  C20 UNL     1       6.253  24.486  33.702  1.00  0.00    -0.022 A 
HETATM   14  C21 UNL     1       5.329  23.704  32.994  1.00  0.00     0.012 A 
HETATM   15  C22 UNL     1       4.372  22.995  33.665  1.00  0.00     0.001 A 
HETATM   16  C23 UNL     1       4.272  23.012  35.034  1.00  0.00     0.000 A 
HETATM   17  C24 UNL     1       5.186  23.783  35.728  1.00  0.00     0.001 A 
HETATM   18  C25 UNL     1       6.156  24.505  35.066  1.00  0.00     0.012 A 
ENDBRANCH  12  13
ENDBRANCH   5   7
ENDBRANCH   2   3
ENDBRANCH   1   2
BRANCH   1  19
HETATM   19  C3  UNL     1      13.084  23.739  34.924  1.00  0.00     0.002 A 
HETATM   20  C4  UNL     1      13.296  24.467  33.775  1.00  0.00     0.018 A 
HETATM   21  C5  UNL     1      13.817  23.786  32.678  1.00  0.00     0.002 A 
HETATM   22  C6  UNL     1      14.102  22.448  32.756  1.00  0.00     0.015 A 
HETATM   23  C7  UNL     1      13.884  21.733  33.915  1.00  0.00     0.009 A 
HETATM   24  C15 UNL     1      13.366  22.402  35.010  1.00  0.00     0.033 A 
BRANCH  23  25
HETATM   25  C8  UNL     1      14.191  20.304  33.990  1.00  0.00     0.116 A 
HETATM   26  N1  UNL     1      13.443  19.390  34.633  1.00  0.00    -0.340 N 
HETATM   27  C9  UNL     1      14.003  18.168  34.510  1.00  0.00     0.060 A 
ATOM     28  H1  UNL     1      12.580  19.590  35.139  1.00  0.00     0.167 HD
HETATM   29  C10 UNL     1      13.661  16.912  34.961  1.00  0.00     0.032 A 
HETATM   30  C14 UNL     1      15.147  18.314  33.763  1.00  0.00     0.060 A 
HETATM   31  C11 UNL     1      14.461  15.803  34.666  1.00  0.00     0.002 A 
HETATM   32  C12 UNL     1      15.608  15.948  33.917  1.00  0.00     0.002 A 
HETATM   33  C13 UNL     1      15.935  17.210  33.474  1.00  0.00     0.032 A 
HETATM   34  N2  UNL     1      15.225  19.638  33.465  1.00  0.00    -0.340 N 
ATOM     35  H2  UNL     1      15.971  20.065  32.917  1.00  0.00     0.167 HD
ENDBRANCH  23  25
ENDBRANCH   1  19
TORSDOF 6
ENDMDL
MODEL 2
REMARK VINA RESULT: -11.974324689      0.085      1.014
REMARK  6 active torsions:
REMARK  status: ('A' for Active; 'I' for Inactive)
REMARK    1  A    between atoms: C1_2  and  C2_3 
REMARK       I    between atoms: C1_2  and  N3_22 
REMARK    2  A    between atoms: C2_3  and  S1_4 
REMARK    3  A    between atoms: S1_4  and  C3_5 
REMARK    4  A    between atoms: C7_9  and  C8_10 
REMARK    5  A    between atoms: N3_22  and  C16_24 
REMARK    6  A    between atoms: C19_29  and  C20_30 
ROOT
HETATM    1  S1  UNL     1      12.352  24.544  36.373  1.00  0.00    -0.121 SA
ENDROOT
BRANCH   1   2
HETATM    2  C2  UNL     1      10.551  24.356  36.420  1.00  0.00     0.182 C 
BRANCH   2   3
HETATM    3  C1  UNL     1       9.923  25.217  35.365  1.00  0.00     0.231 C 
HETATM    4  O1  UNL     1       9.970  26.454  35.498  1.00  0.00    -0.272 OA
HETATM    5  N3  UNL     1       9.297  24.617  34.250  1.00  0.00    -0.325 N 
ATOM      6  H3  UNL     1       9.294  23.598  34.203  1.00  0.00     0.169 HD
BRANCH   5   7
HETATM    7  C16 UNL     1       8.676  25.316  33.200  1.00  0.00     0.062 A 
HETATM    8  C17 UNL     1       9.264  26.159  32.278  1.00  0.00     0.118 A 
HETATM    9  N4  UNL     1       8.282  26.610  31.484  1.00  0.00    -0.372 N 
HETATM   10  C18 UNL     1       7.108  26.084  31.872  1.00  0.00     0.102 A 
ATOM     11  H4  UNL     1       8.408  27.254  30.703  1.00  0.00     0.164 HD
HETATM   12  C19 UNL     1       7.307  25.257  32.956  1.00  0.00     0.018 A 
BRANCH  12  13
HETATM   13  C20 UNL     1       6.267  24.504  33.639  1.00  0.00    -0.022 A 
HETATM   14  C21 UNL     1       5.362  23.716  32.913  1.00  0.00     0.012 A 
HETATM   15  C22 UNL     1       4.396  23.002  33.566  1.00  0.00     0.001 A 
HETATM   16  C23 UNL     1       4.269  23.019  34.933  1.00  0.00     0.000 A 
HETATM   17  C24 UNL     1       5.165  23.795  35.644  1.00  0.00     0.001 A 
HETATM   18  C25 UNL     1       6.144  24.523  35.001  1.00  0.00     0.012 A 
ENDBRANCH  12  13
ENDBRANCH   5   7
ENDBRANCH   2   3
ENDBRANCH   1   2
BRANCH   1  19
HETATM   19  C3  UNL     1      13.041  23.699  34.963  1.00  0.00     0.002 A 
HETATM   20  C4  UNL     1      13.295  24.426  33.822  1.00  0.00     0.018 A 
HETATM   21  C5  UNL     1      13.833  23.741  32.738  1.00  0.00     0.002 A 
HETATM   22  C6  UNL     1      14.094  22.397  32.818  1.00  0.00     0.015 A 
HETATM   23  C7  UNL     1      13.834  21.683  33.969  1.00  0.00     0.009 A 
HETATM   24  C15 UNL     1      13.299  22.357  35.052  1.00  0.00     0.033 A 
BRANCH  23  25
HETATM   25  C8  UNL     1      14.114  20.248  34.047  1.00  0.00     0.116 A 
HETATM   26  N1  UNL     1      15.187  19.644  33.506  1.00  0.00    -0.340 N 
HETATM   27  C9  UNL     1      15.144  18.319  33.758  1.00  0.00     0.060 A 
ATOM     28  H1  UNL     1      15.924  20.117  32.983  1.00  0.00     0.167 HD
HETATM   29  C10 UNL     1      15.969  17.260  33.445  1.00  0.00     0.032 A 
HETATM   30  C14 UNL     1      14.003  18.076  34.485  1.00  0.00     0.060 A 
HETATM   31  C11 UNL     1      15.654  15.962  33.856  1.00  0.00     0.002 A 
HETATM   32  C12 UNL     1      14.510  15.716  34.584  1.00  0.00     0.002 A 
HETATM   33  C13 UNL     1      13.697  16.785  34.889  1.00  0.00     0.032 A 
HETATM   34  N2  UNL     1      13.401  19.284  34.638  1.00  0.00    -0.340 N 
ATOM     35  H2  UNL     1      12.524  19.436  35.137  1.00  0.00     0.167 HD
ENDBRANCH  23  25
ENDBRANCH   1  19
TORSDOF 6
ENDMDL
MODEL 3
REMARK VINA RESULT: -11.289110722      1.644      3.293
REMARK  6 active torsions:
REMARK  status: ('A' for Active; 'I' for Inactive)
REMARK    1  A    between atoms: C1_2  and  C2_3 
REMARK       I    between atoms: C1_2  and  N3_22 
REMARK    2  A    between atoms: C2_3  and  S1_4 
REMARK    3  A    between atoms: S1_4  and  C3_5 
REMARK    4  A    between atoms: C7_9  and  C8_10 
REMARK    5  A    between atoms: N3_22  and  C16_24 
REMARK    6  A    between atoms: C19_29  and  C20_30 
ROOT
HETATM    1  S1  UNL     1      10.579  24.869  37.064  1.00  0.00    -0.121 SA
ENDROOT
BRANCH   1   2
HETATM    2  C2  UNL     1       9.848  26.499  36.765  1.00  0.00     0.182 C 
BRANCH   2   3
HETATM    3  C1  UNL     1       8.921  26.433  35.589  1.00  0.00     0.231 C 
HETATM    4  O1  UNL     1       8.878  27.400  34.808  1.00  0.00    -0.272 OA
HETATM    5  N3  UNL     1       8.122  25.284  35.390  1.00  0.00    -0.325 N 
ATOM      6  H3  UNL     1       8.207  24.528  36.068  1.00  0.00     0.169 HD
BRANCH   5   7
HETATM    7  C16 UNL     1       7.219  25.106  34.328  1.00  0.00     0.062 A 
HETATM    8  C17 UNL     1       5.850  25.290  34.337  1.00  0.00     0.118 A 
HETATM    9  N4  UNL     1       5.409  24.983  33.109  1.00  0.00    -0.372 N 
HETATM   10  C18 UNL     1       6.444  24.616  32.334  1.00  0.00     0.102 A 
ATOM     11  H4  UNL     1       4.435  25.022  32.808  1.00  0.00     0.164 HD
HETATM   12  C19 UNL     1       7.612  24.678  33.062  1.00  0.00     0.018 A 
BRANCH  12  13
HETATM   13  C20 UNL     1       8.937  24.366  32.552  1.00  0.00    -0.022 A 
HETATM   14  C21 UNL     1       9.784  25.385  32.092  1.00  0.00     0.012 A 
HETATM   15  C22 UNL     1      11.033  25.083  31.625  1.00  0.00     0.001 A 
HETATM   16  C23 UNL     1      11.509  23.796  31.586  1.00  0.00     0.000 A 
HETATM   17  C24 UNL     1      10.672  22.794  32.042  1.00  0.00     0.001 A 
HETATM   18  C25 UNL     1       9.409  23.083  32.515  1.00  0.00     0.012 A 
ENDBRANCH  12  13
ENDBRANCH   5   7
ENDBRANCH   2   3
ENDBRANCH   1   2
BRANCH   1  19
HETATM   19  C3  UNL     1      11.818  24.496  35.838  1.00  0.00     0.002 A 
HETATM   20  C4  UNL     1      12.395  25.538  35.149  1.00  0.00     0.018 A 
HETATM   21  C5  UNL     1      13.359  25.217  34.198  1.00  0.00     0.002 A 
HETATM   22  C6  UNL     1      13.709  23.911  33.971  1.00  0.00     0.015 A 
HETATM   23  C7  UNL     1      13.122  22.878  34.670  1.00  0.00     0.009 A 
HETATM   24  C15 UNL     1      12.162  23.189  35.617  1.00  0.00     0.033 A 
BRANCH  23  25
HETATM   25  C8  UNL     1      13.500  21.486  34.420  1.00  0.00     0.116 A 
HETATM   26  N1  UNL     1      14.388  21.084  33.494  1.00  0.00    -0.340 N 
HETATM   27  C9  UNL     1      14.506  19.741  33.522  1.00  0.00     0.060 A 
ATOM     28  H1  UNL     1      14.897  21.704  32.863  1.00  0.00     0.167 HD
HETATM   29  C10 UNL     1      15.257  18.834  32.806  1.00  0.00     0.032 A 
HETATM   30  C14 UNL     1      13.663  19.274  34.501  1.00  0.00     0.060 A 
HETATM   31  C11 UNL     1      15.165  17.463  33.067  1.00  0.00     0.002 A 
HETATM   32  C12 UNL     1      14.320  16.994  34.049  1.00  0.00     0.002 A 
HETATM   33  C13 UNL     1      13.577  17.913  34.755  1.00  0.00     0.032 A 
HETATM   34  N2  UNL     1      13.065  20.376  35.026  1.00  0.00    -0.340 N 
ATOM     35  H2  UNL     1      12.378  20.358  35.779  1.00  0.00     0.167 HD
ENDBRANCH  23  25
ENDBRANCH   1  19
TORSDOF 6
ENDMDL
MODEL 4
REMARK VINA RESULT: -11.284301116      1.625      3.127
REMARK  6 active torsions:
REMARK  status: ('A' for Active; 'I' for Inactive)
REMARK    1  A    between atoms: C1_2  and  C2_3 
REMARK       I    between atoms: C1_2  and  N3_22 
REMARK    2  A    between atoms: C2_3  and  S1_4 
REMARK    3  A    between atoms: S1_4  and  C3_5 
REMARK    4  A    between atoms: C7_9  and  C8_10 
REMARK    5  A    between atoms: N3_22  and  C16_24 
REMARK    6  A    between atoms: C19_29  and  C20_30 
ROOT
HETATM    1  S1  UNL     1      10.646  24.827  37.036  1.00  0.00    -0.121 SA
ENDROOT
BRANCH   1   2
HETATM    2  C2  UNL     1       9.900  26.455  36.768  1.00  0.00     0.182 C 
BRANCH   2   3
HETATM    3  C1  UNL     1       8.964  26.398  35.599  1.00  0.00     0.231 C 
HETATM    4  O1  UNL     1       8.930  27.364  34.814  1.00  0.00    -0.272 OA
HETATM    5  N3  UNL     1       8.146  25.262  35.409  1.00  0.00    -0.325 N 
ATOM      6  H3  UNL     1       8.224  24.506  36.089  1.00  0.00     0.169 HD
BRANCH   5   7
HETATM    7  C16 UNL     1       7.233  25.093  34.354  1.00  0.00     0.062 A 
HETATM    8  C17 UNL     1       5.864  25.272  34.379  1.00  0.00     0.118 A 
HETATM    9  N4  UNL     1       5.412  24.979  33.151  1.00  0.00    -0.372 N 
HETATM   10  C18 UNL     1       6.440  24.626  32.362  1.00  0.00     0.102 A 
ATOM     11  H4  UNL     1       4.435  25.019  32.861  1.00  0.00     0.164 HD
HETATM   12  C19 UNL     1       7.615  24.683  33.079  1.00  0.00     0.018 A 
BRANCH  12  13
HETATM   13  C20 UNL     1       8.936  24.382  32.552  1.00  0.00    -0.022 A 
HETATM   14  C21 UNL     1       9.759  25.406  32.060  1.00  0.00     0.012 A 
HETATM   15  C22 UNL     1      11.004  25.114  31.577  1.00  0.00     0.001 A 
HETATM   16  C23 UNL     1      11.500  23.834  31.552  1.00  0.00     0.000 A 
HETATM   17  C24 UNL     1      10.686  22.828  32.039  1.00  0.00     0.001 A 
HETATM   18  C25 UNL     1       9.427  23.106  32.528  1.00  0.00     0.012 A 
ENDBRANCH  12  13
ENDBRANCH   5   7
ENDBRANCH   2   3
ENDBRANCH   1   2
BRANCH   1  19
HETATM   19  C3  UNL     1      11.868  24.475  35.787  1.00  0.00     0.002 A 
HETATM   20  C4  UNL     1      12.410  25.528  35.085  1.00  0.00     0.018 A 
HETATM   21  C5  UNL     1      13.361  25.223  34.116  1.00  0.00     0.002 A 
HETATM   22  C6  UNL     1      13.733  23.924  33.884  1.00  0.00     0.015 A 
HETATM   23  C7  UNL     1      13.180  22.881  34.596  1.00  0.00     0.009 A 
HETATM   24  C15 UNL     1      12.233  23.175  35.561  1.00  0.00     0.033 A 
BRANCH  23  25
HETATM   25  C8  UNL     1      13.581  21.496  34.341  1.00  0.00     0.116 A 
HETATM   26  N1  UNL     1      13.109  20.425  35.002  1.00  0.00    -0.340 N 
HETATM   27  C9  UNL     1      13.682  19.300  34.525  1.00  0.00     0.060 A 
ATOM     28  H1  UNL     1      12.420  20.458  35.754  1.00  0.00     0.167 HD
HETATM   29  C10 UNL     1      13.562  17.963  34.834  1.00  0.00     0.032 A 
HETATM   30  C14 UNL     1      14.548  19.673  33.525  1.00  0.00     0.060 A 
HETATM   31  C11 UNL     1      14.307  17.000  34.147  1.00  0.00     0.002 A 
HETATM   32  C12 UNL     1      15.176  17.372  33.144  1.00  0.00     0.002 A 
HETATM   33  C13 UNL     1      15.283  18.712  32.848  1.00  0.00     0.032 A 
HETATM   34  N2  UNL     1      14.456  21.027  33.445  1.00  0.00    -0.340 N 
ATOM     35  H2  UNL     1      14.983  21.606  32.792  1.00  0.00     0.167 HD
ENDBRANCH  23  25
ENDBRANCH   1  19
TORSDOF 6
ENDMDL
MODEL 5
REMARK VINA RESULT: -11.213953946      2.119      3.389
REMARK  6 active torsions:
REMARK  status: ('A' for Active; 'I' for Inactive)
REMARK    1  A    between atoms: C1_2  and  C2_3 
REMARK       I    between atoms: C1_2  and  N3_22 
REMARK    2  A    between atoms: C2_3  and  S1_4 
REMARK    3  A    between atoms: S1_4  and  C3_5 
REMARK    4  A    between atoms: C7_9  and  C8_10 
REMARK    5  A    between atoms: N3_22  and  C16_24 
REMARK    6  A    between atoms: C19_29  and  C20_30 
ROOT
HETATM    1  S1  UNL     1      12.737  21.538  34.868  1.00  0.00    -0.121 SA
ENDROOT
BRANCH   1   2
HETATM    2  C2  UNL     1      11.232  21.894  33.927  1.00  0.00     0.182 C 
BRANCH   2   3
HETATM    3  C1  UNL     1      10.886  23.348  34.052  1.00  0.00     0.231 C 
HETATM    4  O1  UNL     1      11.390  24.151  33.247  1.00  0.00    -0.272 OA
HETATM    5  N3  UNL     1      10.003  23.775  35.069  1.00  0.00    -0.325 N 
ATOM      6  H3  UNL     1       9.626  23.063  35.695  1.00  0.00     0.169 HD
BRANCH   5   7
HETATM    7  C16 UNL     1       9.605  25.105  35.285  1.00  0.00     0.062 A 
HETATM    8  C17 UNL     1      10.348  26.137  35.823  1.00  0.00     0.118 A 
HETATM    9  N4  UNL     1       9.552  27.215  35.851  1.00  0.00    -0.372 N 
HETATM   10  C18 UNL     1       8.344  26.900  35.354  1.00  0.00     0.102 A 
ATOM     11  H4  UNL     1       9.822  28.136  36.198  1.00  0.00     0.164 HD
HETATM   12  C19 UNL     1       8.330  25.573  34.980  1.00  0.00     0.018 A 
BRANCH  12  13
HETATM   13  C20 UNL     1       7.197  24.880  34.388  1.00  0.00    -0.022 A 
HETATM   14  C21 UNL     1       7.133  24.669  33.003  1.00  0.00     0.012 A 
HETATM   15  C22 UNL     1       6.070  24.005  32.458  1.00  0.00     0.001 A 
HETATM   16  C23 UNL     1       5.036  23.523  33.222  1.00  0.00     0.000 A 
HETATM   17  C24 UNL     1       5.103  23.732  34.587  1.00  0.00     0.001 A 
HETATM   18  C25 UNL     1       6.169  24.401  35.152  1.00  0.00     0.012 A 
ENDBRANCH  12  13
ENDBRANCH   5   7
ENDBRANCH   2   3
ENDBRANCH   1   2
BRANCH   1  19
HETATM   19  C3  UNL     1      13.774  20.382  33.994  1.00  0.00     0.002 A 
HETATM   20  C4  UNL     1      14.616  20.863  33.018  1.00  0.00     0.018 A 
HETATM   21  C5  UNL     1      15.413  19.937  32.352  1.00  0.00     0.002 A 
HETATM   22  C6  UNL     1      15.350  18.604  32.668  1.00  0.00     0.015 A 
HETATM   23  C7  UNL     1      14.501  18.138  33.649  1.00  0.00     0.009 A 
HETATM   24  C15 UNL     1      13.704  19.052  34.316  1.00  0.00     0.033 A 
BRANCH  23  25
HETATM   25  C8  UNL     1      14.438  16.713  33.979  1.00  0.00     0.116 A 
HETATM   26  N1  UNL     1      15.461  15.849  33.857  1.00  0.00    -0.340 N 
HETATM   27  C9  UNL     1      15.073  14.617  34.244  1.00  0.00     0.060 A 
ATOM     28  H1  UNL     1      16.395  16.091  33.522  1.00  0.00     0.167 HD
HETATM   29  C10 UNL     1      15.706  13.395  34.319  1.00  0.00     0.032 A 
HETATM   30  C14 UNL     1      13.755  14.703  34.624  1.00  0.00     0.060 A 
HETATM   31  C11 UNL     1      15.025  12.262  34.772  1.00  0.00     0.002 A 
HETATM   32  C12 UNL     1      13.703  12.346  35.154  1.00  0.00     0.002 A 
HETATM   33  C13 UNL     1      13.086  13.574  35.074  1.00  0.00     0.032 A 
HETATM   34  N2  UNL     1      13.405  16.004  34.446  1.00  0.00    -0.340 N 
ATOM     35  H2  UNL     1      12.480  16.387  34.642  1.00  0.00     0.167 HD
ENDBRANCH  23  25
ENDBRANCH   1  19
TORSDOF 6
ENDMDL
