MODEL 1
REMARK VINA RESULT: -7.168378227      0.000      0.000
REMARK  6 active torsions:
REMARK  status: ('A' for Active; 'I' for Inactive)
REMARK    1  A    between atoms: C5_9  and  C6_10 
REMARK    2  A    between atoms: C6_10  and  N3_11 
REMARK    3  A    between atoms: C9_14  and  C10_15 
REMARK    4  A    between atoms: N4_18  and  C13_19 
REMARK    5  A    between atoms: C13_19  and  C14_20 
REMARK       I    between atoms: C14_20  and  N5_22 
REMARK    6  A    between atoms: N5_22  and  C15_24 
ROOT
HETATM    1  C1  UNL     1      -8.785   6.772   8.851  1.00  0.00     0.104 C 
HETATM    2  C2  UNL     1      -7.877   6.122   8.338  1.00  0.00    -0.129 C 
HETATM    3  C3  UNL     1      -6.738   5.379   7.737  1.00  0.00     0.101 A 
HETATM    4  N1  UNL     1      -6.782   4.522   6.746  1.00  0.00    -0.293 N 
ATOM      5  H1  UNL     1      -7.624   4.181   6.282  1.00  0.00     0.187 HD
HETATM    6  N2  UNL     1      -5.535   4.179   6.457  1.00  0.00    -0.310 N 
ATOM      7  H2  UNL     1      -5.286   3.520   5.720  1.00  0.00     0.186 HD
HETATM    8  C4  UNL     1      -4.648   4.786   7.229  1.00  0.00     0.122 A 
HETATM    9  C5  UNL     1      -5.437   5.567   8.077  1.00  0.00     0.033 A 
ENDROOT
BRANCH   9  10
HETATM   10  C6  UNL     1      -5.025   6.505   9.177  1.00  0.00     0.111 C 
BRANCH  10  11
HETATM   11  N3  UNL     1      -4.963   5.922  10.448  1.00  0.00    -0.350 N 
HETATM   12  C7  UNL     1      -4.526   6.722  11.498  1.00  0.00     0.069 C 
HETATM   13  C8  UNL     1      -3.135   6.254  11.843  1.00  0.00     0.052 C 
HETATM   14  C9  UNL     1      -3.242   4.922  12.557  1.00  0.00     0.028 C 
HETATM   15  C20 UNL     1      -4.248   4.057  11.852  1.00  0.00     0.052 C 
HETATM   16  C21 UNL     1      -4.630   4.566  10.468  1.00  0.00     0.069 C 
BRANCH  14  17
HETATM   17  C10 UNL     1      -3.824   5.119  13.933  1.00  0.00     0.230 C 
HETATM   18  C11 UNL     1      -3.190   6.068  14.874  1.00  0.00     0.066 C 
HETATM   19  C12 UNL     1      -2.258   4.962  15.217  1.00  0.00     0.275 C 
HETATM   20  N4  UNL     1      -3.371   4.029  14.862  1.00  0.00     0.102 N 
BRANCH  20  21
HETATM   21  C13 UNL     1      -2.908   2.845  14.231  1.00  0.00     0.375 C 
BRANCH  21  22
HETATM   22  C14 UNL     1      -3.965   1.790  14.497  1.00  0.00     0.246 C 
HETATM   23  O1  UNL     1      -4.160   0.841  13.705  1.00  0.00    -0.272 OA
HETATM   24  N5  UNL     1      -4.724   1.943  15.712  1.00  0.00    -0.355 N 
ATOM     25  H5  UNL     1      -4.595   2.749  16.324  1.00  0.00     0.162 HD
BRANCH  24  26
HETATM   26  C15 UNL     1      -5.682   0.895  16.024  1.00  0.00     0.084 C 
HETATM   27  C16 UNL     1      -5.043  -0.245  16.746  1.00  0.00     0.025 C 
HETATM   28  C17 UNL     1      -6.115  -0.657  17.727  1.00  0.00     0.002 C 
HETATM   29  C18 UNL     1      -6.705   0.674  18.122  1.00  0.00     0.002 C 
HETATM   30  C19 UNL     1      -6.866   1.377  16.802  1.00  0.00     0.025 C 
ENDBRANCH  24  26
ENDBRANCH  21  22
ENDBRANCH  20  21
ENDBRANCH  14  17
ENDBRANCH  10  11
ENDBRANCH   9  10
TORSDOF 6
ENDMDL
MODEL 2
REMARK VINA RESULT: -7.129653514      2.421      7.796
REMARK  6 active torsions:
REMARK  status: ('A' for Active; 'I' for Inactive)
REMARK    1  A    between atoms: C5_9  and  C6_10 
REMARK    2  A    between atoms: C6_10  and  N3_11 
REMARK    3  A    between atoms: C9_14  and  C10_15 
REMARK    4  A    between atoms: N4_18  and  C13_19 
REMARK    5  A    between atoms: C13_19  and  C14_20 
REMARK       I    between atoms: C14_20  and  N5_22 
REMARK    6  A    between atoms: N5_22  and  C15_24 
ROOT
HETATM    1  C1  UNL     1      -6.478   0.695  18.599  1.00  0.00     0.104 C 
HETATM    2  C2  UNL     1      -5.874   0.354  17.584  1.00  0.00    -0.129 C 
HETATM    3  C3  UNL     1      -5.166  -0.009  16.328  1.00  0.00     0.101 A 
HETATM    4  N1  UNL     1      -4.760  -1.200  15.960  1.00  0.00    -0.293 N 
ATOM      5  H1  UNL     1      -4.807  -2.052  16.519  1.00  0.00     0.187 HD
HETATM    6  N2  UNL     1      -4.278  -1.096  14.730  1.00  0.00    -0.310 N 
ATOM      7  H2  UNL     1      -3.894  -1.881  14.205  1.00  0.00     0.186 HD
HETATM    8  C4  UNL     1      -4.351   0.138  14.256  1.00  0.00     0.122 A 
HETATM    9  C5  UNL     1      -4.925   0.855  15.309  1.00  0.00     0.033 A 
ENDROOT
BRANCH   9  10
HETATM   10  C6  UNL     1      -5.283   2.312  15.393  1.00  0.00     0.111 C 
BRANCH  10  11
HETATM   11  N3  UNL     1      -4.711   3.112  14.396  1.00  0.00    -0.350 N 
HETATM   12  C7  UNL     1      -3.416   3.569  14.608  1.00  0.00     0.069 C 
HETATM   13  C8  UNL     1      -3.527   5.039  14.924  1.00  0.00     0.052 C 
HETATM   14  C9  UNL     1      -3.860   5.779  13.645  1.00  0.00     0.028 C 
HETATM   15  C20 UNL     1      -4.913   5.022  12.888  1.00  0.00     0.052 C 
HETATM   16  C21 UNL     1      -5.603   3.943  13.714  1.00  0.00     0.069 C 
BRANCH  14  17
HETATM   17  C10 UNL     1      -2.668   5.778  12.722  1.00  0.00     0.230 C 
HETATM   18  C11 UNL     1      -1.325   6.101  13.250  1.00  0.00     0.066 C 
HETATM   19  C12 UNL     1      -1.701   7.529  13.073  1.00  0.00     0.275 C 
HETATM   20  N4  UNL     1      -2.585   7.070  11.959  1.00  0.00     0.102 N 
BRANCH  20  21
HETATM   21  C13 UNL     1      -3.794   7.810  11.884  1.00  0.00     0.375 C 
BRANCH  21  22
HETATM   22  C14 UNL     1      -4.379   7.514  10.515  1.00  0.00     0.246 C 
HETATM   23  O1  UNL     1      -3.653   7.380   9.506  1.00  0.00    -0.272 OA
HETATM   24  N5  UNL     1      -5.813   7.392  10.450  1.00  0.00    -0.355 N 
ATOM     25  H5  UNL     1      -6.401   7.556  11.268  1.00  0.00     0.162 HD
BRANCH  24  26
HETATM   26  C15 UNL     1      -6.383   7.024   9.164  1.00  0.00     0.084 C 
HETATM   27  C16 UNL     1      -6.667   5.562   9.080  1.00  0.00     0.025 C 
HETATM   28  C17 UNL     1      -7.954   5.520   8.290  1.00  0.00     0.002 C 
HETATM   29  C18 UNL     1      -8.683   6.730   8.817  1.00  0.00     0.002 C 
HETATM   30  C19 UNL     1      -7.619   7.794   8.814  1.00  0.00     0.025 C 
ENDBRANCH  24  26
ENDBRANCH  21  22
ENDBRANCH  20  21
ENDBRANCH  14  17
ENDBRANCH  10  11
ENDBRANCH   9  10
TORSDOF 6
ENDMDL
MODEL 3
REMARK VINA RESULT: -7.094625666      4.588      8.119
REMARK  6 active torsions:
REMARK  status: ('A' for Active; 'I' for Inactive)
REMARK    1  A    between atoms: C5_9  and  C6_10 
REMARK    2  A    between atoms: C6_10  and  N3_11 
REMARK    3  A    between atoms: C9_14  and  C10_15 
REMARK    4  A    between atoms: N4_18  and  C13_19 
REMARK    5  A    between atoms: C13_19  and  C14_20 
REMARK       I    between atoms: C14_20  and  N5_22 
REMARK    6  A    between atoms: N5_22  and  C15_24 
ROOT
HETATM    1  C1  UNL     1      -4.859   0.656  11.451  1.00  0.00     0.104 C 
HETATM    2  C2  UNL     1      -4.743   0.457  12.658  1.00  0.00    -0.129 C 
HETATM    3  C3  UNL     1      -4.586   0.278  14.126  1.00  0.00     0.101 A 
HETATM    4  N1  UNL     1      -4.335  -0.837  14.768  1.00  0.00    -0.293 N 
ATOM      5  H1  UNL     1      -4.281  -1.770  14.357  1.00  0.00     0.187 HD
HETATM    6  N2  UNL     1      -4.166  -0.534  16.047  1.00  0.00    -0.310 N 
ATOM      7  H2  UNL     1      -3.959  -1.224  16.769  1.00  0.00     0.186 HD
HETATM    8  C4  UNL     1      -4.294   0.762  16.284  1.00  0.00     0.122 A 
HETATM    9  C5  UNL     1      -4.580   1.295  15.025  1.00  0.00     0.033 A 
ENDROOT
BRANCH   9  10
HETATM   10  C6  UNL     1      -4.821   2.722  14.621  1.00  0.00     0.111 C 
BRANCH  10  11
HETATM   11  N3  UNL     1      -3.705   3.559  14.741  1.00  0.00    -0.350 N 
HETATM   12  C7  UNL     1      -3.933   4.883  15.094  1.00  0.00     0.069 C 
HETATM   13  C8  UNL     1      -3.701   5.705  13.851  1.00  0.00     0.052 C 
HETATM   14  C9  UNL     1      -2.210   5.758  13.586  1.00  0.00     0.028 C 
HETATM   15  C20 UNL     1      -1.617   4.394  13.790  1.00  0.00     0.052 C 
HETATM   16  C21 UNL     1      -2.653   3.280  13.864  1.00  0.00     0.069 C 
BRANCH  14  17
HETATM   17  C10 UNL     1      -1.531   6.617  14.622  1.00  0.00     0.230 C 
HETATM   18  C11 UNL     1      -2.191   7.847  15.109  1.00  0.00     0.066 C 
HETATM   19  C12 UNL     1      -1.625   8.515  13.908  1.00  0.00     0.275 C 
HETATM   20  N4  UNL     1      -0.514   7.518  13.982  1.00  0.00     0.102 N 
BRANCH  20  21
HETATM   21  C13 UNL     1      -0.062   7.111  12.700  1.00  0.00     0.375 C 
BRANCH  21  22
HETATM   22  C14 UNL     1       1.448   7.002  12.805  1.00  0.00     0.246 C 
HETATM   23  O1  UNL     1       2.123   7.841  13.442  1.00  0.00    -0.272 OA
HETATM   24  N5  UNL     1       2.053   5.879  12.136  1.00  0.00    -0.355 N 
ATOM     25  H5  UNL     1       1.500   5.231  11.574  1.00  0.00     0.162 HD
BRANCH  24  26
HETATM   26  C15 UNL     1       3.488   5.713  12.298  1.00  0.00     0.084 C 
HETATM   27  C16 UNL     1       3.824   4.445  13.008  1.00  0.00     0.025 C 
HETATM   28  C17 UNL     1       5.081   3.994  12.303  1.00  0.00     0.002 C 
HETATM   29  C18 UNL     1       4.796   4.385  10.875  1.00  0.00     0.002 C 
HETATM   30  C19 UNL     1       4.249   5.781  11.010  1.00  0.00     0.025 C 
ENDBRANCH  24  26
ENDBRANCH  21  22
ENDBRANCH  20  21
ENDBRANCH  14  17
ENDBRANCH  10  11
ENDBRANCH   9  10
TORSDOF 6
ENDMDL
MODEL 4
REMARK VINA RESULT: -7.069252239      1.499      1.919
REMARK  6 active torsions:
REMARK  status: ('A' for Active; 'I' for Inactive)
REMARK    1  A    between atoms: C5_9  and  C6_10 
REMARK    2  A    between atoms: C6_10  and  N3_11 
REMARK    3  A    between atoms: C9_14  and  C10_15 
REMARK    4  A    between atoms: N4_18  and  C13_19 
REMARK    5  A    between atoms: C13_19  and  C14_20 
REMARK       I    between atoms: C14_20  and  N5_22 
REMARK    6  A    between atoms: N5_22  and  C15_24 
ROOT
HETATM    1  C1  UNL     1      -8.632   7.019   9.192  1.00  0.00     0.104 C 
HETATM    2  C2  UNL     1      -7.853   6.321   8.548  1.00  0.00    -0.129 C 
HETATM    3  C3  UNL     1      -6.866   5.520   7.776  1.00  0.00     0.101 A 
HETATM    4  N1  UNL     1      -7.118   4.605   6.872  1.00  0.00    -0.293 N 
ATOM      5  H1  UNL     1      -8.040   4.252   6.613  1.00  0.00     0.187 HD
HETATM    6  N2  UNL     1      -5.959   4.221   6.356  1.00  0.00    -0.310 N 
ATOM      7  H2  UNL     1      -5.871   3.513   5.628  1.00  0.00     0.186 HD
HETATM    8  C4  UNL     1      -4.929   4.858   6.890  1.00  0.00     0.122 A 
HETATM    9  C5  UNL     1      -5.523   5.704   7.829  1.00  0.00     0.033 A 
ENDROOT
BRANCH   9  10
HETATM   10  C6  UNL     1      -4.887   6.700   8.758  1.00  0.00     0.111 C 
BRANCH  10  11
HETATM   11  N3  UNL     1      -4.327   6.146   9.915  1.00  0.00    -0.350 N 
HETATM   12  C7  UNL     1      -2.954   5.936   9.924  1.00  0.00     0.069 C 
HETATM   13  C8  UNL     1      -2.746   4.448   9.800  1.00  0.00     0.052 C 
HETATM   14  C9  UNL     1      -3.118   3.802  11.119  1.00  0.00     0.028 C 
HETATM   15  C20 UNL     1      -4.389   4.413  11.634  1.00  0.00     0.052 C 
HETATM   16  C21 UNL     1      -5.140   5.234  10.593  1.00  0.00     0.069 C 
BRANCH  14  17
HETATM   17  C10 UNL     1      -2.092   4.143  12.169  1.00  0.00     0.230 C 
HETATM   18  C11 UNL     1      -0.651   4.016  11.861  1.00  0.00     0.066 C 
HETATM   19  C12 UNL     1      -0.800   2.576  12.202  1.00  0.00     0.275 C 
HETATM   20  N4  UNL     1      -1.903   2.996  13.120  1.00  0.00     0.102 N 
BRANCH  20  21
HETATM   21  C13 UNL     1      -2.966   2.056  13.158  1.00  0.00     0.375 C 
BRANCH  21  22
HETATM   22  C14 UNL     1      -3.574   2.171  14.544  1.00  0.00     0.246 C 
HETATM   23  O1  UNL     1      -3.375   3.173  15.266  1.00  0.00    -0.272 OA
HETATM   24  N5  UNL     1      -4.392   1.065  14.972  1.00  0.00    -0.355 N 
ATOM     25  H5  UNL     1      -4.503   0.230  14.398  1.00  0.00     0.162 HD
BRANCH  24  26
HETATM   26  C15 UNL     1      -5.051   1.197  16.262  1.00  0.00     0.084 C 
HETATM   27  C16 UNL     1      -6.464   1.656  16.119  1.00  0.00     0.025 C 
HETATM   28  C17 UNL     1      -7.173   0.881  17.205  1.00  0.00     0.002 C 
HETATM   29  C18 UNL     1      -6.462  -0.448  17.156  1.00  0.00     0.002 C 
HETATM   30  C19 UNL     1      -5.012  -0.052  17.085  1.00  0.00     0.025 C 
ENDBRANCH  24  26
ENDBRANCH  21  22
ENDBRANCH  20  21
ENDBRANCH  14  17
ENDBRANCH  10  11
ENDBRANCH   9  10
TORSDOF 6
ENDMDL
MODEL 5
REMARK VINA RESULT: -7.055216883      3.844      8.391
REMARK  6 active torsions:
REMARK  status: ('A' for Active; 'I' for Inactive)
REMARK    1  A    between atoms: C5_9  and  C6_10 
REMARK    2  A    between atoms: C6_10  and  N3_11 
REMARK    3  A    between atoms: C9_14  and  C10_15 
REMARK    4  A    between atoms: N4_18  and  C13_19 
REMARK    5  A    between atoms: C13_19  and  C14_20 
REMARK       I    between atoms: C14_20  and  N5_22 
REMARK    6  A    between atoms: N5_22  and  C15_24 
ROOT
HETATM    1  C1  UNL     1      -6.821   1.123  18.934  1.00  0.00     0.104 C 
HETATM    2  C2  UNL     1      -6.185   0.615  18.014  1.00  0.00    -0.129 C 
HETATM    3  C3  UNL     1      -5.439   0.043  16.862  1.00  0.00     0.101 A 
HETATM    4  N1  UNL     1      -4.982  -1.179  16.738  1.00  0.00    -0.293 N 
ATOM      5  H1  UNL     1      -5.009  -1.907  17.452  1.00  0.00     0.187 HD
HETATM    6  N2  UNL     1      -4.480  -1.298  15.518  1.00  0.00    -0.310 N 
ATOM      7  H2  UNL     1      -4.056  -2.154  15.161  1.00  0.00     0.186 HD
HETATM    8  C4  UNL     1      -4.588  -0.183  14.812  1.00  0.00     0.122 A 
HETATM    9  C5  UNL     1      -5.209   0.702  15.697  1.00  0.00     0.033 A 
ENDROOT
BRANCH   9  10
HETATM   10  C6  UNL     1      -5.622   2.131  15.490  1.00  0.00     0.111 C 
BRANCH  10  11
HETATM   11  N3  UNL     1      -4.683   2.918  14.813  1.00  0.00    -0.350 N 
HETATM   12  C7  UNL     1      -4.946   3.226  13.484  1.00  0.00     0.069 C 
HETATM   13  C8  UNL     1      -3.997   2.396  12.656  1.00  0.00     0.052 C 
HETATM   14  C9  UNL     1      -2.607   2.983  12.790  1.00  0.00     0.028 C 
HETATM   15  C20 UNL     1      -2.349   3.335  14.227  1.00  0.00     0.052 C 
HETATM   16  C21 UNL     1      -3.354   2.724  15.196  1.00  0.00     0.069 C 
BRANCH  14  17
HETATM   17  C10 UNL     1      -2.531   4.303  12.066  1.00  0.00     0.230 C 
HETATM   18  C11 UNL     1      -3.464   4.591  10.955  1.00  0.00     0.066 C 
HETATM   19  C12 UNL     1      -2.514   3.844  10.088  1.00  0.00     0.275 C 
HETATM   20  N4  UNL     1      -1.441   4.282  11.034  1.00  0.00     0.102 N 
BRANCH  20  21
HETATM   21  C13 UNL     1      -0.444   3.289  11.222  1.00  0.00     0.375 C 
BRANCH  21  22
HETATM   22  C14 UNL     1       0.886   3.998  11.054  1.00  0.00     0.246 C 
HETATM   23  O1  UNL     1       1.231   4.496   9.959  1.00  0.00    -0.272 OA
HETATM   24  N5  UNL     1       1.722   4.067  12.225  1.00  0.00    -0.355 N 
ATOM     25  H5  UNL     1       1.456   3.612  13.098  1.00  0.00     0.162 HD
BRANCH  24  26
HETATM   26  C15 UNL     1       2.962   4.817  12.104  1.00  0.00     0.084 C 
HETATM   27  C16 UNL     1       2.809   6.224  12.575  1.00  0.00     0.025 C 
HETATM   28  C17 UNL     1       4.135   6.495  13.246  1.00  0.00     0.002 C 
HETATM   29  C18 UNL     1       4.431   5.167  13.898  1.00  0.00     0.002 C 
HETATM   30  C19 UNL     1       4.119   4.179  12.807  1.00  0.00     0.025 C 
ENDBRANCH  24  26
ENDBRANCH  21  22
ENDBRANCH  20  21
ENDBRANCH  14  17
ENDBRANCH  10  11
ENDBRANCH   9  10
TORSDOF 6
ENDMDL
