MODEL 1
REMARK VINA RESULT: -6.978774298      0.000      0.000
REMARK  7 active torsions:
REMARK  status: ('A' for Active; 'I' for Inactive)
REMARK    1  A    between atoms: C2_2  and  C3_3 
REMARK    2  A    between atoms: N1_7  and  C7_8 
REMARK    3  A    between atoms: N2_11  and  C10_12 
REMARK    4  A    between atoms: C10_12  and  C11_13 
REMARK    5  A    between atoms: C11_13  and  C12_14 
REMARK    6  A    between atoms: C15_21  and  N5_22 
REMARK    7  A    between atoms: N5_22  and  C16_24 
ROOT
HETATM    1  C11 UNL     1      -4.224   5.549  13.240  1.00  0.00     0.061 C 
ENDROOT
BRANCH   1   2
HETATM    2  C10 UNL     1      -5.027   5.082  12.070  1.00  0.00     0.130 C 
BRANCH   2   3
HETATM    3  N2  UNL     1      -5.491   6.175  11.260  1.00  0.00    -0.350 N 
HETATM    4  C9  UNL     1      -5.014   7.539  11.315  1.00  0.00     0.128 C 
HETATM    5  C8  UNL     1      -6.333   8.295  11.237  1.00  0.00     0.055 C 
HETATM    6  C7  UNL     1      -7.087   7.571  10.185  1.00  0.00     0.178 C 
HETATM    7  C19 UNL     1      -6.517   6.199  10.244  1.00  0.00     0.242 C 
HETATM    8  O1  UNL     1      -6.809   5.167   9.571  1.00  0.00    -0.271 OA
BRANCH   6   9
HETATM    9  N1  UNL     1      -7.095   8.054   8.901  1.00  0.00    -0.372 N 
HETATM   10  C3  UNL     1      -8.030   8.934   8.389  1.00  0.00     0.107 C 
HETATM   11  C4  UNL     1      -7.261   9.626   7.254  1.00  0.00     0.034 C 
HETATM   12  C5  UNL     1      -6.422   8.515   6.715  1.00  0.00     0.046 C 
HETATM   13  C6  UNL     1      -6.142   7.663   7.942  1.00  0.00     0.060 C 
BRANCH  10  14
HETATM   14  C2  UNL     1      -9.172   8.206   7.713  1.00  0.00    -0.012 C 
HETATM   15  C1  UNL     1     -10.372   8.750   7.638  1.00  0.00     0.009 C 
ENDBRANCH  10  14
ENDBRANCH   6   9
ENDBRANCH   2   3
ENDBRANCH   1   2
BRANCH   1  16
HETATM   16  C12 UNL     1      -3.471   4.524  13.954  1.00  0.00    -0.020 A 
HETATM   17  C13 UNL     1      -2.128   4.384  14.206  1.00  0.00     0.098 A 
HETATM   18  N3  UNL     1      -1.920   3.261  14.901  1.00  0.00    -0.351 N 
HETATM   19  C14 UNL     1      -3.101   2.608  15.142  1.00  0.00     0.125 A 
ATOM     20  H3  UNL     1      -1.006   2.934  15.211  1.00  0.00     0.166 HD
HETATM   21  N4  UNL     1      -3.501   1.507  15.748  1.00  0.00    -0.322 N 
HETATM   22  C18 UNL     1      -4.050   3.389  14.557  1.00  0.00     0.060 A 
HETATM   23  C15 UNL     1      -4.801   1.221  15.753  1.00  0.00     0.146 A 
ATOM     24  H4  UNL     1      -2.829   0.888  16.202  1.00  0.00     0.169 HD
HETATM   25  S1  UNL     1      -5.486   2.524  14.890  1.00  0.00    -0.050 SA
BRANCH  23  26
HETATM   26  N5  UNL     1      -5.393   0.178  16.298  1.00  0.00    -0.371 N 
ATOM     27  H5  UNL     1      -5.342  -0.733  15.841  1.00  0.00     0.161 HD
BRANCH  26  28
HETATM   28  C16 UNL     1      -6.113   0.320  17.540  1.00  0.00     0.117 C 
HETATM   29  C17 UNL     1      -7.564  -0.015  17.412  1.00  0.00     0.026 C 
ENDBRANCH  26  28
ENDBRANCH  23  26
ENDBRANCH   1  16
TORSDOF 7
ENDMDL
MODEL 2
REMARK VINA RESULT: -6.975545349      0.885      1.584
REMARK  7 active torsions:
REMARK  status: ('A' for Active; 'I' for Inactive)
REMARK    1  A    between atoms: C2_2  and  C3_3 
REMARK    2  A    between atoms: N1_7  and  C7_8 
REMARK    3  A    between atoms: N2_11  and  C10_12 
REMARK    4  A    between atoms: C10_12  and  C11_13 
REMARK    5  A    between atoms: C11_13  and  C12_14 
REMARK    6  A    between atoms: C15_21  and  N5_22 
REMARK    7  A    between atoms: N5_22  and  C16_24 
ROOT
HETATM    1  C11 UNL     1      -4.070   5.385  13.076  1.00  0.00     0.061 C 
ENDROOT
BRANCH   1   2
HETATM    2  C10 UNL     1      -4.511   4.941  11.720  1.00  0.00     0.130 C 
BRANCH   2   3
HETATM    3  N2  UNL     1      -5.489   5.828  11.151  1.00  0.00    -0.350 N 
HETATM    4  C9  UNL     1      -6.068   6.986  11.796  1.00  0.00     0.128 C 
HETATM    5  C8  UNL     1      -7.529   6.817  11.405  1.00  0.00     0.055 C 
HETATM    6  C7  UNL     1      -7.464   6.433   9.975  1.00  0.00     0.178 C 
HETATM    7  C19 UNL     1      -6.131   5.785   9.858  1.00  0.00     0.242 C 
HETATM    8  O1  UNL     1      -5.567   5.258   8.854  1.00  0.00    -0.271 OA
BRANCH   6   9
HETATM    9  N1  UNL     1      -7.641   7.389   9.006  1.00  0.00    -0.372 N 
HETATM   10  C3  UNL     1      -6.694   8.319   8.624  1.00  0.00     0.107 C 
HETATM   11  C4  UNL     1      -7.102   8.650   7.182  1.00  0.00     0.034 C 
HETATM   12  C5  UNL     1      -8.593   8.602   7.255  1.00  0.00     0.046 C 
HETATM   13  C6  UNL     1      -8.856   7.541   8.311  1.00  0.00     0.060 C 
BRANCH  10  14
HETATM   14  C2  UNL     1      -6.841   9.617   9.390  1.00  0.00    -0.012 C 
HETATM   15  C1  UNL     1      -5.823  10.131  10.054  1.00  0.00     0.009 C 
ENDBRANCH  10  14
ENDBRANCH   6   9
ENDBRANCH   2   3
ENDBRANCH   1   2
BRANCH   1  16
HETATM   16  C12 UNL     1      -3.361   4.394  13.879  1.00  0.00    -0.020 A 
HETATM   17  C13 UNL     1      -2.035   4.265  14.213  1.00  0.00     0.098 A 
HETATM   18  N3  UNL     1      -1.871   3.176  14.970  1.00  0.00    -0.351 N 
HETATM   19  C14 UNL     1      -3.065   2.536  15.174  1.00  0.00     0.125 A 
ATOM     20  H3  UNL     1      -0.976   2.864  15.347  1.00  0.00     0.166 HD
HETATM   21  N4  UNL     1      -3.502   1.465  15.807  1.00  0.00    -0.322 N 
HETATM   22  C18 UNL     1      -3.977   3.290  14.500  1.00  0.00     0.060 A 
HETATM   23  C15 UNL     1      -4.801   1.180  15.751  1.00  0.00     0.146 A 
ATOM     24  H4  UNL     1      -2.859   0.867  16.326  1.00  0.00     0.169 HD
HETATM   25  S1  UNL     1      -5.432   2.442  14.792  1.00  0.00    -0.050 SA
BRANCH  23  26
HETATM   26  N5  UNL     1      -5.426   0.164  16.311  1.00  0.00    -0.371 N 
ATOM     27  H5  UNL     1      -5.372  -0.763  15.887  1.00  0.00     0.161 HD
BRANCH  26  28
HETATM   28  C16 UNL     1      -6.187   0.358  17.520  1.00  0.00     0.117 C 
HETATM   29  C17 UNL     1      -7.627  -0.016  17.368  1.00  0.00     0.026 C 
ENDBRANCH  26  28
ENDBRANCH  23  26
ENDBRANCH   1  16
TORSDOF 7
ENDMDL
MODEL 3
REMARK VINA RESULT: -6.934316896      1.151      1.644
REMARK  7 active torsions:
REMARK  status: ('A' for Active; 'I' for Inactive)
REMARK    1  A    between atoms: C2_2  and  C3_3 
REMARK    2  A    between atoms: N1_7  and  C7_8 
REMARK    3  A    between atoms: N2_11  and  C10_12 
REMARK    4  A    between atoms: C10_12  and  C11_13 
REMARK    5  A    between atoms: C11_13  and  C12_14 
REMARK    6  A    between atoms: C15_21  and  N5_22 
REMARK    7  A    between atoms: N5_22  and  C16_24 
ROOT
HETATM    1  C11 UNL     1      -4.112   5.622  13.721  1.00  0.00     0.061 C 
ENDROOT
BRANCH   1   2
HETATM    2  C10 UNL     1      -5.431   5.307  13.094  1.00  0.00     0.130 C 
BRANCH   2   3
HETATM    3  N2  UNL     1      -5.670   6.091  11.913  1.00  0.00    -0.350 N 
HETATM    4  C9  UNL     1      -4.818   6.155  10.745  1.00  0.00     0.128 C 
HETATM    5  C8  UNL     1      -4.840   7.652  10.472  1.00  0.00     0.055 C 
HETATM    6  C7  UNL     1      -6.265   8.018  10.656  1.00  0.00     0.178 C 
HETATM    7  C19 UNL     1      -6.759   6.987  11.607  1.00  0.00     0.242 C 
HETATM    8  O1  UNL     1      -7.908   6.836  12.117  1.00  0.00    -0.271 OA
BRANCH   6   9
HETATM    9  N1  UNL     1      -7.085   8.125   9.562  1.00  0.00    -0.372 N 
HETATM   10  C3  UNL     1      -8.020   7.184   9.174  1.00  0.00     0.107 C 
HETATM   11  C4  UNL     1      -9.042   8.019   8.390  1.00  0.00     0.034 C 
HETATM   12  C5  UNL     1      -8.172   9.019   7.700  1.00  0.00     0.046 C 
HETATM   13  C6  UNL     1      -7.030   9.222   8.681  1.00  0.00     0.060 C 
BRANCH  10  14
HETATM   14  C2  UNL     1      -7.448   6.206   8.170  1.00  0.00    -0.012 C 
HETATM   15  C1  UNL     1      -7.777   4.928   8.203  1.00  0.00     0.009 C 
ENDBRANCH  10  14
ENDBRANCH   6   9
ENDBRANCH   2   3
ENDBRANCH   1   2
BRANCH   1  16
HETATM   16  C12 UNL     1      -3.389   4.494  14.300  1.00  0.00    -0.020 A 
HETATM   17  C13 UNL     1      -2.048   4.267  14.490  1.00  0.00     0.098 A 
HETATM   18  N3  UNL     1      -1.876   3.070  15.060  1.00  0.00    -0.351 N 
HETATM   19  C14 UNL     1      -3.080   2.451  15.274  1.00  0.00     0.125 A 
ATOM     20  H3  UNL     1      -0.970   2.671  15.303  1.00  0.00     0.166 HD
HETATM   21  N4  UNL     1      -3.516   1.313  15.777  1.00  0.00    -0.322 N 
HETATM   22  C18 UNL     1      -4.006   3.332  14.805  1.00  0.00     0.060 A 
HETATM   23  C15 UNL     1      -4.828   1.089  15.799  1.00  0.00     0.146 A 
ATOM     24  H4  UNL     1      -2.862   0.620  16.143  1.00  0.00     0.169 HD
HETATM   25  S1  UNL     1      -5.473   2.505  15.098  1.00  0.00    -0.050 SA
BRANCH  23  26
HETATM   26  N5  UNL     1      -5.454   0.024  16.255  1.00  0.00    -0.371 N 
ATOM     27  H5  UNL     1      -5.446  -0.842  15.716  1.00  0.00     0.161 HD
BRANCH  26  28
HETATM   28  C16 UNL     1      -6.152   0.078  17.516  1.00  0.00     0.117 C 
HETATM   29  C17 UNL     1      -7.639   0.053  17.360  1.00  0.00     0.026 C 
ENDBRANCH  26  28
ENDBRANCH  23  26
ENDBRANCH   1  16
TORSDOF 7
ENDMDL
MODEL 4
REMARK VINA RESULT: -6.873484986      1.849      2.709
REMARK  7 active torsions:
REMARK  status: ('A' for Active; 'I' for Inactive)
REMARK    1  A    between atoms: C2_2  and  C3_3 
REMARK    2  A    between atoms: N1_7  and  C7_8 
REMARK    3  A    between atoms: N2_11  and  C10_12 
REMARK    4  A    between atoms: C10_12  and  C11_13 
REMARK    5  A    between atoms: C11_13  and  C12_14 
REMARK    6  A    between atoms: C15_21  and  N5_22 
REMARK    7  A    between atoms: N5_22  and  C16_24 
ROOT
HETATM    1  C11 UNL     1      -3.295   4.205  13.765  1.00  0.00     0.061 C 
ENDROOT
BRANCH   1   2
HETATM    2  C10 UNL     1      -4.525   5.052  13.819  1.00  0.00     0.130 C 
BRANCH   2   3
HETATM    3  N2  UNL     1      -4.891   5.557  12.523  1.00  0.00    -0.350 N 
HETATM    4  C9  UNL     1      -4.034   5.625  11.360  1.00  0.00     0.128 C 
HETATM    5  C8  UNL     1      -4.385   7.013  10.842  1.00  0.00     0.055 C 
HETATM    6  C7  UNL     1      -5.861   7.067  10.964  1.00  0.00     0.178 C 
HETATM    7  C19 UNL     1      -6.144   6.118  12.074  1.00  0.00     0.242 C 
HETATM    8  O1  UNL     1      -7.246   5.792  12.604  1.00  0.00    -0.271 OA
BRANCH   6   9
HETATM    9  N1  UNL     1      -6.644   6.803   9.869  1.00  0.00    -0.372 N 
HETATM   10  C3  UNL     1      -6.508   5.704   9.041  1.00  0.00     0.107 C 
HETATM   11  C4  UNL     1      -7.919   5.539   8.459  1.00  0.00     0.034 C 
HETATM   12  C5  UNL     1      -8.366   6.955   8.301  1.00  0.00     0.046 C 
HETATM   13  C6  UNL     1      -7.670   7.669   9.449  1.00  0.00     0.060 C 
BRANCH  10  14
HETATM   14  C2  UNL     1      -5.618   6.003   7.854  1.00  0.00    -0.012 C 
HETATM   15  C1  UNL     1      -5.212   5.038   7.050  1.00  0.00     0.009 C 
ENDBRANCH  10  14
ENDBRANCH   6   9
ENDBRANCH   2   3
ENDBRANCH   1   2
BRANCH   1  16
HETATM   16  C12 UNL     1      -3.501   2.790  13.475  1.00  0.00    -0.020 A 
HETATM   17  C13 UNL     1      -3.321   2.056  12.328  1.00  0.00     0.098 A 
HETATM   18  N3  UNL     1      -3.657   0.783  12.558  1.00  0.00    -0.351 N 
HETATM   19  C14 UNL     1      -4.071   0.611  13.853  1.00  0.00     0.125 A 
ATOM     20  H3  UNL     1      -3.610   0.038  11.862  1.00  0.00     0.166 HD
HETATM   21  N4  UNL     1      -4.502  -0.374  14.616  1.00  0.00    -0.322 N 
HETATM   22  C18 UNL     1      -3.973   1.849  14.410  1.00  0.00     0.060 A 
HETATM   23  C15 UNL     1      -4.817  -0.105  15.882  1.00  0.00     0.146 A 
ATOM     24  H4  UNL     1      -4.593  -1.320  14.246  1.00  0.00     0.169 HD
HETATM   25  S1  UNL     1      -4.502   1.567  16.011  1.00  0.00    -0.050 SA
BRANCH  23  26
HETATM   26  N5  UNL     1      -5.262  -0.944  16.795  1.00  0.00    -0.371 N 
ATOM     27  H5  UNL     1      -4.999  -1.929  16.753  1.00  0.00     0.161 HD
BRANCH  26  28
HETATM   28  C16 UNL     1      -6.120  -0.474  17.854  1.00  0.00     0.117 C 
HETATM   29  C17 UNL     1      -7.492  -0.119  17.376  1.00  0.00     0.026 C 
ENDBRANCH  26  28
ENDBRANCH  23  26
ENDBRANCH   1  16
TORSDOF 7
ENDMDL
MODEL 5
REMARK VINA RESULT: -6.819138441      1.651      2.248
REMARK  7 active torsions:
REMARK  status: ('A' for Active; 'I' for Inactive)
REMARK    1  A    between atoms: C2_2  and  C3_3 
REMARK    2  A    between atoms: N1_7  and  C7_8 
REMARK    3  A    between atoms: N2_11  and  C10_12 
REMARK    4  A    between atoms: C10_12  and  C11_13 
REMARK    5  A    between atoms: C11_13  and  C12_14 
REMARK    6  A    between atoms: C15_21  and  N5_22 
REMARK    7  A    between atoms: N5_22  and  C16_24 
ROOT
HETATM    1  C11 UNL     1      -4.386   4.224  12.653  1.00  0.00     0.061 C 
ENDROOT
BRANCH   1   2
HETATM    2  C10 UNL     1      -4.064   4.928  11.376  1.00  0.00     0.130 C 
BRANCH   2   3
HETATM    3  N2  UNL     1      -5.130   5.797  10.953  1.00  0.00    -0.350 N 
HETATM    4  C9  UNL     1      -5.613   6.961  11.662  1.00  0.00     0.128 C 
HETATM    5  C8  UNL     1      -7.115   6.772  11.508  1.00  0.00     0.055 C 
HETATM    6  C7  UNL     1      -7.271   6.363  10.092  1.00  0.00     0.178 C 
HETATM    7  C19 UNL     1      -5.965   5.725   9.778  1.00  0.00     0.242 C 
HETATM    8  O1  UNL     1      -5.561   5.185   8.707  1.00  0.00    -0.271 OA
BRANCH   6   9
HETATM    9  N1  UNL     1      -7.609   7.300   9.148  1.00  0.00    -0.372 N 
HETATM   10  C3  UNL     1      -6.794   8.333   8.725  1.00  0.00     0.107 C 
HETATM   11  C4  UNL     1      -7.320   8.627   7.313  1.00  0.00     0.034 C 
HETATM   12  C5  UNL     1      -8.789   8.412   7.470  1.00  0.00     0.046 C 
HETATM   13  C6  UNL     1      -8.871   7.321   8.524  1.00  0.00     0.060 C 
BRANCH  10  14
HETATM   14  C2  UNL     1      -7.041   9.601   9.515  1.00  0.00    -0.012 C 
HETATM   15  C1  UNL     1      -6.045  10.238  10.103  1.00  0.00     0.009 C 
ENDBRANCH  10  14
ENDBRANCH   6   9
ENDBRANCH   2   3
ENDBRANCH   1   2
BRANCH   1  16
HETATM   16  C12 UNL     1      -4.327   2.766  12.616  1.00  0.00    -0.020 A 
HETATM   17  C13 UNL     1      -4.126   1.885  11.582  1.00  0.00     0.098 A 
HETATM   18  N3  UNL     1      -4.166   0.634  12.050  1.00  0.00    -0.351 N 
HETATM   19  C14 UNL     1      -4.394   0.622  13.401  1.00  0.00     0.125 A 
ATOM     20  H3  UNL     1      -4.044  -0.202  11.478  1.00  0.00     0.166 HD
HETATM   21  N4  UNL     1      -4.529  -0.272  14.360  1.00  0.00    -0.322 N 
HETATM   22  C18 UNL     1      -4.492   1.936  13.743  1.00  0.00     0.060 A 
HETATM   23  C15 UNL     1      -4.752   0.155  15.601  1.00  0.00     0.146 A 
ATOM     24  H4  UNL     1      -4.463  -1.270  14.156  1.00  0.00     0.169 HD
HETATM   25  S1  UNL     1      -4.775   1.852  15.426  1.00  0.00    -0.050 SA
BRANCH  23  26
HETATM   26  N5  UNL     1      -4.914  -0.575  16.686  1.00  0.00    -0.371 N 
ATOM     27  H5  UNL     1      -4.421  -1.462  16.781  1.00  0.00     0.161 HD
BRANCH  26  28
HETATM   28  C16 UNL     1      -5.788  -0.122  17.740  1.00  0.00     0.117 C 
HETATM   29  C17 UNL     1      -7.233  -0.182  17.364  1.00  0.00     0.026 C 
ENDBRANCH  26  28
ENDBRANCH  23  26
ENDBRANCH   1  16
TORSDOF 7
ENDMDL
