MODEL 1
REMARK VINA RESULT: -7.069990742      0.000      0.000
REMARK  8 active torsions:
REMARK  status: ('A' for Active; 'I' for Inactive)
REMARK    1  A    between atoms: C2_2  and  C4_4 
REMARK    2  A    between atoms: C4_4  and  N1_5 
REMARK    3  A    between atoms: C4_4  and  C12_17 
REMARK       I    between atoms: N1_5  and  C5_7 
REMARK       I    between atoms: C5_7  and  N2_9 
REMARK    4  A    between atoms: N2_9  and  C6_11 
REMARK    5  A    between atoms: C12_17  and  O3_19 
REMARK    6  A    between atoms: O3_19  and  C13_20 
REMARK    7  A    between atoms: C13_20  and  C14_22 
REMARK    8  A    between atoms: C14_22  and  N3_24 
ROOT
HETATM    1  C4  UNL     1      -3.978  -0.005  12.486  1.00  0.00     0.190 C 
ENDROOT
BRANCH   1   2
HETATM    2  C2  UNL     1      -4.518  -1.271  11.847  1.00  0.00     0.010 C 
HETATM    3  C1  UNL     1      -5.102  -0.978  10.485  1.00  0.00     0.012 C 
HETATM    4  C3  UNL     1      -3.364  -2.238  11.660  1.00  0.00     0.012 C 
ENDBRANCH   1   2
BRANCH   1   5
HETATM    5  N1  UNL     1      -4.605   1.107  11.802  1.00  0.00    -0.329 N 
HETATM    6  C5  UNL     1      -3.856   2.223  11.365  1.00  0.00     0.317 C 
HETATM    7  O1  UNL     1      -2.618   2.256  11.575  1.00  0.00    -0.247 OA
HETATM    8  N2  UNL     1      -4.473   3.308  10.695  1.00  0.00    -0.339 N 
ATOM      9  H2  UNL     1      -5.478   3.276  10.528  1.00  0.00     0.164 HD
ATOM     10  H1  UNL     1      -5.610   1.084  11.631  1.00  0.00     0.165 HD
BRANCH   8  11
HETATM   11  C6  UNL     1      -3.730   4.453  10.243  1.00  0.00     0.086 C 
HETATM   12  C7  UNL     1      -4.021   4.808   8.819  1.00  0.00     0.025 C 
HETATM   13  C8  UNL     1      -5.026   5.897   8.645  1.00  0.00     0.002 C 
HETATM   14  C9  UNL     1      -5.992   6.031   9.779  1.00  0.00     0.000 C 
HETATM   15  C10 UNL     1      -5.346   6.155  11.121  1.00  0.00     0.002 C 
HETATM   16  C11 UNL     1      -3.928   5.670  11.125  1.00  0.00     0.025 C 
ENDBRANCH   8  11
ENDBRANCH   1   5
BRANCH   1  17
HETATM   17  C12 UNL     1      -4.255   0.024  13.944  1.00  0.00     0.289 C 
HETATM   18  O2  UNL     1      -4.850  -0.925  14.532  1.00  0.00    -0.262 OA
BRANCH  17  19
HETATM   19  O3  UNL     1      -3.862   1.100  14.691  1.00  0.00    -0.242 OA
BRANCH  19  20
HETATM   20  C13 UNL     1      -4.307   1.316  15.978  1.00  0.00     0.299 C 
HETATM   21  O4  UNL     1      -3.839   0.615  16.899  1.00  0.00    -0.262 OA
BRANCH  20  22
HETATM   22  C14 UNL     1      -5.317   2.363  16.222  1.00  0.00     0.318 C 
HETATM   23  C15 UNL     1      -6.590   1.748  16.698  1.00  0.00     0.054 C 
BRANCH  22  24
HETATM   24  N3  UNL     1      -5.475   3.257  15.103  1.00  0.00     0.102 N 
HETATM   25  C16 UNL     1      -4.471   4.265  15.025  1.00  0.00     0.273 C 
HETATM   26  C17 UNL     1      -5.185   5.604  15.200  1.00  0.00     0.032 C 
HETATM   27  C18 UNL     1      -6.519   5.309  14.542  1.00  0.00     0.032 C 
HETATM   28  C19 UNL     1      -6.762   3.872  15.020  1.00  0.00     0.273 C 
ENDBRANCH  22  24
ENDBRANCH  20  22
ENDBRANCH  19  20
ENDBRANCH  17  19
ENDBRANCH   1  17
TORSDOF 8
ENDMDL
MODEL 2
REMARK VINA RESULT: -6.996594386      2.887      3.991
REMARK  8 active torsions:
REMARK  status: ('A' for Active; 'I' for Inactive)
REMARK    1  A    between atoms: C2_2  and  C4_4 
REMARK    2  A    between atoms: C4_4  and  N1_5 
REMARK    3  A    between atoms: C4_4  and  C12_17 
REMARK       I    between atoms: N1_5  and  C5_7 
REMARK       I    between atoms: C5_7  and  N2_9 
REMARK    4  A    between atoms: N2_9  and  C6_11 
REMARK    5  A    between atoms: C12_17  and  O3_19 
REMARK    6  A    between atoms: O3_19  and  C13_20 
REMARK    7  A    between atoms: C13_20  and  C14_22 
REMARK    8  A    between atoms: C14_22  and  N3_24 
ROOT
HETATM    1  C4  UNL     1      -3.587   1.126  12.435  1.00  0.00     0.190 C 
ENDROOT
BRANCH   1   2
HETATM    2  C2  UNL     1      -3.935  -0.297  12.035  1.00  0.00     0.010 C 
HETATM    3  C1  UNL     1      -2.722  -1.011  11.486  1.00  0.00     0.012 C 
HETATM    4  C3  UNL     1      -4.390  -1.041  13.277  1.00  0.00     0.012 C 
ENDBRANCH   1   2
BRANCH   1   5
HETATM    5  N1  UNL     1      -2.657   1.623  11.442  1.00  0.00    -0.329 N 
HETATM    6  C5  UNL     1      -1.603   2.496  11.788  1.00  0.00     0.317 C 
HETATM    7  O1  UNL     1      -1.466   2.855  12.985  1.00  0.00    -0.247 OA
HETATM    8  N2  UNL     1      -0.695   2.980  10.814  1.00  0.00    -0.339 N 
ATOM      9  H2  UNL     1      -0.812   2.686   9.844  1.00  0.00     0.164 HD
ATOM     10  H1  UNL     1      -2.767   1.335  10.470  1.00  0.00     0.165 HD
BRANCH   8  11
HETATM   11  C6  UNL     1       0.384   3.870  11.144  1.00  0.00     0.086 C 
HETATM   12  C7  UNL     1       1.625   3.596  10.354  1.00  0.00     0.025 C 
HETATM   13  C8  UNL     1       1.804   4.473   9.160  1.00  0.00     0.002 C 
HETATM   14  C9  UNL     1       0.529   5.017   8.598  1.00  0.00     0.000 C 
HETATM   15  C10 UNL     1      -0.334   5.709   9.601  1.00  0.00     0.002 C 
HETATM   16  C11 UNL     1       0.004   5.331  11.012  1.00  0.00     0.025 C 
ENDBRANCH   8  11
ENDBRANCH   1   5
BRANCH   1  17
HETATM   17  C12 UNL     1      -4.802   1.974  12.520  1.00  0.00     0.289 C 
HETATM   18  O2  UNL     1      -5.837   1.734  11.834  1.00  0.00    -0.262 OA
BRANCH  17  19
HETATM   19  O3  UNL     1      -4.822   3.053  13.361  1.00  0.00    -0.242 OA
BRANCH  19  20
HETATM   20  C13 UNL     1      -5.725   3.173  14.397  1.00  0.00     0.299 C 
HETATM   21  O4  UNL     1      -6.851   3.657  14.157  1.00  0.00    -0.262 OA
BRANCH  20  22
HETATM   22  C14 UNL     1      -5.331   2.728  15.747  1.00  0.00     0.318 C 
HETATM   23  C15 UNL     1      -3.859   2.493  15.802  1.00  0.00     0.054 C 
BRANCH  22  24
HETATM   24  N3  UNL     1      -6.125   1.623  16.223  1.00  0.00     0.102 N 
HETATM   25  C16 UNL     1      -7.018   1.968  17.278  1.00  0.00     0.273 C 
HETATM   26  C17 UNL     1      -6.574   1.169  18.502  1.00  0.00     0.032 C 
HETATM   27  C18 UNL     1      -6.061  -0.100  17.849  1.00  0.00     0.032 C 
HETATM   28  C19 UNL     1      -5.362   0.478  16.611  1.00  0.00     0.273 C 
ENDBRANCH  22  24
ENDBRANCH  20  22
ENDBRANCH  19  20
ENDBRANCH  17  19
ENDBRANCH   1  17
TORSDOF 8
ENDMDL
MODEL 3
REMARK VINA RESULT: -6.978686322      2.474      5.517
REMARK  8 active torsions:
REMARK  status: ('A' for Active; 'I' for Inactive)
REMARK    1  A    between atoms: C2_2  and  C4_4 
REMARK    2  A    between atoms: C4_4  and  N1_5 
REMARK    3  A    between atoms: C4_4  and  C12_17 
REMARK       I    between atoms: N1_5  and  C5_7 
REMARK       I    between atoms: C5_7  and  N2_9 
REMARK    4  A    between atoms: N2_9  and  C6_11 
REMARK    5  A    between atoms: C12_17  and  O3_19 
REMARK    6  A    between atoms: O3_19  and  C13_20 
REMARK    7  A    between atoms: C13_20  and  C14_22 
REMARK    8  A    between atoms: C14_22  and  N3_24 
ROOT
HETATM    1  C4  UNL     1      -4.267   5.942  13.144  1.00  0.00     0.190 C 
ENDROOT
BRANCH   1   2
HETATM    2  C2  UNL     1      -3.464   6.870  14.037  1.00  0.00     0.010 C 
HETATM    3  C1  UNL     1      -2.444   6.094  14.836  1.00  0.00     0.012 C 
HETATM    4  C3  UNL     1      -2.714   7.848  13.152  1.00  0.00     0.012 C 
ENDBRANCH   1   2
BRANCH   1   5
HETATM    5  N1  UNL     1      -3.529   4.699  13.062  1.00  0.00    -0.329 N 
HETATM    6  C5  UNL     1      -3.767   3.764  12.030  1.00  0.00     0.317 C 
HETATM    7  O1  UNL     1      -4.640   4.012  11.162  1.00  0.00    -0.247 OA
HETATM    8  N2  UNL     1      -3.042   2.549  11.954  1.00  0.00    -0.339 N 
ATOM      9  H2  UNL     1      -2.334   2.353  12.662  1.00  0.00     0.164 HD
ATOM     10  H1  UNL     1      -2.820   4.494  13.767  1.00  0.00     0.165 HD
BRANCH   8  11
HETATM   11  C6  UNL     1      -3.269   1.583  10.913  1.00  0.00     0.086 C 
HETATM   12  C7  UNL     1      -2.253   0.484  10.911  1.00  0.00     0.025 C 
HETATM   13  C8  UNL     1      -2.689  -0.762  11.605  1.00  0.00     0.002 C 
HETATM   14  C9  UNL     1      -3.722  -0.548  12.666  1.00  0.00     0.000 C 
HETATM   15  C10 UNL     1      -4.922   0.214  12.205  1.00  0.00     0.002 C 
HETATM   16  C11 UNL     1      -4.663   0.993  10.951  1.00  0.00     0.025 C 
ENDBRANCH   8  11
ENDBRANCH   1   5
BRANCH   1  17
HETATM   17  C12 UNL     1      -5.637   5.731  13.677  1.00  0.00     0.289 C 
HETATM   18  O2  UNL     1      -6.665   6.145  13.068  1.00  0.00    -0.262 OA
BRANCH  17  19
HETATM   19  O3  UNL     1      -5.811   5.071  14.863  1.00  0.00    -0.242 OA
BRANCH  19  20
HETATM   20  C13 UNL     1      -6.073   3.719  14.931  1.00  0.00     0.299 C 
HETATM   21  O4  UNL     1      -6.858   3.218  14.099  1.00  0.00    -0.262 OA
BRANCH  20  22
HETATM   22  C14 UNL     1      -5.419   2.914  15.979  1.00  0.00     0.318 C 
HETATM   23  C15 UNL     1      -4.024   2.577  15.574  1.00  0.00     0.054 C 
BRANCH  22  24
HETATM   24  N3  UNL     1      -6.208   1.777  16.383  1.00  0.00     0.102 N 
HETATM   25  C16 UNL     1      -7.074   2.039  17.483  1.00  0.00     0.273 C 
HETATM   26  C17 UNL     1      -6.607   1.141  18.627  1.00  0.00     0.032 C 
HETATM   27  C18 UNL     1      -6.118  -0.073  17.861  1.00  0.00     0.032 C 
HETATM   28  C19 UNL     1      -5.444   0.601  16.658  1.00  0.00     0.273 C 
ENDBRANCH  22  24
ENDBRANCH  20  22
ENDBRANCH  19  20
ENDBRANCH  17  19
ENDBRANCH   1  17
TORSDOF 8
ENDMDL
MODEL 4
REMARK VINA RESULT: -6.956744370      2.089      2.452
REMARK  8 active torsions:
REMARK  status: ('A' for Active; 'I' for Inactive)
REMARK    1  A    between atoms: C2_2  and  C4_4 
REMARK    2  A    between atoms: C4_4  and  N1_5 
REMARK    3  A    between atoms: C4_4  and  C12_17 
REMARK       I    between atoms: N1_5  and  C5_7 
REMARK       I    between atoms: C5_7  and  N2_9 
REMARK    4  A    between atoms: N2_9  and  C6_11 
REMARK    5  A    between atoms: C12_17  and  O3_19 
REMARK    6  A    between atoms: O3_19  and  C13_20 
REMARK    7  A    between atoms: C13_20  and  C14_22 
REMARK    8  A    between atoms: C14_22  and  N3_24 
ROOT
HETATM    1  C4  UNL     1      -3.284  -0.103  12.165  1.00  0.00     0.190 C 
ENDROOT
BRANCH   1   2
HETATM    2  C2  UNL     1      -3.891  -1.287  11.435  1.00  0.00     0.010 C 
HETATM    3  C1  UNL     1      -3.992  -1.010   9.954  1.00  0.00     0.012 C 
HETATM    4  C3  UNL     1      -2.974  -2.481  11.622  1.00  0.00     0.012 C 
ENDBRANCH   1   2
BRANCH   1   5
HETATM    5  N1  UNL     1      -2.801   0.809  11.149  1.00  0.00    -0.329 N 
HETATM    6  C5  UNL     1      -1.760   1.727  11.415  1.00  0.00     0.317 C 
HETATM    7  O1  UNL     1      -1.241   1.757  12.558  1.00  0.00    -0.247 OA
HETATM    8  N2  UNL     1      -1.290   2.618  10.418  1.00  0.00    -0.339 N 
ATOM      9  H2  UNL     1      -1.716   2.589   9.492  1.00  0.00     0.164 HD
ATOM     10  H1  UNL     1      -3.221   0.788  10.220  1.00  0.00     0.165 HD
BRANCH   8  11
HETATM   11  C6  UNL     1      -0.233   3.560  10.667  1.00  0.00     0.086 C 
HETATM   12  C7  UNL     1       0.663   3.753   9.484  1.00  0.00     0.025 C 
HETATM   13  C8  UNL     1       0.341   4.949   8.653  1.00  0.00     0.002 C 
HETATM   14  C9  UNL     1      -1.087   5.388   8.731  1.00  0.00     0.000 C 
HETATM   15  C10 UNL     1      -1.587   5.597  10.123  1.00  0.00     0.002 C 
HETATM   16  C11 UNL     1      -0.743   4.904  11.149  1.00  0.00     0.025 C 
ENDBRANCH   8  11
ENDBRANCH   1   5
BRANCH   1  17
HETATM   17  C12 UNL     1      -4.277   0.547  13.057  1.00  0.00     0.289 C 
HETATM   18  O2  UNL     1      -5.452   0.810  12.672  1.00  0.00    -0.262 OA
BRANCH  17  19
HETATM   19  O3  UNL     1      -3.927   0.879  14.337  1.00  0.00    -0.242 OA
BRANCH  19  20
HETATM   20  C13 UNL     1      -4.823   0.850  15.385  1.00  0.00     0.299 C 
HETATM   21  O4  UNL     1      -5.212  -0.258  15.811  1.00  0.00    -0.262 OA
BRANCH  20  22
HETATM   22  C14 UNL     1      -5.290   2.123  15.964  1.00  0.00     0.318 C 
HETATM   23  C15 UNL     1      -6.531   1.901  16.762  1.00  0.00     0.054 C 
BRANCH  22  24
HETATM   24  N3  UNL     1      -5.399   3.175  14.984  1.00  0.00     0.102 N 
HETATM   25  C16 UNL     1      -4.408   4.190  15.116  1.00  0.00     0.273 C 
HETATM   26  C17 UNL     1      -5.150   5.482  15.449  1.00  0.00     0.032 C 
HETATM   27  C18 UNL     1      -6.441   5.281  14.677  1.00  0.00     0.032 C 
HETATM   28  C19 UNL     1      -6.689   3.787  14.920  1.00  0.00     0.273 C 
ENDBRANCH  22  24
ENDBRANCH  20  22
ENDBRANCH  19  20
ENDBRANCH  17  19
ENDBRANCH   1  17
TORSDOF 8
ENDMDL
MODEL 5
REMARK VINA RESULT: -6.942313477      2.376      3.449
REMARK  8 active torsions:
REMARK  status: ('A' for Active; 'I' for Inactive)
REMARK    1  A    between atoms: C2_2  and  C4_4 
REMARK    2  A    between atoms: C4_4  and  N1_5 
REMARK    3  A    between atoms: C4_4  and  C12_17 
REMARK       I    between atoms: N1_5  and  C5_7 
REMARK       I    between atoms: C5_7  and  N2_9 
REMARK    4  A    between atoms: N2_9  and  C6_11 
REMARK    5  A    between atoms: C12_17  and  O3_19 
REMARK    6  A    between atoms: O3_19  and  C13_20 
REMARK    7  A    between atoms: C13_20  and  C14_22 
REMARK    8  A    between atoms: C14_22  and  N3_24 
ROOT
HETATM    1  C4  UNL     1      -3.120  -0.021  12.096  1.00  0.00     0.190 C 
ENDROOT
BRANCH   1   2
HETATM    2  C2  UNL     1      -3.520  -1.122  11.131  1.00  0.00     0.010 C 
HETATM    3  C1  UNL     1      -3.346  -2.481  11.766  1.00  0.00     0.012 C 
HETATM    4  C3  UNL     1      -4.990  -0.950  10.797  1.00  0.00     0.012 C 
ENDBRANCH   1   2
BRANCH   1   5
HETATM    5  N1  UNL     1      -2.845   1.155  11.296  1.00  0.00    -0.329 N 
HETATM    6  C5  UNL     1      -1.765   2.015  11.593  1.00  0.00     0.317 C 
HETATM    7  O1  UNL     1      -1.024   1.759  12.574  1.00  0.00    -0.247 OA
HETATM    8  N2  UNL     1      -1.498   3.163  10.807  1.00  0.00    -0.339 N 
ATOM      9  H2  UNL     1      -2.104   3.366  10.012  1.00  0.00     0.164 HD
ATOM     10  H1  UNL     1      -3.446   1.366  10.499  1.00  0.00     0.165 HD
BRANCH   8  11
HETATM   11  C6  UNL     1      -0.406   4.053  11.092  1.00  0.00     0.086 C 
HETATM   12  C7  UNL     1       0.868   3.638  10.425  1.00  0.00     0.025 C 
HETATM   13  C8  UNL     1       1.156   4.349   9.145  1.00  0.00     0.002 C 
HETATM   14  C9  UNL     1      -0.059   4.859   8.437  1.00  0.00     0.000 C 
HETATM   15  C10 UNL     1      -0.953   5.702   9.288  1.00  0.00     0.002 C 
HETATM   16  C11 UNL     1      -0.716   5.497  10.753  1.00  0.00     0.025 C 
ENDBRANCH   8  11
ENDBRANCH   1   5
BRANCH   1  17
HETATM   17  C12 UNL     1      -4.188   0.235  13.095  1.00  0.00     0.289 C 
HETATM   18  O2  UNL     1      -4.594  -0.664  13.887  1.00  0.00    -0.262 OA
BRANCH  17  19
HETATM   19  O3  UNL     1      -4.763   1.474  13.175  1.00  0.00    -0.242 OA
BRANCH  19  20
HETATM   20  C13 UNL     1      -4.684   2.258  14.306  1.00  0.00     0.299 C 
HETATM   21  O4  UNL     1      -3.577   2.738  14.628  1.00  0.00    -0.262 OA
BRANCH  20  22
HETATM   22  C14 UNL     1      -5.906   2.503  15.095  1.00  0.00     0.318 C 
HETATM   23  C15 UNL     1      -6.408   3.887  14.851  1.00  0.00     0.054 C 
BRANCH  22  24
HETATM   24  N3  UNL     1      -5.747   2.169  16.489  1.00  0.00     0.102 N 
HETATM   25  C16 UNL     1      -5.111   0.915  16.711  1.00  0.00     0.273 C 
HETATM   26  C17 UNL     1      -6.135   0.027  17.415  1.00  0.00     0.032 C 
HETATM   27  C18 UNL     1      -6.890   1.053  18.239  1.00  0.00     0.032 C 
HETATM   28  C19 UNL     1      -6.958   2.221  17.247  1.00  0.00     0.273 C 
ENDBRANCH  22  24
ENDBRANCH  20  22
ENDBRANCH  19  20
ENDBRANCH  17  19
ENDBRANCH   1  17
TORSDOF 8
ENDMDL
