MODEL 1
REMARK VINA RESULT: -7.804224822      0.000      0.000
REMARK  6 active torsions:
REMARK  status: ('A' for Active; 'I' for Inactive)
REMARK    1  A    between atoms: C2_2  and  C4_4 
REMARK    2  A    between atoms: C4_4  and  C5_5 
REMARK    3  A    between atoms: C6_9  and  C7_10 
REMARK    4  A    between atoms: C7_10  and  C8_11 
REMARK       I    between atoms: C8_11  and  N2_13 
REMARK    5  A    between atoms: N2_13  and  C10_15 
REMARK    6  A    between atoms: C17_22  and  N3_23 
ROOT
HETATM    1  C5  UNL     1      -1.932   1.557  11.633  1.00  0.00     0.220 C 
HETATM    2  N1  UNL     1      -2.835   1.908  12.749  1.00  0.00    -0.064 N 
ATOM      3  H11 UNL     1      -2.657   1.414  13.623  1.00  0.00     0.278 HD
ATOM      4  H12 UNL     1      -3.796   1.582  12.651  1.00  0.00     0.278 HD
HETATM    5  C6  UNL     1      -2.679   3.317  12.811  1.00  0.00     0.197 C 
HETATM    6  C16 UNL     1      -2.915   3.761  11.394  1.00  0.00     0.071 C 
HETATM    7  C17 UNL     1      -2.232   2.626  10.643  1.00  0.00     0.255 C 
ENDROOT
BRANCH   5   8
HETATM    8  C7  UNL     1      -3.440   4.026  13.852  1.00  0.00     0.136 C 
BRANCH   8   9
HETATM    9  C8  UNL     1      -3.699   3.293  15.086  1.00  0.00     0.221 C 
HETATM   10  O1  UNL     1      -2.821   2.967  15.928  1.00  0.00    -0.273 OA
HETATM   11  N2  UNL     1      -5.030   2.902  15.393  1.00  0.00    -0.352 N 
HETATM   12  C9  UNL     1      -6.109   3.243  14.468  1.00  0.00     0.153 C 
BRANCH  11  13
HETATM   13  C10 UNL     1      -5.385   2.170  16.598  1.00  0.00     0.086 C 
HETATM   14  C11 UNL     1      -6.769   2.576  16.983  1.00  0.00     0.025 C 
HETATM   15  C12 UNL     1      -7.283   1.701  18.113  1.00  0.00     0.002 C 
HETATM   16  C13 UNL     1      -7.362   0.284  17.531  1.00  0.00     0.000 C 
HETATM   17  C14 UNL     1      -5.934  -0.169  17.349  1.00  0.00     0.002 C 
HETATM   18  C15 UNL     1      -5.186   0.705  16.396  1.00  0.00     0.025 C 
ENDBRANCH  11  13
ENDBRANCH   8   9
ENDBRANCH   5   8
BRANCH   1  19
HETATM   19  C4  UNL     1      -2.277   0.171  11.123  1.00  0.00     0.039 C 
BRANCH  19  20
HETATM   20  C2  UNL     1      -3.529  -0.333  11.804  1.00  0.00    -0.021 C 
HETATM   21  C1  UNL     1      -3.379  -1.848  12.006  1.00  0.00     0.009 C 
HETATM   22  C3  UNL     1      -4.774  -0.125  10.959  1.00  0.00     0.009 C 
ENDBRANCH  19  20
ENDBRANCH   1  19
BRANCH   7  23
HETATM   23  N3  UNL     1      -1.161   3.064   9.824  1.00  0.00     0.098 N 
HETATM   24  C18 UNL     1      -1.624   4.223   9.065  1.00  0.00     0.292 C 
HETATM   25  C19 UNL     1      -0.617   4.497   7.984  1.00  0.00     0.144 C 
HETATM   26  N4  UNL     1       0.673   3.965   8.215  1.00  0.00    -0.418 N 
HETATM   27  C20 UNL     1       1.095   3.918   9.581  1.00  0.00     0.144 C 
ATOM     28  H4  UNL     1       1.266   3.634   7.454  1.00  0.00     0.153 HD
HETATM   29  C21 UNL     1       0.019   3.489  10.538  1.00  0.00     0.292 C 
ENDBRANCH   7  23
TORSDOF 6
ENDMDL
MODEL 2
REMARK VINA RESULT: -7.327563085      3.535      6.847
REMARK  6 active torsions:
REMARK  status: ('A' for Active; 'I' for Inactive)
REMARK    1  A    between atoms: C2_2  and  C4_4 
REMARK    2  A    between atoms: C4_4  and  C5_5 
REMARK    3  A    between atoms: C6_9  and  C7_10 
REMARK    4  A    between atoms: C7_10  and  C8_11 
REMARK       I    between atoms: C8_11  and  N2_13 
REMARK    5  A    between atoms: N2_13  and  C10_15 
REMARK    6  A    between atoms: C17_22  and  N3_23 
ROOT
HETATM    1  C5  UNL     1      -4.843   2.311  15.222  1.00  0.00     0.220 C 
HETATM    2  N1  UNL     1      -4.056   3.484  15.657  1.00  0.00    -0.064 N 
ATOM      3  H11 UNL     1      -3.694   3.435  16.609  1.00  0.00     0.278 HD
ATOM      4  H12 UNL     1      -4.594   4.338  15.805  1.00  0.00     0.278 HD
HETATM    5  C6  UNL     1      -3.071   3.560  14.640  1.00  0.00     0.197 C 
HETATM    6  C16 UNL     1      -3.871   3.535  13.368  1.00  0.00     0.071 C 
HETATM    7  C17 UNL     1      -4.954   2.538  13.756  1.00  0.00     0.255 C 
ENDROOT
BRANCH   5   8
HETATM    8  C7  UNL     1      -2.071   4.634  14.761  1.00  0.00     0.136 C 
BRANCH   8   9
HETATM    9  C8  UNL     1      -2.582   5.999  14.819  1.00  0.00     0.221 C 
HETATM   10  O1  UNL     1      -3.569   6.370  15.508  1.00  0.00    -0.273 OA
HETATM   11  N2  UNL     1      -1.943   7.011  14.054  1.00  0.00    -0.352 N 
HETATM   12  C9  UNL     1      -0.789   6.663  13.226  1.00  0.00     0.153 C 
BRANCH  11  13
HETATM   13  C10 UNL     1      -2.380   8.397  14.048  1.00  0.00     0.086 C 
HETATM   14  C11 UNL     1      -1.492   9.156  14.980  1.00  0.00     0.025 C 
HETATM   15  C12 UNL     1      -1.758  10.647  14.870  1.00  0.00     0.002 C 
HETATM   16  C13 UNL     1      -1.360  11.029  13.439  1.00  0.00     0.000 C 
HETATM   17  C14 UNL     1      -2.403  10.413  12.540  1.00  0.00     0.002 C 
HETATM   18  C15 UNL     1      -2.431   8.924  12.653  1.00  0.00     0.025 C 
ENDBRANCH  11  13
ENDBRANCH   8   9
ENDBRANCH   5   8
BRANCH   1  19
HETATM   19  C4  UNL     1      -6.188   2.319  15.921  1.00  0.00     0.039 C 
BRANCH  19  20
HETATM   20  C2  UNL     1      -6.135   1.446  17.154  1.00  0.00    -0.021 C 
HETATM   21  C1  UNL     1      -5.155   0.296  16.876  1.00  0.00     0.009 C 
HETATM   22  C3  UNL     1      -7.477   0.810  17.474  1.00  0.00     0.009 C 
ENDBRANCH  19  20
ENDBRANCH   1  19
BRANCH   7  23
HETATM   23  N3  UNL     1      -4.978   1.389  12.926  1.00  0.00     0.098 N 
HETATM   24  C18 UNL     1      -4.352   1.743  11.655  1.00  0.00     0.292 C 
HETATM   25  C19 UNL     1      -4.648   0.644  10.674  1.00  0.00     0.144 C 
HETATM   26  N4  UNL     1      -4.990  -0.602  11.252  1.00  0.00    -0.418 N 
HETATM   27  C20 UNL     1      -4.348  -0.913  12.493  1.00  0.00     0.144 C 
ATOM     28  H4  UNL     1      -5.653  -1.239  10.812  1.00  0.00     0.153 HD
HETATM   29  C21 UNL     1      -4.249   0.253  13.436  1.00  0.00     0.292 C 
ENDBRANCH   7  23
TORSDOF 6
ENDMDL
MODEL 3
REMARK VINA RESULT: -7.213574474      3.945      7.639
REMARK  6 active torsions:
REMARK  status: ('A' for Active; 'I' for Inactive)
REMARK    1  A    between atoms: C2_2  and  C4_4 
REMARK    2  A    between atoms: C4_4  and  C5_5 
REMARK    3  A    between atoms: C6_9  and  C7_10 
REMARK    4  A    between atoms: C7_10  and  C8_11 
REMARK       I    between atoms: C8_11  and  N2_13 
REMARK    5  A    between atoms: N2_13  and  C10_15 
REMARK    6  A    between atoms: C17_22  and  N3_23 
ROOT
HETATM    1  C5  UNL     1      -4.871   1.659  13.455  1.00  0.00     0.220 C 
HETATM    2  N1  UNL     1      -4.342   2.874  12.800  1.00  0.00    -0.064 N 
ATOM      3  H11 UNL     1      -4.542   2.951  11.803  1.00  0.00     0.278 HD
ATOM      4  H12 UNL     1      -3.328   2.906  12.696  1.00  0.00     0.278 HD
HETATM    5  C6  UNL     1      -4.899   3.899  13.608  1.00  0.00     0.197 C 
HETATM    6  C16 UNL     1      -4.524   3.491  15.005  1.00  0.00     0.071 C 
HETATM    7  C17 UNL     1      -4.697   1.982  14.896  1.00  0.00     0.255 C 
ENDROOT
BRANCH   5   8
HETATM    8  C7  UNL     1      -4.589   5.287  13.228  1.00  0.00     0.136 C 
BRANCH   8   9
HETATM    9  C8  UNL     1      -5.718   6.127  12.844  1.00  0.00     0.221 C 
HETATM   10  O1  UNL     1      -6.874   6.050  13.337  1.00  0.00    -0.273 OA
HETATM   11  N2  UNL     1      -5.535   7.117  11.842  1.00  0.00    -0.352 N 
HETATM   12  C9  UNL     1      -4.222   7.272  11.219  1.00  0.00     0.153 C 
BRANCH  11  13
HETATM   13  C10 UNL     1      -6.599   8.000  11.394  1.00  0.00     0.086 C 
HETATM   14  C11 UNL     1      -5.981   9.315  11.049  1.00  0.00     0.025 C 
HETATM   15  C12 UNL     1      -7.001  10.221  10.381  1.00  0.00     0.002 C 
HETATM   16  C13 UNL     1      -7.368   9.524   9.065  1.00  0.00     0.000 C 
HETATM   17  C14 UNL     1      -8.171   8.305   9.451  1.00  0.00     0.002 C 
HETATM   18  C15 UNL     1      -7.382   7.360  10.297  1.00  0.00     0.025 C 
ENDBRANCH  11  13
ENDBRANCH   8   9
ENDBRANCH   5   8
BRANCH   1  19
HETATM   19  C4  UNL     1      -4.055   0.457  13.020  1.00  0.00     0.039 C 
BRANCH  19  20
HETATM   20  C2  UNL     1      -3.731   0.558  11.547  1.00  0.00    -0.021 C 
HETATM   21  C1  UNL     1      -4.610  -0.456  10.799  1.00  0.00     0.009 C 
HETATM   22  C3  UNL     1      -2.288   0.194  11.243  1.00  0.00     0.009 C 
ENDBRANCH  19  20
ENDBRANCH   1  19
BRANCH   7  23
HETATM   23  N3  UNL     1      -5.665   1.465  15.794  1.00  0.00     0.098 N 
HETATM   24  C18 UNL     1      -4.956   0.753  16.854  1.00  0.00     0.292 C 
HETATM   25  C19 UNL     1      -5.967  -0.048  17.625  1.00  0.00     0.144 C 
HETATM   26  N4  UNL     1      -7.304   0.398  17.508  1.00  0.00    -0.418 N 
HETATM   27  C20 UNL     1      -7.482   1.810  17.362  1.00  0.00     0.144 C 
ATOM     28  H4  UNL     1      -8.093  -0.248  17.526  1.00  0.00     0.153 HD
HETATM   29  C21 UNL     1      -6.483   2.459  16.447  1.00  0.00     0.292 C 
ENDBRANCH   7  23
TORSDOF 6
ENDMDL
MODEL 4
REMARK VINA RESULT: -7.194830370      3.438      4.912
REMARK  6 active torsions:
REMARK  status: ('A' for Active; 'I' for Inactive)
REMARK    1  A    between atoms: C2_2  and  C4_4 
REMARK    2  A    between atoms: C4_4  and  C5_5 
REMARK    3  A    between atoms: C6_9  and  C7_10 
REMARK    4  A    between atoms: C7_10  and  C8_11 
REMARK       I    between atoms: C8_11  and  N2_13 
REMARK    5  A    between atoms: N2_13  and  C10_15 
REMARK    6  A    between atoms: C17_22  and  N3_23 
ROOT
HETATM    1  C5  UNL     1      -5.189   6.159  11.342  1.00  0.00     0.220 C 
HETATM    2  N1  UNL     1      -4.545   5.506  12.500  1.00  0.00    -0.064 N 
ATOM      3  H11 UNL     1      -5.146   5.376  13.314  1.00  0.00     0.278 HD
ATOM      4  H12 UNL     1      -3.850   6.072  12.987  1.00  0.00     0.278 HD
HETATM    5  C6  UNL     1      -4.050   4.312  11.918  1.00  0.00     0.197 C 
HETATM    6  C16 UNL     1      -3.285   4.794  10.718  1.00  0.00     0.071 C 
HETATM    7  C17 UNL     1      -4.193   5.928  10.262  1.00  0.00     0.255 C 
ENDROOT
BRANCH   5   8
HETATM    8  C7  UNL     1      -3.344   3.378  12.810  1.00  0.00     0.136 C 
BRANCH   8   9
HETATM    9  C8  UNL     1      -3.828   3.294  14.183  1.00  0.00     0.221 C 
HETATM   10  O1  UNL     1      -3.721   4.208  15.043  1.00  0.00    -0.273 OA
HETATM   11  N2  UNL     1      -4.476   2.106  14.617  1.00  0.00    -0.352 N 
HETATM   12  C9  UNL     1      -4.641   0.996  13.681  1.00  0.00     0.153 C 
BRANCH  11  13
HETATM   13  C10 UNL     1      -4.991   1.930  15.965  1.00  0.00     0.086 C 
HETATM   14  C11 UNL     1      -6.360   2.525  16.007  1.00  0.00     0.025 C 
HETATM   15  C12 UNL     1      -7.041   2.197  17.325  1.00  0.00     0.002 C 
HETATM   16  C13 UNL     1      -7.200   0.672  17.334  1.00  0.00     0.000 C 
HETATM   17  C14 UNL     1      -5.809   0.111  17.501  1.00  0.00     0.002 C 
HETATM   18  C15 UNL     1      -4.911   0.496  16.372  1.00  0.00     0.025 C 
ENDBRANCH  11  13
ENDBRANCH   8   9
ENDBRANCH   5   8
BRANCH   1  19
HETATM   19  C4  UNL     1      -5.398   7.630  11.643  1.00  0.00     0.039 C 
BRANCH  19  20
HETATM   20  C2  UNL     1      -6.758   8.070  11.151  1.00  0.00    -0.021 C 
HETATM   21  C1  UNL     1      -6.734   9.599  11.001  1.00  0.00     0.009 C 
HETATM   22  C3  UNL     1      -7.867   7.744  12.137  1.00  0.00     0.009 C 
ENDBRANCH  19  20
ENDBRANCH   1  19
BRANCH   7  23
HETATM   23  N3  UNL     1      -4.696   5.746   8.949  1.00  0.00     0.098 N 
HETATM   24  C18 UNL     1      -4.671   7.043   8.276  1.00  0.00     0.292 C 
HETATM   25  C19 UNL     1      -5.478   6.922   7.015  1.00  0.00     0.144 C 
HETATM   26  N4  UNL     1      -5.647   5.603   6.532  1.00  0.00    -0.418 N 
HETATM   27  C20 UNL     1      -4.553   4.709   6.761  1.00  0.00     0.144 C 
ATOM     28  H4  UNL     1      -6.495   5.307   6.050  1.00  0.00     0.153 HD
HETATM   29  C21 UNL     1      -3.931   4.844   8.122  1.00  0.00     0.292 C 
ENDBRANCH   7  23
TORSDOF 6
ENDMDL
MODEL 5
REMARK VINA RESULT: -7.160185193      3.897      7.579
REMARK  6 active torsions:
REMARK  status: ('A' for Active; 'I' for Inactive)
REMARK    1  A    between atoms: C2_2  and  C4_4 
REMARK    2  A    between atoms: C4_4  and  C5_5 
REMARK    3  A    between atoms: C6_9  and  C7_10 
REMARK    4  A    between atoms: C7_10  and  C8_11 
REMARK       I    between atoms: C8_11  and  N2_13 
REMARK    5  A    between atoms: N2_13  and  C10_15 
REMARK    6  A    between atoms: C17_22  and  N3_23 
ROOT
HETATM    1  C5  UNL     1      -4.873   2.233  13.386  1.00  0.00     0.220 C 
HETATM    2  N1  UNL     1      -4.470   3.548  12.847  1.00  0.00    -0.064 N 
ATOM      3  H11 UNL     1      -4.691   3.699  11.863  1.00  0.00     0.278 HD
ATOM      4  H12 UNL     1      -3.464   3.683  12.739  1.00  0.00     0.278 HD
HETATM    5  C6  UNL     1      -5.105   4.436  13.751  1.00  0.00     0.197 C 
HETATM    6  C16 UNL     1      -4.672   3.936  15.101  1.00  0.00     0.071 C 
HETATM    7  C17 UNL     1      -4.708   2.434  14.851  1.00  0.00     0.255 C 
ENDROOT
BRANCH   5   8
HETATM    8  C7  UNL     1      -4.930   5.877  13.503  1.00  0.00     0.136 C 
BRANCH   8   9
HETATM    9  C8  UNL     1      -5.036   6.318  12.117  1.00  0.00     0.221 C 
HETATM   10  O1  UNL     1      -4.118   6.228  11.260  1.00  0.00    -0.273 OA
HETATM   11  N2  UNL     1      -6.252   6.898  11.666  1.00  0.00    -0.352 N 
HETATM   12  C9  UNL     1      -7.369   7.039  12.599  1.00  0.00     0.153 C 
BRANCH  11  13
HETATM   13  C10 UNL     1      -6.451   7.366  10.305  1.00  0.00     0.086 C 
HETATM   14  C11 UNL     1      -7.127   6.274   9.544  1.00  0.00     0.025 C 
HETATM   15  C12 UNL     1      -7.551   6.766   8.171  1.00  0.00     0.002 C 
HETATM   16  C13 UNL     1      -8.594   7.860   8.433  1.00  0.00     0.000 C 
HETATM   17  C14 UNL     1      -7.833   9.028   9.013  1.00  0.00     0.002 C 
HETATM   18  C15 UNL     1      -7.166   8.677  10.302  1.00  0.00     0.025 C 
ENDBRANCH  11  13
ENDBRANCH   8   9
ENDBRANCH   5   8
BRANCH   1  19
HETATM   19  C4  UNL     1      -3.958   1.158  12.834  1.00  0.00     0.039 C 
BRANCH  19  20
HETATM   20  C2  UNL     1      -4.773   0.098  12.128  1.00  0.00    -0.021 C 
HETATM   21  C1  UNL     1      -4.266  -1.275  12.593  1.00  0.00     0.009 C 
HETATM   22  C3  UNL     1      -4.602   0.141  10.620  1.00  0.00     0.009 C 
ENDBRANCH  19  20
ENDBRANCH   1  19
BRANCH   7  23
HETATM   23  N3  UNL     1      -5.609   1.748  15.703  1.00  0.00     0.098 N 
HETATM   24  C18 UNL     1      -4.822   1.020  16.694  1.00  0.00     0.292 C 
HETATM   25  C19 UNL     1      -5.740   0.058  17.394  1.00  0.00     0.144 C 
HETATM   26  N4  UNL     1      -7.116   0.378  17.320  1.00  0.00    -0.418 N 
HETATM   27  C20 UNL     1      -7.434   1.773  17.300  1.00  0.00     0.144 C 
ATOM     28  H4  UNL     1      -7.838  -0.342  17.283  1.00  0.00     0.153 HD
HETATM   29  C21 UNL     1      -6.514   2.595  16.442  1.00  0.00     0.292 C 
ENDBRANCH   7  23
TORSDOF 6
ENDMDL
