MODEL 1
REMARK VINA RESULT: -6.741087254      0.000      0.000
REMARK  10 active torsions:
REMARK  status: ('A' for Active; 'I' for Inactive)
REMARK    1  A    between atoms: C2_4  and  C3_5 
REMARK    2  A    between atoms: C2_4  and  N4_24 
REMARK    3  A    between atoms: C3_5  and  N2_6 
REMARK    4  A    between atoms: N2_6  and  C4_7 
REMARK    5  A    between atoms: N2_6  and  C10_18 
REMARK    6  A    between atoms: C4_7  and  N3_9 
REMARK    7  A    between atoms: N3_9  and  C5_11 
REMARK    8  A    between atoms: C5_11  and  C8_14 
REMARK    9  A    between atoms: C8_14  and  O2_16 
REMARK   10  A    between atoms: N4_24  and  C16_26 
ROOT
HETATM    1  N2  UNL     1      -4.517   2.655  14.662  1.00  0.00    -0.347 N 
ENDROOT
BRANCH   1   2
HETATM    2  C3  UNL     1      -5.015   2.006  13.417  1.00  0.00     0.201 C 
BRANCH   2   3
HETATM    3  C2  UNL     1      -3.917   1.075  12.876  1.00  0.00     0.091 C 
HETATM    4  N1  UNL     1      -2.957   1.634  12.345  1.00  0.00    -0.383 N 
HETATM    5  C1  UNL     1      -1.752   1.361  11.720  1.00  0.00     0.147 C 
ATOM      6  H1  UNL     1      -3.099   2.644  12.377  1.00  0.00     0.160 HD
BRANCH   3   7
HETATM    7  N4  UNL     1      -4.206  -0.290  13.069  1.00  0.00    -0.375 N 
ATOM      8  H4  UNL     1      -4.260  -0.585  14.043  1.00  0.00     0.161 HD
BRANCH   7   9
HETATM    9  C16 UNL     1      -4.435  -1.320  12.116  1.00  0.00     0.074 C 
HETATM   10  C17 UNL     1      -3.289  -2.255  11.859  1.00  0.00     0.031 C 
HETATM   11  C18 UNL     1      -4.989  -0.767  10.804  1.00  0.00     0.031 C 
ENDBRANCH   7   9
ENDBRANCH   3   7
ENDBRANCH   2   3
ENDBRANCH   1   2
BRANCH   1  12
HETATM   12  C4  UNL     1      -3.540   3.624  14.487  1.00  0.00     0.171 C 
HETATM   13  S1  UNL     1      -2.189   3.643  15.437  1.00  0.00    -0.041 SA
BRANCH  12  14
HETATM   14  N3  UNL     1      -3.653   4.639  13.467  1.00  0.00    -0.349 N 
ATOM     15  H3  UNL     1      -3.253   4.495  12.540  1.00  0.00     0.163 HD
BRANCH  14  16
HETATM   16  C5  UNL     1      -4.343   5.855  13.789  1.00  0.00     0.113 C 
HETATM   17  C6  UNL     1      -3.714   7.096  13.234  1.00  0.00     0.049 C 
HETATM   18  C7  UNL     1      -4.550   5.911  15.297  1.00  0.00     0.049 C 
BRANCH  16  19
HETATM   19  C8  UNL     1      -5.739   5.814  13.213  1.00  0.00     0.286 C 
HETATM   20  O1  UNL     1      -6.674   5.370  13.923  1.00  0.00    -0.262 OA
BRANCH  19  21
HETATM   21  O2  UNL     1      -6.022   6.250  11.934  1.00  0.00    -0.325 OA
HETATM   22  C9  UNL     1      -7.005   7.238  11.659  1.00  0.00     0.213 C 
ENDBRANCH  19  21
ENDBRANCH  16  19
ENDBRANCH  14  16
ENDBRANCH  12  14
ENDBRANCH   1  12
BRANCH   1  23
HETATM   23  C10 UNL     1      -5.101   2.174  15.835  1.00  0.00     0.087 C 
HETATM   24  C11 UNL     1      -5.077   0.735  16.120  1.00  0.00     0.025 C 
HETATM   25  C12 UNL     1      -5.557   0.428  17.549  1.00  0.00     0.002 C 
HETATM   26  C13 UNL     1      -6.714   1.199  18.006  1.00  0.00     0.000 C 
HETATM   27  C14 UNL     1      -7.018   2.474  17.301  1.00  0.00     0.002 C 
HETATM   28  C15 UNL     1      -6.619   2.533  15.878  1.00  0.00     0.025 C 
ENDBRANCH   1  23
TORSDOF 10
ENDMDL
MODEL 2
REMARK VINA RESULT: -6.541692141      1.459      2.163
REMARK  10 active torsions:
REMARK  status: ('A' for Active; 'I' for Inactive)
REMARK    1  A    between atoms: C2_4  and  C3_5 
REMARK    2  A    between atoms: C2_4  and  N4_24 
REMARK    3  A    between atoms: C3_5  and  N2_6 
REMARK    4  A    between atoms: N2_6  and  C4_7 
REMARK    5  A    between atoms: N2_6  and  C10_18 
REMARK    6  A    between atoms: C4_7  and  N3_9 
REMARK    7  A    between atoms: N3_9  and  C5_11 
REMARK    8  A    between atoms: C5_11  and  C8_14 
REMARK    9  A    between atoms: C8_14  and  O2_16 
REMARK   10  A    between atoms: N4_24  and  C16_26 
ROOT
HETATM    1  N2  UNL     1      -4.493   2.667  14.716  1.00  0.00    -0.347 N 
ENDROOT
BRANCH   1   2
HETATM    2  C3  UNL     1      -4.978   2.069  13.440  1.00  0.00     0.201 C 
BRANCH   2   3
HETATM    3  C2  UNL     1      -3.887   1.135  12.889  1.00  0.00     0.091 C 
HETATM    4  N1  UNL     1      -2.928   1.691  12.355  1.00  0.00    -0.383 N 
HETATM    5  C1  UNL     1      -1.728   1.415  11.722  1.00  0.00     0.147 C 
ATOM      6  H1  UNL     1      -3.065   2.702  12.390  1.00  0.00     0.160 HD
BRANCH   3   7
HETATM    7  N4  UNL     1      -4.182  -0.229  13.080  1.00  0.00    -0.375 N 
ATOM      8  H4  UNL     1      -4.252  -0.522  14.054  1.00  0.00     0.161 HD
BRANCH   7   9
HETATM    9  C16 UNL     1      -4.399  -1.260  12.126  1.00  0.00     0.074 C 
HETATM   10  C17 UNL     1      -3.221  -2.140  11.819  1.00  0.00     0.031 C 
HETATM   11  C18 UNL     1      -5.023  -0.721  10.839  1.00  0.00     0.031 C 
ENDBRANCH   7   9
ENDBRANCH   3   7
ENDBRANCH   2   3
ENDBRANCH   1   2
BRANCH   1  12
HETATM   12  C4  UNL     1      -3.509   3.637  14.591  1.00  0.00     0.171 C 
HETATM   13  S1  UNL     1      -2.156   3.596  15.536  1.00  0.00    -0.041 SA
BRANCH  12  14
HETATM   14  N3  UNL     1      -3.618   4.707  13.627  1.00  0.00    -0.349 N 
ATOM     15  H3  UNL     1      -3.252   4.598  12.681  1.00  0.00     0.163 HD
BRANCH  14  16
HETATM   16  C5  UNL     1      -4.256   5.927  14.032  1.00  0.00     0.113 C 
HETATM   17  C6  UNL     1      -5.154   5.796  15.224  1.00  0.00     0.049 C 
HETATM   18  C7  UNL     1      -4.951   6.537  12.822  1.00  0.00     0.049 C 
BRANCH  16  19
HETATM   19  C8  UNL     1      -3.207   6.941  14.423  1.00  0.00     0.286 C 
HETATM   20  O1  UNL     1      -2.458   7.412  13.532  1.00  0.00    -0.262 OA
BRANCH  19  21
HETATM   21  O2  UNL     1      -3.045   7.371  15.725  1.00  0.00    -0.325 OA
HETATM   22  C9  UNL     1      -1.943   8.164  16.141  1.00  0.00     0.213 C 
ENDBRANCH  19  21
ENDBRANCH  16  19
ENDBRANCH  14  16
ENDBRANCH  12  14
ENDBRANCH   1  12
BRANCH   1  23
HETATM   23  C10 UNL     1      -5.092   2.143  15.861  1.00  0.00     0.087 C 
HETATM   24  C11 UNL     1      -5.049   0.697  16.107  1.00  0.00     0.025 C 
HETATM   25  C12 UNL     1      -5.553   0.342  17.516  1.00  0.00     0.002 C 
HETATM   26  C13 UNL     1      -6.733   1.080  17.969  1.00  0.00     0.000 C 
HETATM   27  C14 UNL     1      -7.045   2.368  17.293  1.00  0.00     0.002 C 
HETATM   28  C15 UNL     1      -6.617   2.474  15.881  1.00  0.00     0.025 C 
ENDBRANCH   1  23
TORSDOF 10
ENDMDL
MODEL 3
REMARK VINA RESULT: -6.507660543      3.090      5.782
REMARK  10 active torsions:
REMARK  status: ('A' for Active; 'I' for Inactive)
REMARK    1  A    between atoms: C2_4  and  C3_5 
REMARK    2  A    between atoms: C2_4  and  N4_24 
REMARK    3  A    between atoms: C3_5  and  N2_6 
REMARK    4  A    between atoms: N2_6  and  C4_7 
REMARK    5  A    between atoms: N2_6  and  C10_18 
REMARK    6  A    between atoms: C4_7  and  N3_9 
REMARK    7  A    between atoms: N3_9  and  C5_11 
REMARK    8  A    between atoms: C5_11  and  C8_14 
REMARK    9  A    between atoms: C8_14  and  O2_16 
REMARK   10  A    between atoms: N4_24  and  C16_26 
ROOT
HETATM    1  N2  UNL     1      -3.531   2.776  12.557  1.00  0.00    -0.347 N 
ENDROOT
BRANCH   1   2
HETATM    2  C3  UNL     1      -3.488   3.056  14.021  1.00  0.00     0.201 C 
BRANCH   2   3
HETATM    3  C2  UNL     1      -4.587   2.230  14.711  1.00  0.00     0.091 C 
HETATM    4  N1  UNL     1      -4.202   1.228  15.313  1.00  0.00    -0.383 N 
HETATM    5  C1  UNL     1      -4.675   0.168  16.069  1.00  0.00     0.147 C 
ATOM      6  H1  UNL     1      -3.189   1.151  15.223  1.00  0.00     0.160 HD
BRANCH   3   7
HETATM    7  N4  UNL     1      -5.877   2.762  14.521  1.00  0.00    -0.375 N 
ATOM      8  H4  UNL     1      -6.320   2.511  13.638  1.00  0.00     0.161 HD
BRANCH   7   9
HETATM    9  C16 UNL     1      -6.657   3.595  15.370  1.00  0.00     0.074 C 
HETATM   10  C17 UNL     1      -6.167   5.001  15.554  1.00  0.00     0.031 C 
HETATM   11  C18 UNL     1      -6.929   2.933  16.720  1.00  0.00     0.031 C 
ENDBRANCH   7   9
ENDBRANCH   3   7
ENDBRANCH   2   3
ENDBRANCH   1   2
BRANCH   1  12
HETATM   12  C4  UNL     1      -3.555   3.890  11.731  1.00  0.00     0.171 C 
HETATM   13  S1  UNL     1      -4.454   5.216  12.126  1.00  0.00    -0.041 SA
BRANCH  12  14
HETATM   14  N3  UNL     1      -2.789   3.941  10.508  1.00  0.00    -0.349 N 
ATOM     15  H3  UNL     1      -3.194   3.633   9.624  1.00  0.00     0.163 HD
BRANCH  14  16
HETATM   16  C5  UNL     1      -1.445   4.438  10.566  1.00  0.00     0.113 C 
HETATM   17  C6  UNL     1      -0.875   4.538  11.949  1.00  0.00     0.049 C 
HETATM   18  C7  UNL     1      -1.377   5.749   9.794  1.00  0.00     0.049 C 
BRANCH  16  19
HETATM   19  C8  UNL     1      -0.526   3.503   9.815  1.00  0.00     0.286 C 
HETATM   20  O1  UNL     1      -0.980   2.870   8.830  1.00  0.00    -0.262 OA
BRANCH  19  21
HETATM   21  O2  UNL     1       0.795   3.323  10.172  1.00  0.00    -0.325 OA
HETATM   22  C9  UNL     1       1.869   3.948   9.484  1.00  0.00     0.213 C 
ENDBRANCH  19  21
ENDBRANCH  16  19
ENDBRANCH  14  16
ENDBRANCH  12  14
ENDBRANCH   1  12
BRANCH   1  23
HETATM   23  C10 UNL     1      -3.562   1.419  12.232  1.00  0.00     0.087 C 
HETATM   24  C11 UNL     1      -2.369   0.781  11.663  1.00  0.00     0.025 C 
HETATM   25  C12 UNL     1      -2.521  -0.748  11.588  1.00  0.00     0.002 C 
HETATM   26  C13 UNL     1      -3.831  -1.232  11.153  1.00  0.00     0.000 C 
HETATM   27  C14 UNL     1      -4.988  -0.305  11.278  1.00  0.00     0.002 C 
HETATM   28  C15 UNL     1      -4.672   1.136  11.171  1.00  0.00     0.025 C 
ENDBRANCH   1  23
TORSDOF 10
ENDMDL
MODEL 4
REMARK VINA RESULT: -6.458978731      2.822      6.167
REMARK  10 active torsions:
REMARK  status: ('A' for Active; 'I' for Inactive)
REMARK    1  A    between atoms: C2_4  and  C3_5 
REMARK    2  A    between atoms: C2_4  and  N4_24 
REMARK    3  A    between atoms: C3_5  and  N2_6 
REMARK    4  A    between atoms: N2_6  and  C4_7 
REMARK    5  A    between atoms: N2_6  and  C10_18 
REMARK    6  A    between atoms: C4_7  and  N3_9 
REMARK    7  A    between atoms: N3_9  and  C5_11 
REMARK    8  A    between atoms: C5_11  and  C8_14 
REMARK    9  A    between atoms: C8_14  and  O2_16 
REMARK   10  A    between atoms: N4_24  and  C16_26 
ROOT
HETATM    1  N2  UNL     1      -3.321   3.676  13.202  1.00  0.00    -0.347 N 
ENDROOT
BRANCH   1   2
HETATM    2  C3  UNL     1      -2.247   3.985  14.188  1.00  0.00     0.201 C 
BRANCH   2   3
HETATM    3  C2  UNL     1      -1.363   5.105  13.616  1.00  0.00     0.091 C 
HETATM    4  N1  UNL     1      -0.379   4.734  12.977  1.00  0.00    -0.383 N 
HETATM    5  C1  UNL     1       0.707   5.228  12.273  1.00  0.00     0.147 C 
ATOM      6  H1  UNL     1      -0.355   3.715  12.960  1.00  0.00     0.160 HD
BRANCH   3   7
HETATM    7  N4  UNL     1      -1.828   6.394  13.940  1.00  0.00    -0.375 N 
ATOM      8  H4  UNL     1      -2.294   6.888  13.179  1.00  0.00     0.161 HD
BRANCH   7   9
HETATM    9  C16 UNL     1      -1.750   7.115  15.164  1.00  0.00     0.074 C 
HETATM   10  C17 UNL     1      -3.052   7.383  15.862  1.00  0.00     0.031 C 
HETATM   11  C18 UNL     1      -0.940   8.401  15.013  1.00  0.00     0.031 C 
ENDBRANCH   7   9
ENDBRANCH   3   7
ENDBRANCH   2   3
ENDBRANCH   1   2
BRANCH   1  12
HETATM   12  C4  UNL     1      -2.938   2.902  12.116  1.00  0.00     0.171 C 
HETATM   13  S1  UNL     1      -2.772   3.573  10.616  1.00  0.00    -0.041 SA
BRANCH  12  14
HETATM   14  N3  UNL     1      -2.656   1.493  12.252  1.00  0.00    -0.349 N 
ATOM     15  H3  UNL     1      -1.727   1.169  12.521  1.00  0.00     0.163 HD
BRANCH  14  16
HETATM   16  C5  UNL     1      -3.715   0.559  12.001  1.00  0.00     0.113 C 
HETATM   17  C6  UNL     1      -3.317  -0.633  11.184  1.00  0.00     0.049 C 
HETATM   18  C7  UNL     1      -4.902   1.315  11.419  1.00  0.00     0.049 C 
BRANCH  16  19
HETATM   19  C8  UNL     1      -4.221   0.002  13.311  1.00  0.00     0.286 C 
HETATM   20  O1  UNL     1      -4.616  -1.189  13.350  1.00  0.00    -0.262 OA
BRANCH  19  21
HETATM   21  O2  UNL     1      -4.262   0.756  14.467  1.00  0.00    -0.325 OA
HETATM   22  C9  UNL     1      -4.681   0.226  15.716  1.00  0.00     0.213 C 
ENDBRANCH  19  21
ENDBRANCH  16  19
ENDBRANCH  14  16
ENDBRANCH  12  14
ENDBRANCH   1  12
BRANCH   1  23
HETATM   23  C10 UNL     1      -4.563   4.234  13.509  1.00  0.00     0.087 C 
HETATM   24  C11 UNL     1      -4.874   5.599  13.069  1.00  0.00     0.025 C 
HETATM   25  C12 UNL     1      -6.355   5.948  13.298  1.00  0.00     0.002 C 
HETATM   26  C13 UNL     1      -6.923   5.489  14.566  1.00  0.00     0.000 C 
HETATM   27  C14 UNL     1      -6.230   4.379  15.274  1.00  0.00     0.002 C 
HETATM   28  C15 UNL     1      -4.770   4.289  15.055  1.00  0.00     0.025 C 
ENDBRANCH   1  23
TORSDOF 10
ENDMDL
MODEL 5
REMARK VINA RESULT: -6.392875998      3.008      6.252
REMARK  10 active torsions:
REMARK  status: ('A' for Active; 'I' for Inactive)
REMARK    1  A    between atoms: C2_4  and  C3_5 
REMARK    2  A    between atoms: C2_4  and  N4_24 
REMARK    3  A    between atoms: C3_5  and  N2_6 
REMARK    4  A    between atoms: N2_6  and  C4_7 
REMARK    5  A    between atoms: N2_6  and  C10_18 
REMARK    6  A    between atoms: C4_7  and  N3_9 
REMARK    7  A    between atoms: N3_9  and  C5_11 
REMARK    8  A    between atoms: C5_11  and  C8_14 
REMARK    9  A    between atoms: C8_14  and  O2_16 
REMARK   10  A    between atoms: N4_24  and  C16_26 
ROOT
HETATM    1  N2  UNL     1      -3.907   3.696  12.478  1.00  0.00    -0.347 N 
ENDROOT
BRANCH   1   2
HETATM    2  C3  UNL     1      -4.255   4.143  11.099  1.00  0.00     0.201 C 
BRANCH   2   3
HETATM    3  C2  UNL     1      -4.070   5.667  11.016  1.00  0.00     0.091 C 
HETATM    4  N1  UNL     1      -2.908   6.068  11.088  1.00  0.00    -0.383 N 
HETATM    5  C1  UNL     1      -2.160   7.234  11.076  1.00  0.00     0.147 C 
ATOM      6  H1  UNL     1      -2.284   5.269  11.193  1.00  0.00     0.160 HD
BRANCH   3   7
HETATM    7  N4  UNL     1      -5.287   6.364  10.883  1.00  0.00    -0.375 N 
ATOM      8  H4  UNL     1      -5.840   6.112  10.065  1.00  0.00     0.161 HD
BRANCH   7   9
HETATM    9  C16 UNL     1      -5.864   7.364  11.713  1.00  0.00     0.074 C 
HETATM   10  C17 UNL     1      -7.201   7.039  12.313  1.00  0.00     0.031 C 
HETATM   11  C18 UNL     1      -5.895   8.726  11.022  1.00  0.00     0.031 C 
ENDBRANCH   7   9
ENDBRANCH   3   7
ENDBRANCH   2   3
ENDBRANCH   1   2
BRANCH   1  12
HETATM   12  C4  UNL     1      -2.958   2.687  12.563  1.00  0.00     0.171 C 
HETATM   13  S1  UNL     1      -1.357   3.009  12.323  1.00  0.00    -0.041 SA
BRANCH  12  14
HETATM   14  N3  UNL     1      -3.326   1.327  12.878  1.00  0.00    -0.349 N 
ATOM     15  H3  UNL     1      -3.332   0.997  13.843  1.00  0.00     0.163 HD
BRANCH  14  16
HETATM   16  C5  UNL     1      -3.685   0.452  11.799  1.00  0.00     0.113 C 
HETATM   17  C6  UNL     1      -2.715   0.438  10.657  1.00  0.00     0.049 C 
HETATM   18  C7  UNL     1      -5.112   0.769  11.370  1.00  0.00     0.049 C 
BRANCH  16  19
HETATM   19  C8  UNL     1      -3.744  -0.972  12.300  1.00  0.00     0.286 C 
HETATM   20  O1  UNL     1      -4.568  -1.263  13.202  1.00  0.00    -0.262 OA
BRANCH  19  21
HETATM   21  O2  UNL     1      -2.927  -1.965  11.798  1.00  0.00    -0.325 OA
HETATM   22  C9  UNL     1      -3.317  -3.330  11.748  1.00  0.00     0.213 C 
ENDBRANCH  19  21
ENDBRANCH  16  19
ENDBRANCH  14  16
ENDBRANCH  12  14
ENDBRANCH   1  12
BRANCH   1  23
HETATM   23  C10 UNL     1      -4.608   4.353  13.490  1.00  0.00     0.087 C 
HETATM   24  C11 UNL     1      -3.875   4.950  14.613  1.00  0.00     0.025 C 
HETATM   25  C12 UNL     1      -4.790   5.818  15.494  1.00  0.00     0.002 C 
HETATM   26  C13 UNL     1      -6.120   5.268  15.758  1.00  0.00     0.000 C 
HETATM   27  C14 UNL     1      -6.636   4.227  14.828  1.00  0.00     0.002 C 
HETATM   28  C15 UNL     1      -5.611   3.377  14.182  1.00  0.00     0.025 C 
ENDBRANCH   1  23
TORSDOF 10
ENDMDL
