MODEL 1
REMARK VINA RESULT: -6.409538137      0.000      0.000
REMARK  8 active torsions:
REMARK  status: ('A' for Active; 'I' for Inactive)
REMARK    1  A    between atoms: N1_2  and  C2_4 
REMARK    2  A    between atoms: C2_4  and  N2_6 
REMARK    3  A    between atoms: C3_7  and  C4_8 
REMARK       I    between atoms: C4_8  and  N3_10 
REMARK    4  A    between atoms: N3_10  and  C5_12 
REMARK    5  A    between atoms: C5_12  and  C6_13 
REMARK    6  A    between atoms: C6_13  and  C7_14 
REMARK    7  A    between atoms: C7_14  and  C8_15 
REMARK    8  A    between atoms: C8_15  and  C9_16 
ROOT
HETATM    1  N2  UNL     1      -1.295   3.817  11.805  1.00  0.00    -0.307 N 
HETATM    2  C3  UNL     1      -1.623   2.907  10.740  1.00  0.00     0.152 C 
HETATM    3  C13 UNL     1      -1.873   3.869   9.660  1.00  0.00     0.184 C 
HETATM    4  O2  UNL     1      -2.719   4.046   8.841  1.00  0.00    -0.290 OA
HETATM    5  C14 UNL     1      -0.638   4.763   9.791  1.00  0.00     0.116 C 
HETATM    6  C15 UNL     1      -0.144   4.505  11.248  1.00  0.00     0.040 C 
HETATM    7  C16 UNL     1       1.032   3.565  11.260  1.00  0.00     0.039 C 
HETATM    8  C17 UNL     1       0.191   5.832  11.865  1.00  0.00     0.039 C 
ENDROOT
BRANCH   2   9
HETATM    9  C4  UNL     1      -2.432   1.757  10.916  1.00  0.00     0.272 C 
HETATM   10  O1  UNL     1      -2.028   0.654  10.395  1.00  0.00    -0.266 OA
HETATM   11  N3  UNL     1      -3.663   1.683  11.627  1.00  0.00    -0.356 N 
ATOM     12  H3  UNL     1      -4.040   2.521  12.068  1.00  0.00     0.162 HD
BRANCH  11  13
HETATM   13  C5  UNL     1      -4.374   0.452  11.731  1.00  0.00     0.123 C 
BRANCH  13  14
HETATM   14  C6  UNL     1      -4.331  -0.235  13.046  1.00  0.00     0.020 C 
BRANCH  14  15
HETATM   15  C7  UNL     1      -4.560   0.821  14.136  1.00  0.00     0.003 C 
BRANCH  15  16
HETATM   16  C8  UNL     1      -4.651   0.144  15.495  1.00  0.00     0.015 C 
BRANCH  16  17
HETATM   17  C9  UNL     1      -4.797   1.155  16.592  1.00  0.00     0.047 C 
HETATM   18  C10 UNL     1      -5.576   0.563  17.747  1.00  0.00     0.016 C 
HETATM   19  C11 UNL     1      -7.026   0.536  17.358  1.00  0.00     0.011 C 
HETATM   20  C12 UNL     1      -7.424   1.969  17.030  1.00  0.00     0.074 C 
HETATM   21  S2  UNL     1      -5.941   2.500  16.082  1.00  0.00    -0.164 SA
ENDBRANCH  16  17
ENDBRANCH  15  16
ENDBRANCH  14  15
ENDBRANCH  13  14
ENDBRANCH  11  13
ENDBRANCH   2   9
BRANCH   1  22
HETATM   22  C2  UNL     1      -1.937   4.106  12.996  1.00  0.00     0.175 C 
HETATM   23  S1  UNL     1      -3.239   5.144  13.003  1.00  0.00    -0.041 SA
BRANCH  22  24
HETATM   24  N1  UNL     1      -1.579   3.634  14.278  1.00  0.00    -0.371 N 
HETATM   25  C1  UNL     1      -2.383   3.890  15.476  1.00  0.00     0.148 C 
ATOM     26  H1  UNL     1      -0.722   3.088  14.374  1.00  0.00     0.161 HD
ENDBRANCH  22  24
ENDBRANCH   1  22
TORSDOF 8
ENDMDL
MODEL 2
REMARK VINA RESULT: -6.201584464      2.771      6.470
REMARK  8 active torsions:
REMARK  status: ('A' for Active; 'I' for Inactive)
REMARK    1  A    between atoms: N1_2  and  C2_4 
REMARK    2  A    between atoms: C2_4  and  N2_6 
REMARK    3  A    between atoms: C3_7  and  C4_8 
REMARK       I    between atoms: C4_8  and  N3_10 
REMARK    4  A    between atoms: N3_10  and  C5_12 
REMARK    5  A    between atoms: C5_12  and  C6_13 
REMARK    6  A    between atoms: C6_13  and  C7_14 
REMARK    7  A    between atoms: C7_14  and  C8_15 
REMARK    8  A    between atoms: C8_15  and  C9_16 
ROOT
HETATM    1  N2  UNL     1      -4.849   4.107  14.410  1.00  0.00    -0.307 N 
HETATM    2  C3  UNL     1      -5.403   2.812  14.118  1.00  0.00     0.152 C 
HETATM    3  C13 UNL     1      -5.628   2.325  15.484  1.00  0.00     0.184 C 
HETATM    4  O2  UNL     1      -5.400   1.327  16.092  1.00  0.00    -0.290 OA
HETATM    5  C14 UNL     1      -6.331   3.535  16.100  1.00  0.00     0.116 C 
HETATM    6  C15 UNL     1      -5.929   4.717  15.165  1.00  0.00     0.040 C 
HETATM    7  C16 UNL     1      -7.047   5.057  14.215  1.00  0.00     0.039 C 
HETATM    8  C17 UNL     1      -5.551   5.885  16.028  1.00  0.00     0.039 C 
ENDROOT
BRANCH   2   9
HETATM    9  C4  UNL     1      -4.911   1.964  13.096  1.00  0.00     0.272 C 
HETATM   10  O1  UNL     1      -5.332   2.161  11.897  1.00  0.00    -0.266 OA
HETATM   11  N3  UNL     1      -3.975   0.902  13.247  1.00  0.00    -0.356 N 
ATOM     12  H3  UNL     1      -3.597   0.692  14.171  1.00  0.00     0.162 HD
BRANCH  11  13
HETATM   13  C5  UNL     1      -3.560   0.128  12.125  1.00  0.00     0.123 C 
BRANCH  13  14
HETATM   14  C6  UNL     1      -2.130   0.225  11.739  1.00  0.00     0.020 C 
BRANCH  14  15
HETATM   15  C7  UNL     1      -1.940   1.537  10.965  1.00  0.00     0.003 C 
BRANCH  15  16
HETATM   16  C8  UNL     1      -1.089   2.496  11.783  1.00  0.00     0.015 C 
BRANCH  16  17
HETATM   17  C9  UNL     1      -0.929   3.810  11.078  1.00  0.00     0.047 C 
HETATM   18  C10 UNL     1      -0.063   3.641   9.849  1.00  0.00     0.016 C 
HETATM   19  C11 UNL     1       1.364   3.527  10.304  1.00  0.00     0.011 C 
HETATM   20  C12 UNL     1       1.678   4.788  11.098  1.00  0.00     0.074 C 
HETATM   21  S2  UNL     1       0.123   4.948  12.066  1.00  0.00    -0.164 SA
ENDBRANCH  16  17
ENDBRANCH  15  16
ENDBRANCH  14  15
ENDBRANCH  13  14
ENDBRANCH  11  13
ENDBRANCH   2   9
BRANCH   1  22
HETATM   22  C2  UNL     1      -3.591   4.640  14.186  1.00  0.00     0.175 C 
HETATM   23  S1  UNL     1      -2.294   4.101  15.082  1.00  0.00    -0.041 SA
BRANCH  22  24
HETATM   24  N1  UNL     1      -3.265   5.664  13.271  1.00  0.00    -0.371 N 
HETATM   25  C1  UNL     1      -3.995   5.876  12.017  1.00  0.00     0.148 C 
ATOM     26  H1  UNL     1      -2.486   6.284  13.491  1.00  0.00     0.161 HD
ENDBRANCH  22  24
ENDBRANCH   1  22
TORSDOF 8
ENDMDL
MODEL 3
REMARK VINA RESULT: -6.144956297      1.668      1.983
REMARK  8 active torsions:
REMARK  status: ('A' for Active; 'I' for Inactive)
REMARK    1  A    between atoms: N1_2  and  C2_4 
REMARK    2  A    between atoms: C2_4  and  N2_6 
REMARK    3  A    between atoms: C3_7  and  C4_8 
REMARK       I    between atoms: C4_8  and  N3_10 
REMARK    4  A    between atoms: N3_10  and  C5_12 
REMARK    5  A    between atoms: C5_12  and  C6_13 
REMARK    6  A    between atoms: C6_13  and  C7_14 
REMARK    7  A    between atoms: C7_14  and  C8_15 
REMARK    8  A    between atoms: C8_15  and  C9_16 
ROOT
HETATM    1  N2  UNL     1      -1.739   4.150  10.919  1.00  0.00    -0.307 N 
HETATM    2  C3  UNL     1      -2.835   3.258  10.653  1.00  0.00     0.152 C 
HETATM    3  C13 UNL     1      -3.957   4.125  11.034  1.00  0.00     0.184 C 
HETATM    4  O2  UNL     1      -4.937   4.022  11.703  1.00  0.00    -0.290 OA
HETATM    5  C14 UNL     1      -3.584   5.408  10.291  1.00  0.00     0.116 C 
HETATM    6  C15 UNL     1      -2.052   5.259  10.036  1.00  0.00     0.040 C 
HETATM    7  C16 UNL     1      -1.780   4.836   8.616  1.00  0.00     0.039 C 
HETATM    8  C17 UNL     1      -1.397   6.568  10.367  1.00  0.00     0.039 C 
ENDROOT
BRANCH   2   9
HETATM    9  C4  UNL     1      -2.816   1.878  10.975  1.00  0.00     0.272 C 
HETATM   10  O1  UNL     1      -1.993   1.125  10.337  1.00  0.00    -0.266 OA
HETATM   11  N3  UNL     1      -3.616   1.220  11.952  1.00  0.00    -0.356 N 
ATOM     12  H3  UNL     1      -4.289   1.759  12.497  1.00  0.00     0.162 HD
BRANCH  11  13
HETATM   13  C5  UNL     1      -3.490  -0.181  12.178  1.00  0.00     0.123 C 
BRANCH  13  14
HETATM   14  C6  UNL     1      -4.252  -0.745  13.320  1.00  0.00     0.020 C 
BRANCH  14  15
HETATM   15  C7  UNL     1      -4.621   0.414  14.256  1.00  0.00     0.003 C 
BRANCH  15  16
HETATM   16  C8  UNL     1      -4.646  -0.078  15.696  1.00  0.00     0.015 C 
BRANCH  16  17
HETATM   17  C9  UNL     1      -4.637   1.072  16.658  1.00  0.00     0.047 C 
HETATM   18  C10 UNL     1      -5.678   0.859  17.735  1.00  0.00     0.016 C 
HETATM   19  C11 UNL     1      -7.024   1.157  17.139  1.00  0.00     0.011 C 
HETATM   20  C12 UNL     1      -6.972   2.589  16.621  1.00  0.00     0.074 C 
HETATM   21  S2  UNL     1      -5.300   2.588  15.858  1.00  0.00    -0.164 SA
ENDBRANCH  16  17
ENDBRANCH  15  16
ENDBRANCH  14  15
ENDBRANCH  13  14
ENDBRANCH  11  13
ENDBRANCH   2   9
BRANCH   1  22
HETATM   22  C2  UNL     1      -0.712   4.093  11.845  1.00  0.00     0.175 C 
HETATM   23  S1  UNL     1       0.818   3.647  11.357  1.00  0.00    -0.041 SA
BRANCH  22  24
HETATM   24  N1  UNL     1      -0.817   4.343  13.231  1.00  0.00    -0.371 N 
HETATM   25  C1  UNL     1      -1.905   5.129  13.819  1.00  0.00     0.148 C 
ATOM     26  H1  UNL     1      -0.104   3.958  13.850  1.00  0.00     0.161 HD
ENDBRANCH  22  24
ENDBRANCH   1  22
TORSDOF 8
ENDMDL
MODEL 4
REMARK VINA RESULT: -6.135323844      1.593      2.324
REMARK  8 active torsions:
REMARK  status: ('A' for Active; 'I' for Inactive)
REMARK    1  A    between atoms: N1_2  and  C2_4 
REMARK    2  A    between atoms: C2_4  and  N2_6 
REMARK    3  A    between atoms: C3_7  and  C4_8 
REMARK       I    between atoms: C4_8  and  N3_10 
REMARK    4  A    between atoms: N3_10  and  C5_12 
REMARK    5  A    between atoms: C5_12  and  C6_13 
REMARK    6  A    between atoms: C6_13  and  C7_14 
REMARK    7  A    between atoms: C7_14  and  C8_15 
REMARK    8  A    between atoms: C8_15  and  C9_16 
ROOT
HETATM    1  N2  UNL     1      -2.846   4.329  11.404  1.00  0.00    -0.307 N 
HETATM    2  C3  UNL     1      -2.334   2.993  11.261  1.00  0.00     0.152 C 
HETATM    3  C13 UNL     1      -1.411   3.201  10.140  1.00  0.00     0.184 C 
HETATM    4  O2  UNL     1      -1.177   2.661   9.104  1.00  0.00    -0.290 OA
HETATM    5  C14 UNL     1      -0.668   4.449  10.616  1.00  0.00     0.116 C 
HETATM    6  C15 UNL     1      -1.629   5.074  11.673  1.00  0.00     0.040 C 
HETATM    7  C16 UNL     1      -1.171   4.759  13.073  1.00  0.00     0.039 C 
HETATM    8  C17 UNL     1      -1.695   6.553  11.424  1.00  0.00     0.039 C 
ENDROOT
BRANCH   2   9
HETATM    9  C4  UNL     1      -3.141   1.832  11.358  1.00  0.00     0.272 C 
HETATM   10  O1  UNL     1      -4.097   1.693  10.510  1.00  0.00    -0.266 OA
HETATM   11  N3  UNL     1      -3.004   0.776  12.302  1.00  0.00    -0.356 N 
ATOM     12  H3  UNL     1      -2.264   0.820  13.003  1.00  0.00     0.162 HD
BRANCH  11  13
HETATM   13  C5  UNL     1      -3.887  -0.342  12.283  1.00  0.00     0.123 C 
BRANCH  13  14
HETATM   14  C6  UNL     1      -4.401  -0.810  13.594  1.00  0.00     0.020 C 
BRANCH  14  15
HETATM   15  C7  UNL     1      -4.513   0.411  14.518  1.00  0.00     0.003 C 
BRANCH  15  16
HETATM   16  C8  UNL     1      -4.661  -0.050  15.960  1.00  0.00     0.015 C 
BRANCH  16  17
HETATM   17  C9  UNL     1      -4.874   1.116  16.879  1.00  0.00     0.047 C 
HETATM   18  C10 UNL     1      -5.808   0.729  18.005  1.00  0.00     0.016 C 
HETATM   19  C11 UNL     1      -7.205   0.698  17.456  1.00  0.00     0.011 C 
HETATM   20  C12 UNL     1      -7.487   2.082  16.883  1.00  0.00     0.074 C 
HETATM   21  S2  UNL     1      -5.881   2.413  16.051  1.00  0.00    -0.164 SA
ENDBRANCH  16  17
ENDBRANCH  15  16
ENDBRANCH  14  15
ENDBRANCH  13  14
ENDBRANCH  11  13
ENDBRANCH   2   9
BRANCH   1  22
HETATM   22  C2  UNL     1      -4.113   4.853  11.214  1.00  0.00     0.175 C 
HETATM   23  S1  UNL     1      -4.934   5.518  12.502  1.00  0.00    -0.041 SA
BRANCH  22  24
HETATM   24  N1  UNL     1      -4.847   4.858  10.008  1.00  0.00    -0.371 N 
HETATM   25  C1  UNL     1      -4.222   5.040   8.694  1.00  0.00     0.148 C 
ATOM     26  H1  UNL     1      -5.858   4.728  10.052  1.00  0.00     0.161 HD
ENDBRANCH  22  24
ENDBRANCH   1  22
TORSDOF 8
ENDMDL
MODEL 5
REMARK VINA RESULT: -6.096719903      4.147      6.800
REMARK  8 active torsions:
REMARK  status: ('A' for Active; 'I' for Inactive)
REMARK    1  A    between atoms: N1_2  and  C2_4 
REMARK    2  A    between atoms: C2_4  and  N2_6 
REMARK    3  A    between atoms: C3_7  and  C4_8 
REMARK       I    between atoms: C4_8  and  N3_10 
REMARK    4  A    between atoms: N3_10  and  C5_12 
REMARK    5  A    between atoms: C5_12  and  C6_13 
REMARK    6  A    between atoms: C6_13  and  C7_14 
REMARK    7  A    between atoms: C7_14  and  C8_15 
REMARK    8  A    between atoms: C8_15  and  C9_16 
ROOT
HETATM    1  N2  UNL     1      -4.201   1.956  13.086  1.00  0.00    -0.307 N 
HETATM    2  C3  UNL     1      -3.592   2.810  12.102  1.00  0.00     0.152 C 
HETATM    3  C13 UNL     1      -2.287   2.150  11.976  1.00  0.00     0.184 C 
HETATM    4  O2  UNL     1      -1.145   2.491  11.972  1.00  0.00    -0.290 OA
HETATM    5  C14 UNL     1      -2.724   0.693  11.819  1.00  0.00     0.116 C 
HETATM    6  C15 UNL     1      -4.168   0.672  12.409  1.00  0.00     0.040 C 
HETATM    7  C16 UNL     1      -5.200   0.678  11.313  1.00  0.00     0.039 C 
HETATM    8  C17 UNL     1      -4.291  -0.538  13.289  1.00  0.00     0.039 C 
ENDROOT
BRANCH   2   9
HETATM    9  C4  UNL     1      -3.716   4.222  12.107  1.00  0.00     0.272 C 
HETATM   10  O1  UNL     1      -2.997   4.884  12.941  1.00  0.00    -0.266 OA
HETATM   11  N3  UNL     1      -4.560   5.005  11.270  1.00  0.00    -0.356 N 
ATOM     12  H3  UNL     1      -5.155   4.544  10.583  1.00  0.00     0.162 HD
BRANCH  11  13
HETATM   13  C5  UNL     1      -4.582   6.426  11.379  1.00  0.00     0.123 C 
BRANCH  13  14
HETATM   14  C6  UNL     1      -5.737   7.022  12.096  1.00  0.00     0.020 C 
BRANCH  14  15
HETATM   15  C7  UNL     1      -6.211   8.241  11.292  1.00  0.00     0.003 C 
BRANCH  15  16
HETATM   16  C8  UNL     1      -7.661   8.046  10.874  1.00  0.00     0.015 C 
BRANCH  16  17
HETATM   17  C9  UNL     1      -7.839   8.311   9.409  1.00  0.00     0.047 C 
HETATM   18  C10 UNL     1      -8.491   7.121   8.739  1.00  0.00     0.016 C 
HETATM   19  C11 UNL     1      -7.448   6.052   8.584  1.00  0.00     0.011 C 
HETATM   20  C12 UNL     1      -6.310   6.656   7.772  1.00  0.00     0.074 C 
HETATM   21  S2  UNL     1      -6.213   8.318   8.552  1.00  0.00    -0.164 SA
ENDBRANCH  16  17
ENDBRANCH  15  16
ENDBRANCH  14  15
ENDBRANCH  13  14
ENDBRANCH  11  13
ENDBRANCH   2   9
BRANCH   1  22
HETATM   22  C2  UNL     1      -4.604   2.197  14.388  1.00  0.00     0.175 C 
HETATM   23  S1  UNL     1      -6.042   2.987  14.676  1.00  0.00    -0.041 SA
BRANCH  22  24
HETATM   24  N1  UNL     1      -3.889   1.870  15.561  1.00  0.00    -0.371 N 
HETATM   25  C1  UNL     1      -4.465   1.080  16.653  1.00  0.00     0.148 C 
ATOM     26  H1  UNL     1      -2.927   2.198  15.652  1.00  0.00     0.161 HD
ENDBRANCH  22  24
ENDBRANCH   1  22
TORSDOF 8
ENDMDL
