MODEL 1
REMARK VINA RESULT: -7.670890495      0.000      0.000
REMARK  7 active torsions:
REMARK  status: ('A' for Active; 'I' for Inactive)
REMARK    1  A    between atoms: C1_2  and  C2_3 
REMARK       I    between atoms: C1_2  and  N1_10 
REMARK    2  A    between atoms: C2_3  and  C3_4 
REMARK    3  A    between atoms: C3_4  and  C4_5 
REMARK    4  A    between atoms: N1_10  and  C8_12 
REMARK    5  A    between atoms: C8_12  and  C9_13 
REMARK    6  A    between atoms: C8_12  and  C13_23 
REMARK       I    between atoms: C9_13  and  N2_15 
REMARK    7  A    between atoms: N2_15  and  C10_17 
ROOT
HETATM    1  C8  UNL     1      -4.489   4.479  13.213  1.00  0.00     0.181 C 
ENDROOT
BRANCH   1   2
HETATM    2  N1  UNL     1      -4.977   3.995  14.500  1.00  0.00    -0.347 N 
HETATM    3  C1  UNL     1      -6.299   4.264  14.933  1.00  0.00     0.218 C 
HETATM    4  O1  UNL     1      -7.046   4.923  14.194  1.00  0.00    -0.274 OA
ATOM      5  H1  UNL     1      -4.355   3.453  15.100  1.00  0.00     0.163 HD
BRANCH   3   6
HETATM    6  C2  UNL     1      -6.756   3.763  16.231  1.00  0.00     0.103 C 
BRANCH   6   7
HETATM    7  C3  UNL     1      -6.796   2.282  16.260  1.00  0.00     0.016 C 
BRANCH   7   8
HETATM    8  C4  UNL     1      -5.855   1.598  17.185  1.00  0.00     0.012 C 
HETATM    9  C5  UNL     1      -6.608   0.819  18.243  1.00  0.00     0.033 C 
HETATM   10  C6  UNL     1      -6.020  -0.567  18.106  1.00  0.00     0.168 C 
HETATM   11  O2  UNL     1      -5.842  -0.696  16.729  1.00  0.00    -0.391 OA
HETATM   12  C7  UNL     1      -5.205   0.469  16.384  1.00  0.00     0.172 C 
ENDBRANCH   7   8
ENDBRANCH   6   7
ENDBRANCH   3   6
ENDBRANCH   1   2
BRANCH   1  13
HETATM   13  C9  UNL     1      -4.103   3.350  12.381  1.00  0.00     0.246 C 
HETATM   14  O3  UNL     1      -4.672   3.172  11.276  1.00  0.00    -0.271 OA
HETATM   15  N2  UNL     1      -3.100   2.406  12.733  1.00  0.00    -0.305 N 
ATOM     16  H2  UNL     1      -2.237   2.693  13.196  1.00  0.00     0.171 HD
BRANCH  15  17
HETATM   17  C10 UNL     1      -3.335   1.141  12.435  1.00  0.00     0.150 A 
HETATM   18  N3  UNL     1      -4.366   0.395  12.831  1.00  0.00    -0.346 N 
HETATM   19  C11 UNL     1      -4.428  -0.845  12.433  1.00  0.00     0.097 A 
ATOM     20  H3  UNL     1      -5.091   0.785  13.433  1.00  0.00     0.167 HD
HETATM   21  C12 UNL     1      -3.425  -1.310  11.626  1.00  0.00     0.070 A 
HETATM   22  S1  UNL     1      -2.426   0.065  11.473  1.00  0.00    -0.064 SA
ENDBRANCH  15  17
ENDBRANCH   1  13
BRANCH   1  23
HETATM   23  C13 UNL     1      -3.426   5.522  13.397  1.00  0.00     0.018 C 
HETATM   24  C14 UNL     1      -3.986   6.835  12.844  1.00  0.00     0.007 C 
HETATM   25  C15 UNL     1      -2.782   7.767  12.712  1.00  0.00     0.000 C 
HETATM   26  C16 UNL     1      -2.332   8.060  14.143  1.00  0.00     0.000 C 
HETATM   27  C17 UNL     1      -1.880   6.768  14.792  1.00  0.00     0.000 C 
HETATM   28  C18 UNL     1      -3.026   5.759  14.808  1.00  0.00     0.007 C 
ENDBRANCH   1  23
TORSDOF 7
ENDMDL
MODEL 2
REMARK VINA RESULT: -7.666878835      2.183      6.128
REMARK  7 active torsions:
REMARK  status: ('A' for Active; 'I' for Inactive)
REMARK    1  A    between atoms: C1_2  and  C2_3 
REMARK       I    between atoms: C1_2  and  N1_10 
REMARK    2  A    between atoms: C2_3  and  C3_4 
REMARK    3  A    between atoms: C3_4  and  C4_5 
REMARK    4  A    between atoms: N1_10  and  C8_12 
REMARK    5  A    between atoms: C8_12  and  C9_13 
REMARK    6  A    between atoms: C8_12  and  C13_23 
REMARK       I    between atoms: C9_13  and  N2_15 
REMARK    7  A    between atoms: N2_15  and  C10_17 
ROOT
HETATM    1  C8  UNL     1      -4.178   2.803  15.223  1.00  0.00     0.181 C 
ENDROOT
BRANCH   1   2
HETATM    2  N1  UNL     1      -4.459   4.235  15.191  1.00  0.00    -0.347 N 
HETATM    3  C1  UNL     1      -3.413   5.188  15.114  1.00  0.00     0.218 C 
HETATM    4  O1  UNL     1      -2.241   4.785  15.071  1.00  0.00    -0.274 OA
ATOM      5  H1  UNL     1      -5.427   4.556  15.225  1.00  0.00     0.163 HD
BRANCH   3   6
HETATM    6  C2  UNL     1      -3.731   6.617  15.084  1.00  0.00     0.103 C 
BRANCH   6   7
HETATM    7  C3  UNL     1      -2.797   7.401  15.926  1.00  0.00     0.016 C 
BRANCH   7   8
HETATM    8  C4  UNL     1      -2.271   8.667  15.353  1.00  0.00     0.012 C 
HETATM    9  C5  UNL     1      -0.957   9.048  16.002  1.00  0.00     0.033 C 
HETATM   10  C6  UNL     1      -0.042   9.214  14.810  1.00  0.00     0.168 C 
HETATM   11  O2  UNL     1      -0.457   8.195  13.954  1.00  0.00    -0.391 OA
HETATM   12  C7  UNL     1      -1.820   8.343  13.928  1.00  0.00     0.172 C 
ENDBRANCH   7   8
ENDBRANCH   6   7
ENDBRANCH   3   6
ENDBRANCH   1   2
BRANCH   1  13
HETATM   13  C9  UNL     1      -4.296   2.252  13.881  1.00  0.00     0.246 C 
HETATM   14  O3  UNL     1      -5.398   2.310  13.282  1.00  0.00    -0.271 OA
HETATM   15  N2  UNL     1      -3.226   1.635  13.176  1.00  0.00    -0.305 N 
ATOM     16  H2  UNL     1      -2.276   2.003  13.222  1.00  0.00     0.171 HD
BRANCH  15  17
HETATM   17  C10 UNL     1      -3.518   0.565  12.460  1.00  0.00     0.150 A 
HETATM   18  N3  UNL     1      -4.389  -0.397  12.761  1.00  0.00    -0.346 N 
HETATM   19  C11 UNL     1      -4.542  -1.384  11.923  1.00  0.00     0.097 A 
ATOM     20  H3  UNL     1      -4.926  -0.361  13.627  1.00  0.00     0.167 HD
HETATM   21  C12 UNL     1      -3.794  -1.374  10.776  1.00  0.00     0.070 A 
HETATM   22  S1  UNL     1      -2.894   0.065  10.952  1.00  0.00    -0.064 SA
ENDBRANCH  15  17
ENDBRANCH   1  13
BRANCH   1  23
HETATM   23  C13 UNL     1      -5.007   2.114  16.265  1.00  0.00     0.018 C 
HETATM   24  C14 UNL     1      -6.437   2.642  16.123  1.00  0.00     0.007 C 
HETATM   25  C15 UNL     1      -7.159   2.210  17.398  1.00  0.00     0.000 C 
HETATM   26  C16 UNL     1      -7.253   0.687  17.320  1.00  0.00     0.000 C 
HETATM   27  C17 UNL     1      -5.855   0.104  17.330  1.00  0.00     0.000 C 
HETATM   28  C18 UNL     1      -5.057   0.634  16.141  1.00  0.00     0.007 C 
ENDBRANCH   1  23
TORSDOF 7
ENDMDL
MODEL 3
REMARK VINA RESULT: -7.639341712      1.109      1.148
REMARK  7 active torsions:
REMARK  status: ('A' for Active; 'I' for Inactive)
REMARK    1  A    between atoms: C1_2  and  C2_3 
REMARK       I    between atoms: C1_2  and  N1_10 
REMARK    2  A    between atoms: C2_3  and  C3_4 
REMARK    3  A    between atoms: C3_4  and  C4_5 
REMARK    4  A    between atoms: N1_10  and  C8_12 
REMARK    5  A    between atoms: C8_12  and  C9_13 
REMARK    6  A    between atoms: C8_12  and  C13_23 
REMARK       I    between atoms: C9_13  and  N2_15 
REMARK    7  A    between atoms: N2_15  and  C10_17 
ROOT
HETATM    1  C8  UNL     1      -3.858   4.770  13.780  1.00  0.00     0.181 C 
ENDROOT
BRANCH   1   2
HETATM    2  N1  UNL     1      -4.573   4.324  14.971  1.00  0.00    -0.347 N 
HETATM    3  C1  UNL     1      -5.990   4.296  15.010  1.00  0.00     0.218 C 
HETATM    4  O1  UNL     1      -6.622   4.657  14.006  1.00  0.00    -0.274 OA
ATOM      5  H1  UNL     1      -4.044   4.028  15.791  1.00  0.00     0.163 HD
BRANCH   3   6
HETATM    6  C2  UNL     1      -6.675   3.843  16.223  1.00  0.00     0.103 C 
BRANCH   6   7
HETATM    7  C3  UNL     1      -6.781   2.366  16.270  1.00  0.00     0.016 C 
BRANCH   7   8
HETATM    8  C4  UNL     1      -5.866   1.651  17.198  1.00  0.00     0.012 C 
HETATM    9  C5  UNL     1      -6.650   0.846  18.213  1.00  0.00     0.033 C 
HETATM   10  C6  UNL     1      -6.065  -0.539  18.051  1.00  0.00     0.168 C 
HETATM   11  O2  UNL     1      -5.854  -0.630  16.676  1.00  0.00    -0.391 OA
HETATM   12  C7  UNL     1      -5.202   0.541  16.381  1.00  0.00     0.172 C 
ENDBRANCH   7   8
ENDBRANCH   6   7
ENDBRANCH   3   6
ENDBRANCH   1   2
BRANCH   1  13
HETATM   13  C9  UNL     1      -3.204   3.634  13.149  1.00  0.00     0.246 C 
HETATM   14  O3  UNL     1      -2.432   3.824  12.177  1.00  0.00    -0.271 OA
HETATM   15  N2  UNL     1      -3.377   2.284  13.562  1.00  0.00    -0.305 N 
ATOM     16  H2  UNL     1      -3.437   2.033  14.549  1.00  0.00     0.171 HD
BRANCH  15  17
HETATM   17  C10 UNL     1      -3.456   1.371  12.612  1.00  0.00     0.150 A 
HETATM   18  N3  UNL     1      -2.462   0.643  12.104  1.00  0.00    -0.346 N 
HETATM   19  C11 UNL     1      -2.735  -0.216  11.162  1.00  0.00     0.097 A 
ATOM     20  H3  UNL     1      -1.507   0.756  12.445  1.00  0.00     0.167 HD
HETATM   21  C12 UNL     1      -4.036  -0.321  10.748  1.00  0.00     0.070 A 
HETATM   22  S1  UNL     1      -4.817   0.829  11.737  1.00  0.00    -0.064 SA
ENDBRANCH  15  17
ENDBRANCH   1  13
BRANCH   1  23
HETATM   23  C13 UNL     1      -2.956   5.926  14.093  1.00  0.00     0.018 C 
HETATM   24  C14 UNL     1      -3.329   7.059  13.134  1.00  0.00     0.007 C 
HETATM   25  C15 UNL     1      -2.182   8.064  13.225  1.00  0.00     0.000 C 
HETATM   26  C16 UNL     1      -2.261   8.650  14.635  1.00  0.00     0.000 C 
HETATM   27  C17 UNL     1      -2.023   7.545  15.643  1.00  0.00     0.000 C 
HETATM   28  C18 UNL     1      -3.074   6.449  15.479  1.00  0.00     0.007 C 
ENDBRANCH   1  23
TORSDOF 7
ENDMDL
MODEL 4
REMARK VINA RESULT: -7.539304535      2.425      6.264
REMARK  7 active torsions:
REMARK  status: ('A' for Active; 'I' for Inactive)
REMARK    1  A    between atoms: C1_2  and  C2_3 
REMARK       I    between atoms: C1_2  and  N1_10 
REMARK    2  A    between atoms: C2_3  and  C3_4 
REMARK    3  A    between atoms: C3_4  and  C4_5 
REMARK    4  A    between atoms: N1_10  and  C8_12 
REMARK    5  A    between atoms: C8_12  and  C9_13 
REMARK    6  A    between atoms: C8_12  and  C13_23 
REMARK       I    between atoms: C9_13  and  N2_15 
REMARK    7  A    between atoms: N2_15  and  C10_17 
ROOT
HETATM    1  C8  UNL     1      -5.323   2.824  14.605  1.00  0.00     0.181 C 
ENDROOT
BRANCH   1   2
HETATM    2  N1  UNL     1      -6.230   3.903  14.228  1.00  0.00    -0.347 N 
HETATM    3  C1  UNL     1      -5.740   5.184  13.870  1.00  0.00     0.218 C 
HETATM    4  O1  UNL     1      -4.515   5.378  13.880  1.00  0.00    -0.274 OA
ATOM      5  H1  UNL     1      -7.236   3.733  14.221  1.00  0.00     0.163 HD
BRANCH   3   6
HETATM    6  C2  UNL     1      -6.679   6.244  13.497  1.00  0.00     0.103 C 
BRANCH   6   7
HETATM    7  C3  UNL     1      -6.264   6.925  12.248  1.00  0.00     0.016 C 
BRANCH   7   8
HETATM    8  C4  UNL     1      -7.307   7.688  11.514  1.00  0.00     0.012 C 
HETATM    9  C5  UNL     1      -6.840   9.099  11.224  1.00  0.00     0.033 C 
HETATM   10  C6  UNL     1      -7.029   9.202   9.727  1.00  0.00     0.168 C 
HETATM   11  O2  UNL     1      -6.666   7.933   9.278  1.00  0.00    -0.391 OA
HETATM   12  C7  UNL     1      -7.367   7.094  10.106  1.00  0.00     0.172 C 
ENDBRANCH   7   8
ENDBRANCH   6   7
ENDBRANCH   3   6
ENDBRANCH   1   2
BRANCH   1  13
HETATM   13  C9  UNL     1      -4.903   2.100  13.415  1.00  0.00     0.246 C 
HETATM   14  O3  UNL     1      -5.685   2.006  12.438  1.00  0.00    -0.271 OA
HETATM   15  N2  UNL     1      -3.634   1.474  13.271  1.00  0.00    -0.305 N 
ATOM     16  H2  UNL     1      -2.782   1.910  13.623  1.00  0.00     0.171 HD
BRANCH  15  17
HETATM   17  C10 UNL     1      -3.609   0.304  12.659  1.00  0.00     0.150 A 
HETATM   18  N3  UNL     1      -4.422  -0.732  12.861  1.00  0.00    -0.346 N 
HETATM   19  C11 UNL     1      -4.240  -1.814  12.157  1.00  0.00     0.097 A 
ATOM     20  H3  UNL     1      -5.171  -0.680  13.552  1.00  0.00     0.167 HD
HETATM   21  C12 UNL     1      -3.219  -1.822  11.245  1.00  0.00     0.070 A 
HETATM   22  S1  UNL     1      -2.557  -0.262  11.441  1.00  0.00    -0.064 SA
ENDBRANCH  15  17
ENDBRANCH   1  13
BRANCH   1  23
HETATM   23  C13 UNL     1      -5.919   1.972  15.687  1.00  0.00     0.018 C 
HETATM   24  C14 UNL     1      -4.759   1.453  16.539  1.00  0.00     0.007 C 
HETATM   25  C15 UNL     1      -5.347   0.325  17.385  1.00  0.00     0.000 C 
HETATM   26  C16 UNL     1      -6.321   1.001  18.350  1.00  0.00     0.000 C 
HETATM   27  C17 UNL     1      -7.436   1.648  17.554  1.00  0.00     0.000 C 
HETATM   28  C18 UNL     1      -6.861   2.683  16.590  1.00  0.00     0.007 C 
ENDBRANCH   1  23
TORSDOF 7
ENDMDL
MODEL 5
REMARK VINA RESULT: -7.507029791      2.783      5.500
REMARK  7 active torsions:
REMARK  status: ('A' for Active; 'I' for Inactive)
REMARK    1  A    between atoms: C1_2  and  C2_3 
REMARK       I    between atoms: C1_2  and  N1_10 
REMARK    2  A    between atoms: C2_3  and  C3_4 
REMARK    3  A    between atoms: C3_4  and  C4_5 
REMARK    4  A    between atoms: N1_10  and  C8_12 
REMARK    5  A    between atoms: C8_12  and  C9_13 
REMARK    6  A    between atoms: C8_12  and  C13_23 
REMARK       I    between atoms: C9_13  and  N2_15 
REMARK    7  A    between atoms: N2_15  and  C10_17 
ROOT
HETATM    1  C8  UNL     1      -3.470   2.446  11.622  1.00  0.00     0.181 C 
ENDROOT
BRANCH   1   2
HETATM    2  N1  UNL     1      -4.299   2.791  12.772  1.00  0.00    -0.347 N 
HETATM    3  C1  UNL     1      -3.721   3.106  14.027  1.00  0.00     0.218 C 
HETATM    4  O1  UNL     1      -2.486   3.086  14.136  1.00  0.00    -0.274 OA
ATOM      5  H1  UNL     1      -5.315   2.806  12.671  1.00  0.00     0.163 HD
BRANCH   3   6
HETATM    6  C2  UNL     1      -4.584   3.447  15.160  1.00  0.00     0.103 C 
BRANCH   6   7
HETATM    7  C3  UNL     1      -5.439   2.304  15.558  1.00  0.00     0.016 C 
BRANCH   7   8
HETATM    8  C4  UNL     1      -5.028   1.539  16.764  1.00  0.00     0.012 C 
HETATM    9  C5  UNL     1      -6.211   1.290  17.675  1.00  0.00     0.033 C 
HETATM   10  C6  UNL     1      -6.177  -0.211  17.850  1.00  0.00     0.168 C 
HETATM   11  O2  UNL     1      -5.795  -0.664  16.588  1.00  0.00    -0.391 OA
HETATM   12  C7  UNL     1      -4.710   0.120  16.288  1.00  0.00     0.172 C 
ENDBRANCH   7   8
ENDBRANCH   6   7
ENDBRANCH   3   6
ENDBRANCH   1   2
BRANCH   1  13
HETATM   13  C9  UNL     1      -3.709   3.395  10.545  1.00  0.00     0.246 C 
HETATM   14  O3  UNL     1      -2.815   3.596   9.686  1.00  0.00    -0.271 OA
HETATM   15  N2  UNL     1      -4.915   4.131  10.384  1.00  0.00    -0.305 N 
ATOM     16  H2  UNL     1      -5.826   3.707  10.563  1.00  0.00     0.171 HD
BRANCH  15  17
HETATM   17  C10 UNL     1      -4.804   5.388   9.994  1.00  0.00     0.150 A 
HETATM   18  N3  UNL     1      -3.798   6.225  10.242  1.00  0.00    -0.346 N 
HETATM   19  C11 UNL     1      -3.866   7.439   9.770  1.00  0.00     0.097 A 
ATOM     20  H3  UNL     1      -2.991   5.924  10.789  1.00  0.00     0.167 HD
HETATM   21  C12 UNL     1      -4.973   7.783   9.043  1.00  0.00     0.070 A 
HETATM   22  S1  UNL     1      -5.878   6.336   9.069  1.00  0.00    -0.064 SA
ENDBRANCH  15  17
ENDBRANCH   1  13
BRANCH   1  23
HETATM   23  C13 UNL     1      -3.643   1.004  11.246  1.00  0.00     0.018 C 
HETATM   24  C14 UNL     1      -2.639   0.201  12.076  1.00  0.00     0.007 C 
HETATM   25  C15 UNL     1      -2.584  -1.180  11.424  1.00  0.00     0.000 C 
HETATM   26  C16 UNL     1      -3.954  -1.808  11.678  1.00  0.00     0.000 C 
HETATM   27  C17 UNL     1      -5.014  -0.981  10.981  1.00  0.00     0.000 C 
HETATM   28  C18 UNL     1      -4.996   0.451  11.511  1.00  0.00     0.007 C 
ENDBRANCH   1  23
TORSDOF 7
ENDMDL
