MODEL 1
REMARK VINA RESULT: -7.995517213      0.000      0.000
REMARK  10 active torsions:
REMARK  status: ('A' for Active; 'I' for Inactive)
REMARK    1  A    between atoms: N2_11  and  C8_12 
REMARK    2  A    between atoms: C11_21  and  C12_22 
REMARK    3  A    between atoms: C13_23  and  C14_24 
REMARK    4  A    between atoms: C17_27  and  C18_28 
REMARK    5  A    between atoms: C18_28  and  C19_29 
REMARK    6  A    between atoms: C19_29  and  N6_30 
REMARK    7  A    between atoms: N6_30  and  O2_32 
REMARK    8  A    between atoms: C22_38  and  N8_39 
REMARK    9  A    between atoms: N8_39  and  C23_41 
REMARK   10  A    between atoms: C23_41  and  C24_42 
ROOT
HETATM    1  C8  UNL     1     -14.271  28.789  28.993  1.00  0.00     0.135 A 
HETATM    2  N3  UNL     1     -15.630  28.992  28.823  1.00  0.00    -0.337 N 
ATOM      3  H3  UNL     1     -16.280  28.209  28.896  1.00  0.00     0.168 HD
HETATM    4  C9  UNL     1     -16.080  30.211  28.565  1.00  0.00     0.183 A 
HETATM    5  N4  UNL     1     -15.249  31.262  28.466  1.00  0.00    -0.338 N 
ATOM      6  H4  UNL     1     -15.633  32.186  28.268  1.00  0.00     0.168 HD
HETATM    7  C10 UNL     1     -13.903  31.115  28.625  1.00  0.00     0.126 A 
HETATM    8  N5  UNL     1     -13.098  32.180  28.515  1.00  0.00    -0.320 N 
ATOM      9  H5  UNL     1     -13.508  33.092  28.315  1.00  0.00     0.169 HD
HETATM   10  C11 UNL     1     -11.767  32.081  28.659  1.00  0.00     0.165 A 
HETATM   11  N7  UNL     1     -11.253  30.886  28.917  1.00  0.00    -0.320 N 
ATOM     12  H7  UNL     1     -10.241  30.812  29.025  1.00  0.00     0.169 HD
HETATM   13  C22 UNL     1     -12.002  29.743  29.049  1.00  0.00     0.125 A 
HETATM   14  C30 UNL     1     -13.408  29.858  28.894  1.00  0.00     0.097 A 
ENDROOT
BRANCH  10  15
HETATM   15  C12 UNL     1     -10.931  33.276  28.561  1.00  0.00    -0.025 C 
HETATM   16  C13 UNL     1     -10.209  34.238  28.484  1.00  0.00    -0.059 C 
BRANCH  16  17
HETATM   17  C14 UNL     1      -9.313  35.360  28.406  1.00  0.00     0.018 A 
HETATM   18  C15 UNL     1      -9.345  36.231  27.322  1.00  0.00     0.022 A 
HETATM   19  C16 UNL     1      -8.506  37.323  27.242  1.00  0.00     0.022 A 
HETATM   20  C17 UNL     1      -7.608  37.595  28.226  1.00  0.00     0.019 A 
HETATM   21  C20 UNL     1      -7.544  36.748  29.322  1.00  0.00     0.022 A 
HETATM   22  C21 UNL     1      -8.399  35.646  29.393  1.00  0.00     0.022 A 
BRANCH  20  23
HETATM   23  C18 UNL     1      -6.725  38.747  28.198  1.00  0.00    -0.042 C 
BRANCH  23  24
HETATM   24  C19 UNL     1      -6.007  39.721  28.199  1.00  0.00     0.037 C 
BRANCH  24  25
HETATM   25  N6  UNL     1      -5.197  40.855  28.232  1.00  0.00    -0.226 N 
ATOM     26  H6  UNL     1      -5.560  41.729  27.855  1.00  0.00     0.204 HD
BRANCH  25  27
HETATM   27  O2  UNL     1      -3.962  40.835  28.739  1.00  0.00    -0.282 OA
ATOM     28  H2  UNL     1      -3.204  41.119  28.243  1.00  0.00     0.245 HD
ENDBRANCH  25  27
ENDBRANCH  24  25
ENDBRANCH  23  24
ENDBRANCH  20  23
ENDBRANCH  16  17
ENDBRANCH  10  15
BRANCH  13  29
HETATM   29  N8  UNL     1     -11.524  28.658  29.287  1.00  0.00    -0.351 N 
ATOM     30  H8  UNL     1     -12.276  28.064  29.636  1.00  0.00     0.166 HD
BRANCH  29  31
HETATM   31  C23 UNL     1     -10.365  27.895  29.278  1.00  0.00     0.101 C 
BRANCH  31  32
HETATM   32  C24 UNL     1     -10.198  26.897  28.212  1.00  0.00    -0.021 A 
HETATM   33  C25 UNL     1      -9.863  25.553  28.481  1.00  0.00     0.013 A 
HETATM   34  C26 UNL     1      -9.717  24.645  27.477  1.00  0.00     0.001 A 
HETATM   35  C27 UNL     1      -9.897  25.037  26.165  1.00  0.00     0.000 A 
HETATM   36  C28 UNL     1     -10.225  26.353  25.894  1.00  0.00     0.001 A 
HETATM   37  C29 UNL     1     -10.372  27.263  26.880  1.00  0.00     0.013 A 
ENDBRANCH  31  32
ENDBRANCH  29  31
ENDBRANCH  13  29
BRANCH   1  38
HETATM   38  N2  UNL     1     -13.877  27.465  29.262  1.00  0.00    -0.246 N 
HETATM   39  C1  UNL     1     -13.672  26.925  30.448  1.00  0.00     0.333 A 
HETATM   40  O1  UNL     1     -13.695  27.472  31.606  1.00  0.00    -0.246 OA
HETATM   41  N1  UNL     1     -13.412  25.616  30.306  1.00  0.00    -0.306 N 
HETATM   42  C2  UNL     1     -13.456  25.331  28.997  1.00  0.00     0.063 A 
ATOM     43  H1  UNL     1     -13.216  24.956  31.058  1.00  0.00     0.171 HD
HETATM   44  C3  UNL     1     -13.278  24.146  28.286  1.00  0.00     0.032 A 
HETATM   45  C7  UNL     1     -13.748  26.499  28.338  1.00  0.00     0.072 A 
HETATM   46  C4  UNL     1     -13.391  24.121  26.924  1.00  0.00     0.002 A 
HETATM   47  C5  UNL     1     -13.684  25.291  26.286  1.00  0.00     0.002 A 
HETATM   48  C6  UNL     1     -13.868  26.492  26.943  1.00  0.00     0.032 A 
ENDBRANCH   1  38
TORSDOF 10
ENDMDL
MODEL 2
REMARK VINA RESULT: -7.920898392      0.356      1.119
REMARK  10 active torsions:
REMARK  status: ('A' for Active; 'I' for Inactive)
REMARK    1  A    between atoms: N2_11  and  C8_12 
REMARK    2  A    between atoms: C11_21  and  C12_22 
REMARK    3  A    between atoms: C13_23  and  C14_24 
REMARK    4  A    between atoms: C17_27  and  C18_28 
REMARK    5  A    between atoms: C18_28  and  C19_29 
REMARK    6  A    between atoms: C19_29  and  N6_30 
REMARK    7  A    between atoms: N6_30  and  O2_32 
REMARK    8  A    between atoms: C22_38  and  N8_39 
REMARK    9  A    between atoms: N8_39  and  C23_41 
REMARK   10  A    between atoms: C23_41  and  C24_42 
ROOT
HETATM    1  C8  UNL     1     -14.408  28.900  29.125  1.00  0.00     0.135 A 
HETATM    2  N3  UNL     1     -15.766  29.124  28.979  1.00  0.00    -0.337 N 
ATOM      3  H3  UNL     1     -16.428  28.355  29.082  1.00  0.00     0.168 HD
HETATM    4  C9  UNL     1     -16.200  30.345  28.705  1.00  0.00     0.183 A 
HETATM    5  N4  UNL     1     -15.353  31.378  28.566  1.00  0.00    -0.338 N 
ATOM      6  H4  UNL     1     -15.724  32.305  28.356  1.00  0.00     0.168 HD
HETATM    7  C10 UNL     1     -14.006  31.211  28.700  1.00  0.00     0.126 A 
HETATM    8  N5  UNL     1     -13.185  32.258  28.550  1.00  0.00    -0.320 N 
ATOM      9  H5  UNL     1     -13.583  33.173  28.339  1.00  0.00     0.169 HD
HETATM   10  C11 UNL     1     -11.853  32.137  28.669  1.00  0.00     0.165 A 
HETATM   11  N7  UNL     1     -11.355  30.940  28.943  1.00  0.00    -0.320 N 
ATOM     12  H7  UNL     1     -10.343  30.850  29.031  1.00  0.00     0.169 HD
HETATM   13  C22 UNL     1     -12.121  29.813  29.115  1.00  0.00     0.125 A 
HETATM   14  C30 UNL     1     -13.528  29.951  28.986  1.00  0.00     0.097 A 
ENDROOT
BRANCH  10  15
HETATM   15  C12 UNL     1     -10.999  33.315  28.529  1.00  0.00    -0.025 C 
HETATM   16  C13 UNL     1     -10.277  34.269  28.381  1.00  0.00    -0.059 C 
BRANCH  16  17
HETATM   17  C14 UNL     1      -9.392  35.384  28.174  1.00  0.00     0.018 A 
HETATM   18  C15 UNL     1      -8.453  35.744  29.134  1.00  0.00     0.022 A 
HETATM   19  C16 UNL     1      -7.583  36.796  28.942  1.00  0.00     0.022 A 
HETATM   20  C17 UNL     1      -7.609  37.532  27.799  1.00  0.00     0.019 A 
HETATM   21  C20 UNL     1      -8.534  37.207  26.819  1.00  0.00     0.022 A 
HETATM   22  C21 UNL     1      -9.409  36.136  27.023  1.00  0.00     0.022 A 
BRANCH  20  23
HETATM   23  C18 UNL     1      -6.697  38.631  27.541  1.00  0.00    -0.042 C 
BRANCH  23  24
HETATM   24  C19 UNL     1      -5.943  39.560  27.357  1.00  0.00     0.037 C 
BRANCH  24  25
HETATM   25  N6  UNL     1      -5.067  40.616  27.113  1.00  0.00    -0.226 N 
ATOM     26  H6  UNL     1      -5.149  41.130  26.236  1.00  0.00     0.204 HD
BRANCH  25  27
HETATM   27  O2  UNL     1      -4.124  40.978  27.986  1.00  0.00    -0.282 OA
ATOM     28  H2  UNL     1      -4.290  41.031  28.920  1.00  0.00     0.245 HD
ENDBRANCH  25  27
ENDBRANCH  24  25
ENDBRANCH  23  24
ENDBRANCH  20  23
ENDBRANCH  16  17
ENDBRANCH  10  15
BRANCH  13  29
HETATM   29  N8  UNL     1     -11.658  28.725  29.366  1.00  0.00    -0.351 N 
ATOM     30  H8  UNL     1     -12.418  28.145  29.722  1.00  0.00     0.166 HD
BRANCH  29  31
HETATM   31  C23 UNL     1     -10.509  27.947  29.366  1.00  0.00     0.101 C 
BRANCH  31  32
HETATM   32  C24 UNL     1     -10.317  26.990  28.267  1.00  0.00    -0.021 A 
HETATM   33  C25 UNL     1     -10.445  27.360  26.912  1.00  0.00     0.013 A 
HETATM   34  C26 UNL     1     -10.258  26.457  25.911  1.00  0.00     0.001 A 
HETATM   35  C27 UNL     1      -9.937  25.149  26.216  1.00  0.00     0.000 A 
HETATM   36  C28 UNL     1      -9.809  24.779  27.543  1.00  0.00     0.001 A 
HETATM   37  C29 UNL     1      -9.992  25.665  28.545  1.00  0.00     0.013 A 
ENDBRANCH  31  32
ENDBRANCH  29  31
ENDBRANCH  13  29
BRANCH   1  38
HETATM   38  N2  UNL     1     -14.032  27.575  29.414  1.00  0.00    -0.246 N 
HETATM   39  C1  UNL     1     -13.886  27.036  30.610  1.00  0.00     0.333 A 
HETATM   40  O1  UNL     1     -13.961  27.585  31.765  1.00  0.00    -0.246 OA
HETATM   41  N1  UNL     1     -13.623  25.725  30.482  1.00  0.00    -0.306 N 
HETATM   42  C2  UNL     1     -13.606  25.439  29.173  1.00  0.00     0.063 A 
ATOM     43  H1  UNL     1     -13.466  25.067  31.244  1.00  0.00     0.171 HD
HETATM   44  C3  UNL     1     -13.399  24.253  28.473  1.00  0.00     0.032 A 
HETATM   45  C7  UNL     1     -13.863  26.607  28.500  1.00  0.00     0.072 A 
HETATM   46  C4  UNL     1     -13.447  24.225  27.107  1.00  0.00     0.002 A 
HETATM   47  C5  UNL     1     -13.705  25.396  26.455  1.00  0.00     0.002 A 
HETATM   48  C6  UNL     1     -13.916  26.598  27.100  1.00  0.00     0.032 A 
ENDBRANCH   1  38
TORSDOF 10
ENDMDL
MODEL 3
REMARK VINA RESULT: -7.764434293      4.955      8.084
REMARK  10 active torsions:
REMARK  status: ('A' for Active; 'I' for Inactive)
REMARK    1  A    between atoms: N2_11  and  C8_12 
REMARK    2  A    between atoms: C11_21  and  C12_22 
REMARK    3  A    between atoms: C13_23  and  C14_24 
REMARK    4  A    between atoms: C17_27  and  C18_28 
REMARK    5  A    between atoms: C18_28  and  C19_29 
REMARK    6  A    between atoms: C19_29  and  N6_30 
REMARK    7  A    between atoms: N6_30  and  O2_32 
REMARK    8  A    between atoms: C22_38  and  N8_39 
REMARK    9  A    between atoms: N8_39  and  C23_41 
REMARK   10  A    between atoms: C23_41  and  C24_42 
ROOT
HETATM    1  C8  UNL     1      -9.465  29.013  28.915  1.00  0.00     0.135 A 
HETATM    2  N3  UNL     1      -8.118  29.199  29.178  1.00  0.00    -0.337 N 
ATOM      3  H3  UNL     1      -7.414  28.843  28.531  1.00  0.00     0.168 HD
HETATM    4  C9  UNL     1      -7.751  29.844  30.275  1.00  0.00     0.183 A 
HETATM    5  N4  UNL     1      -8.655  30.326  31.144  1.00  0.00    -0.338 N 
ATOM      6  H4  UNL     1      -8.334  30.818  31.978  1.00  0.00     0.168 HD
HETATM    7  C10 UNL     1      -9.993  30.169  30.932  1.00  0.00     0.126 A 
HETATM    8  N5  UNL     1     -10.871  30.655  31.818  1.00  0.00    -0.320 N 
ATOM      9  H5  UNL     1     -10.523  31.142  32.644  1.00  0.00     0.169 HD
HETATM   10  C11 UNL     1     -12.196  30.519  31.652  1.00  0.00     0.165 A 
HETATM   11  N7  UNL     1     -12.629  29.883  30.572  1.00  0.00    -0.320 N 
ATOM     12  H7  UNL     1     -13.636  29.779  30.448  1.00  0.00     0.169 HD
HETATM   13  C22 UNL     1     -11.802  29.355  29.612  1.00  0.00     0.125 A 
HETATM   14  C30 UNL     1     -10.403  29.503  29.797  1.00  0.00     0.097 A 
ENDROOT
BRANCH  10  15
HETATM   15  C12 UNL     1     -13.117  31.094  32.630  1.00  0.00    -0.025 C 
HETATM   16  C13 UNL     1     -13.899  31.584  33.406  1.00  0.00    -0.059 C 
BRANCH  16  17
HETATM   17  C14 UNL     1     -14.849  32.193  34.298  1.00  0.00     0.018 A 
HETATM   18  C15 UNL     1     -16.185  32.334  33.938  1.00  0.00     0.022 A 
HETATM   19  C16 UNL     1     -17.112  32.896  34.790  1.00  0.00     0.022 A 
HETATM   20  C17 UNL     1     -16.756  33.339  36.025  1.00  0.00     0.019 A 
HETATM   21  C20 UNL     1     -15.433  33.218  36.420  1.00  0.00     0.022 A 
HETATM   22  C21 UNL     1     -14.502  32.645  35.549  1.00  0.00     0.022 A 
BRANCH  20  23
HETATM   23  C18 UNL     1     -17.702  33.912  36.965  1.00  0.00    -0.042 C 
BRANCH  23  24
HETATM   24  C19 UNL     1     -18.489  34.361  37.767  1.00  0.00     0.037 C 
BRANCH  24  25
HETATM   25  N6  UNL     1     -19.371  34.874  38.716  1.00  0.00    -0.226 N 
ATOM     26  H6  UNL     1     -19.924  34.225  39.276  1.00  0.00     0.204 HD
BRANCH  25  27
HETATM   27  O2  UNL     1     -19.518  36.186  38.919  1.00  0.00    -0.282 OA
ATOM     28  H2  UNL     1     -19.388  36.825  38.228  1.00  0.00     0.245 HD
ENDBRANCH  25  27
ENDBRANCH  24  25
ENDBRANCH  23  24
ENDBRANCH  20  23
ENDBRANCH  16  17
ENDBRANCH  10  15
BRANCH  13  29
HETATM   29  N8  UNL     1     -12.206  28.778  28.629  1.00  0.00    -0.351 N 
ATOM     30  H8  UNL     1     -11.408  28.632  28.011  1.00  0.00     0.166 HD
BRANCH  29  31
HETATM   31  C23 UNL     1     -13.318  28.234  28.003  1.00  0.00     0.101 C 
BRANCH  31  32
HETATM   32  C24 UNL     1     -13.435  26.770  27.939  1.00  0.00    -0.021 A 
HETATM   33  C25 UNL     1     -13.602  26.076  26.723  1.00  0.00     0.013 A 
HETATM   34  C26 UNL     1     -13.704  24.720  26.689  1.00  0.00     0.001 A 
HETATM   35  C27 UNL     1     -13.645  23.997  27.864  1.00  0.00     0.000 A 
HETATM   36  C28 UNL     1     -13.481  24.670  29.061  1.00  0.00     0.001 A 
HETATM   37  C29 UNL     1     -13.379  26.015  29.108  1.00  0.00     0.013 A 
ENDBRANCH  31  32
ENDBRANCH  29  31
ENDBRANCH  13  29
BRANCH   1  38
HETATM   38  N2  UNL     1      -9.768  28.318  27.730  1.00  0.00    -0.246 N 
HETATM   39  C1  UNL     1      -9.933  28.836  26.527  1.00  0.00     0.333 A 
HETATM   40  O1  UNL     1      -9.942  30.065  26.165  1.00  0.00    -0.246 OA
HETATM   41  N1  UNL     1     -10.106  27.849  25.633  1.00  0.00    -0.306 N 
HETATM   42  C2  UNL     1     -10.048  26.685  26.295  1.00  0.00     0.063 A 
ATOM     43  H1  UNL     1     -10.255  27.965  24.632  1.00  0.00     0.171 HD
HETATM   44  C3  UNL     1     -10.149  25.360  25.877  1.00  0.00     0.032 A 
HETATM   45  C7  UNL     1      -9.836  26.981  27.618  1.00  0.00     0.072 A 
HETATM   46  C4  UNL     1     -10.039  24.331  26.770  1.00  0.00     0.002 A 
HETATM   47  C5  UNL     1      -9.827  24.645  28.081  1.00  0.00     0.002 A 
HETATM   48  C6  UNL     1      -9.721  25.940  28.547  1.00  0.00     0.032 A 
ENDBRANCH   1  38
TORSDOF 10
ENDMDL
MODEL 4
REMARK VINA RESULT: -7.601750508      0.805      1.149
REMARK  10 active torsions:
REMARK  status: ('A' for Active; 'I' for Inactive)
REMARK    1  A    between atoms: N2_11  and  C8_12 
REMARK    2  A    between atoms: C11_21  and  C12_22 
REMARK    3  A    between atoms: C13_23  and  C14_24 
REMARK    4  A    between atoms: C17_27  and  C18_28 
REMARK    5  A    between atoms: C18_28  and  C19_29 
REMARK    6  A    between atoms: C19_29  and  N6_30 
REMARK    7  A    between atoms: N6_30  and  O2_32 
REMARK    8  A    between atoms: C22_38  and  N8_39 
REMARK    9  A    between atoms: N8_39  and  C23_41 
REMARK   10  A    between atoms: C23_41  and  C24_42 
ROOT
HETATM    1  C8  UNL     1     -14.358  28.827  29.017  1.00  0.00     0.135 A 
HETATM    2  N3  UNL     1     -15.684  29.066  28.695  1.00  0.00    -0.337 N 
ATOM      3  H3  UNL     1     -16.354  28.298  28.673  1.00  0.00     0.168 HD
HETATM    4  C9  UNL     1     -16.074  30.301  28.416  1.00  0.00     0.183 A 
HETATM    5  N4  UNL     1     -15.215  31.333  28.439  1.00  0.00    -0.338 N 
ATOM      6  H4  UNL     1     -15.553  32.270  28.220  1.00  0.00     0.168 HD
HETATM    7  C10 UNL     1     -13.900  31.152  28.750  1.00  0.00     0.126 A 
HETATM    8  N5  UNL     1     -13.065  32.198  28.759  1.00  0.00    -0.320 N 
ATOM      9  H5  UNL     1     -13.430  33.124  28.535  1.00  0.00     0.169 HD
HETATM   10  C11 UNL     1     -11.763  32.064  29.055  1.00  0.00     0.165 A 
HETATM   11  N7  UNL     1     -11.308  30.853  29.343  1.00  0.00    -0.320 N 
ATOM     12  H7  UNL     1     -10.318  30.753  29.566  1.00  0.00     0.169 HD
HETATM   13  C22 UNL     1     -12.091  29.725  29.360  1.00  0.00     0.125 A 
HETATM   14  C30 UNL     1     -13.466  29.877  29.045  1.00  0.00     0.097 A 
ENDROOT
BRANCH  10  15
HETATM   15  C12 UNL     1     -10.896  33.241  29.084  1.00  0.00    -0.025 C 
HETATM   16  C13 UNL     1     -10.169  34.200  29.144  1.00  0.00    -0.059 C 
BRANCH  16  17
HETATM   17  C14 UNL     1      -9.295  35.337  29.261  1.00  0.00     0.018 A 
HETATM   18  C15 UNL     1      -8.018  35.322  28.711  1.00  0.00     0.022 A 
HETATM   19  C16 UNL     1      -7.177  36.411  28.796  1.00  0.00     0.022 A 
HETATM   20  C17 UNL     1      -7.563  37.552  29.427  1.00  0.00     0.019 A 
HETATM   21  C20 UNL     1      -8.828  37.605  29.992  1.00  0.00     0.022 A 
HETATM   22  C21 UNL     1      -9.673  36.497  29.897  1.00  0.00     0.022 A 
BRANCH  20  23
HETATM   23  C18 UNL     1      -6.723  38.732  29.519  1.00  0.00    -0.042 C 
BRANCH  23  24
HETATM   24  C19 UNL     1      -6.046  39.733  29.578  1.00  0.00     0.037 C 
BRANCH  24  25
HETATM   25  N6  UNL     1      -5.292  40.905  29.627  1.00  0.00    -0.226 N 
ATOM     26  H6  UNL     1      -5.187  41.457  28.776  1.00  0.00     0.204 HD
BRANCH  25  27
HETATM   27  O2  UNL     1      -4.702  41.328  30.748  1.00  0.00    -0.282 OA
ATOM     28  H2  UNL     1      -5.063  41.152  31.609  1.00  0.00     0.245 HD
ENDBRANCH  25  27
ENDBRANCH  24  25
ENDBRANCH  23  24
ENDBRANCH  20  23
ENDBRANCH  16  17
ENDBRANCH  10  15
BRANCH  13  29
HETATM   29  N8  UNL     1     -11.667  28.624  29.626  1.00  0.00    -0.351 N 
ATOM     30  H8  UNL     1     -12.432  28.098  30.049  1.00  0.00     0.166 HD
BRANCH  29  31
HETATM   31  C23 UNL     1     -10.561  27.788  29.588  1.00  0.00     0.101 C 
BRANCH  31  32
HETATM   32  C24 UNL     1     -10.354  26.963  28.390  1.00  0.00    -0.021 A 
HETATM   33  C25 UNL     1     -10.427  27.492  27.084  1.00  0.00     0.013 A 
HETATM   34  C26 UNL     1     -10.228  26.708  25.990  1.00  0.00     0.001 A 
HETATM   35  C27 UNL     1      -9.948  25.365  26.148  1.00  0.00     0.000 A 
HETATM   36  C28 UNL     1      -9.874  24.839  27.425  1.00  0.00     0.001 A 
HETATM   37  C29 UNL     1     -10.071  25.605  28.519  1.00  0.00     0.013 A 
ENDBRANCH  31  32
ENDBRANCH  29  31
ENDBRANCH  13  29
BRANCH   1  38
HETATM   38  N2  UNL     1     -14.027  27.489  29.298  1.00  0.00    -0.246 N 
HETATM   39  C1  UNL     1     -13.935  26.929  30.489  1.00  0.00     0.333 A 
HETATM   40  O1  UNL     1     -14.036  27.463  31.649  1.00  0.00    -0.246 OA
HETATM   41  N1  UNL     1     -13.702  25.614  30.350  1.00  0.00    -0.306 N 
HETATM   42  C2  UNL     1     -13.648  25.347  29.038  1.00  0.00     0.063 A 
ATOM     43  H1  UNL     1     -13.588  24.940  31.107  1.00  0.00     0.171 HD
HETATM   44  C3  UNL     1     -13.448  24.165  28.328  1.00  0.00     0.032 A 
HETATM   45  C7  UNL     1     -13.851  26.530  28.375  1.00  0.00     0.072 A 
HETATM   46  C4  UNL     1     -13.450  24.159  26.960  1.00  0.00     0.002 A 
HETATM   47  C5  UNL     1     -13.655  25.345  26.318  1.00  0.00     0.002 A 
HETATM   48  C6  UNL     1     -13.857  26.543  26.974  1.00  0.00     0.032 A 
ENDBRANCH   1  38
TORSDOF 10
ENDMDL
MODEL 5
REMARK VINA RESULT: -7.507067630      5.097     11.120
REMARK  10 active torsions:
REMARK  status: ('A' for Active; 'I' for Inactive)
REMARK    1  A    between atoms: N2_11  and  C8_12 
REMARK    2  A    between atoms: C11_21  and  C12_22 
REMARK    3  A    between atoms: C13_23  and  C14_24 
REMARK    4  A    between atoms: C17_27  and  C18_28 
REMARK    5  A    between atoms: C18_28  and  C19_29 
REMARK    6  A    between atoms: C19_29  and  N6_30 
REMARK    7  A    between atoms: N6_30  and  O2_32 
REMARK    8  A    between atoms: C22_38  and  N8_39 
REMARK    9  A    between atoms: N8_39  and  C23_41 
REMARK   10  A    between atoms: C23_41  and  C24_42 
ROOT
HETATM    1  C8  UNL     1     -12.052  29.436  30.078  1.00  0.00     0.135 A 
HETATM    2  N3  UNL     1     -11.258  30.091  31.004  1.00  0.00    -0.337 N 
ATOM      3  H3  UNL     1     -10.309  30.373  30.760  1.00  0.00     0.168 HD
HETATM    4  C9  UNL     1     -11.741  30.349  32.211  1.00  0.00     0.183 A 
HETATM    5  N4  UNL     1     -12.988  29.993  32.561  1.00  0.00    -0.338 N 
ATOM      6  H4  UNL     1     -13.325  30.210  33.499  1.00  0.00     0.168 HD
HETATM    7  C10 UNL     1     -13.810  29.346  31.686  1.00  0.00     0.126 A 
HETATM    8  N5  UNL     1     -15.046  28.997  32.065  1.00  0.00    -0.320 N 
ATOM      9  H5  UNL     1     -15.358  29.226  33.009  1.00  0.00     0.169 HD
HETATM   10  C11 UNL     1     -15.887  28.356  31.238  1.00  0.00     0.165 A 
HETATM   11  N7  UNL     1     -15.463  28.068  30.015  1.00  0.00    -0.320 N 
ATOM     12  H7  UNL     1     -16.103  27.578  29.389  1.00  0.00     0.169 HD
HETATM   13  C22 UNL     1     -14.215  28.388  29.542  1.00  0.00     0.125 A 
HETATM   14  C30 UNL     1     -13.334  29.065  30.424  1.00  0.00     0.097 A 
ENDROOT
BRANCH  10  15
HETATM   15  C12 UNL     1     -17.238  28.024  31.685  1.00  0.00    -0.025 C 
HETATM   16  C13 UNL     1     -18.344  27.712  32.049  1.00  0.00    -0.059 C 
BRANCH  16  17
HETATM   17  C14 UNL     1     -19.656  27.296  32.469  1.00  0.00     0.018 A 
HETATM   18  C15 UNL     1     -20.631  26.949  31.541  1.00  0.00     0.022 A 
HETATM   19  C16 UNL     1     -21.886  26.528  31.928  1.00  0.00     0.022 A 
HETATM   20  C17 UNL     1     -22.225  26.436  33.241  1.00  0.00     0.019 A 
HETATM   21  C20 UNL     1     -21.280  26.778  34.197  1.00  0.00     0.022 A 
HETATM   22  C21 UNL     1     -20.011  27.200  33.794  1.00  0.00     0.022 A 
BRANCH  20  23
HETATM   23  C18 UNL     1     -23.523  25.974  33.696  1.00  0.00    -0.042 C 
BRANCH  23  24
HETATM   24  C19 UNL     1     -24.598  25.558  34.064  1.00  0.00     0.037 C 
BRANCH  24  25
HETATM   25  N6  UNL     1     -25.820  25.060  34.514  1.00  0.00    -0.226 N 
ATOM     26  H6  UNL     1     -26.610  25.699  34.598  1.00  0.00     0.204 HD
BRANCH  25  27
HETATM   27  O2  UNL     1     -25.990  23.776  34.840  1.00  0.00    -0.282 OA
ATOM     28  H2  UNL     1     -26.725  23.478  35.364  1.00  0.00     0.245 HD
ENDBRANCH  25  27
ENDBRANCH  24  25
ENDBRANCH  23  24
ENDBRANCH  20  23
ENDBRANCH  16  17
ENDBRANCH  10  15
BRANCH  13  29
HETATM   29  N8  UNL     1     -13.838  28.123  28.424  1.00  0.00    -0.351 N 
ATOM     30  H8  UNL     1     -13.103  28.787  28.184  1.00  0.00     0.166 HD
BRANCH  29  31
HETATM   31  C23 UNL     1     -14.003  27.278  27.336  1.00  0.00     0.101 C 
BRANCH  31  32
HETATM   32  C24 UNL     1     -13.447  25.920  27.418  1.00  0.00    -0.021 A 
HETATM   33  C25 UNL     1     -12.752  25.321  26.347  1.00  0.00     0.013 A 
HETATM   34  C26 UNL     1     -12.243  24.063  26.449  1.00  0.00     0.001 A 
HETATM   35  C27 UNL     1     -12.405  23.348  27.619  1.00  0.00     0.000 A 
HETATM   36  C28 UNL     1     -13.086  23.929  28.674  1.00  0.00     0.001 A 
HETATM   37  C29 UNL     1     -13.596  25.176  28.586  1.00  0.00     0.013 A 
ENDBRANCH  31  32
ENDBRANCH  29  31
ENDBRANCH  13  29
BRANCH   1  38
HETATM   38  N2  UNL     1     -11.463  29.200  28.823  1.00  0.00    -0.246 N 
HETATM   39  C1  UNL     1     -11.396  30.041  27.808  1.00  0.00     0.333 A 
HETATM   40  O1  UNL     1     -11.908  31.209  27.684  1.00  0.00    -0.246 OA
HETATM   41  N1  UNL     1     -10.667  29.496  26.821  1.00  0.00    -0.306 N 
HETATM   42  C2  UNL     1     -10.268  28.284  27.230  1.00  0.00     0.063 A 
ATOM     43  H1  UNL     1     -10.455  29.927  25.922  1.00  0.00     0.171 HD
HETATM   44  C3  UNL     1      -9.490  27.298  26.628  1.00  0.00     0.032 A 
HETATM   45  C7  UNL     1     -10.772  28.097  28.493  1.00  0.00     0.072 A 
HETATM   46  C4  UNL     1      -9.212  26.128  27.279  1.00  0.00     0.002 A 
HETATM   47  C5  UNL     1      -9.720  25.960  28.535  1.00  0.00     0.002 A 
HETATM   48  C6  UNL     1     -10.497  26.905  29.175  1.00  0.00     0.032 A 
ENDBRANCH   1  38
TORSDOF 10
ENDMDL
