MODEL 1
REMARK VINA RESULT: -9.728278276      0.000      0.000
REMARK  6 active torsions:
REMARK  status: ('A' for Active; 'I' for Inactive)
REMARK    1  A    between atoms: C3_3  and  N1_4 
REMARK    2  A    between atoms: C6_8  and  N2_9 
REMARK    3  A    between atoms: N2_9  and  C7_11 
REMARK    4  A    between atoms: N3_15  and  C11_16 
REMARK    5  A    between atoms: C14_19  and  C15_20 
REMARK       I    between atoms: C15_20  and  N4_22 
REMARK    6  A    between atoms: N4_22  and  C16_24 
ROOT
HETATM    1  C1  UNL     1     -25.499  29.570  31.090  1.00  0.00     0.113 C 
HETATM    2  C2  UNL     1     -24.428  28.642  31.474  1.00  0.00    -0.087 C 
HETATM    3  C3  UNL     1     -23.539  27.871  31.771  1.00  0.00     0.021 C 
ENDROOT
BRANCH   3   4
HETATM    4  N1  UNL     1     -22.517  26.975  32.091  1.00  0.00    -0.218 N 
HETATM    5  C4  UNL     1     -21.371  26.945  31.377  1.00  0.00     0.263 A 
HETATM    6  O1  UNL     1     -21.212  27.742  30.394  1.00  0.00    -0.267 OA
HETATM    7  C5  UNL     1     -20.349  26.069  31.675  1.00  0.00     0.107 A 
HETATM    8  C6  UNL     1     -20.518  25.208  32.734  1.00  0.00     0.070 A 
HETATM    9  C25 UNL     1     -21.697  25.223  33.487  1.00  0.00     0.105 A 
HETATM   10  N9  UNL     1     -21.839  24.374  34.517  1.00  0.00    -0.360 N 
HETATM   11  C28 UNL     1     -22.687  26.136  33.127  1.00  0.00     0.152 A 
HETATM   12  C26 UNL     1     -22.992  24.417  35.222  1.00  0.00     0.105 A 
ATOM     13  H9  UNL     1     -21.100  23.716  34.762  1.00  0.00     0.165 HD
HETATM   14  C27 UNL     1     -23.990  25.288  34.913  1.00  0.00     0.107 A 
HETATM   15  N10 UNL     1     -23.808  26.122  33.875  1.00  0.00    -0.348 N 
ATOM     16  H10 UNL     1     -24.555  26.777  33.642  1.00  0.00     0.167 HD
BRANCH   8  17
HETATM   17  N2  UNL     1     -19.489  24.309  33.054  1.00  0.00    -0.339 N 
ATOM     18  H2  UNL     1     -19.708  23.460  33.576  1.00  0.00     0.167 HD
BRANCH  17  19
HETATM   19  C7  UNL     1     -18.265  24.540  32.696  1.00  0.00     0.122 A 
HETATM   20  C8  UNL     1     -17.308  25.170  33.471  1.00  0.00     0.076 A 
HETATM   21  C9  UNL     1     -16.153  25.208  32.708  1.00  0.00     0.034 A 
HETATM   22  C10 UNL     1     -14.848  25.789  33.114  1.00  0.00     0.070 C 
HETATM   23  N3  UNL     1     -16.412  24.618  31.515  1.00  0.00    -0.259 N 
HETATM   24  N8  UNL     1     -17.658  24.240  31.545  1.00  0.00    -0.278 N 
ATOM     25  H8  UNL     1     -18.122  23.765  30.770  1.00  0.00     0.189 HD
BRANCH  23  26
HETATM   26  C11 UNL     1     -15.440  24.478  30.471  1.00  0.00     0.058 A 
HETATM   27  C12 UNL     1     -14.785  23.265  30.278  1.00  0.00     0.032 A 
HETATM   28  C13 UNL     1     -13.850  23.148  29.266  1.00  0.00     0.021 A 
HETATM   29  C14 UNL     1     -13.535  24.200  28.427  1.00  0.00     0.056 A 
HETATM   30  C23 UNL     1     -14.172  25.389  28.613  1.00  0.00     0.064 A 
HETATM   31  N7  UNL     1     -13.917  26.545  27.797  1.00  0.00    -0.101 NA
HETATM   32  C24 UNL     1     -15.116  25.520  29.628  1.00  0.00     0.059 A 
BRANCH  29  33
HETATM   33  C15 UNL     1     -12.549  24.055  27.371  1.00  0.00     0.259 C 
HETATM   34  O2  UNL     1     -12.894  23.383  26.341  1.00  0.00    -0.267 OA
HETATM   35  N4  UNL     1     -11.271  24.581  27.384  1.00  0.00    -0.307 N 
ATOM     36  H4  UNL     1     -10.586  23.993  27.858  1.00  0.00     0.170 HD
BRANCH  35  37
HETATM   37  C16 UNL     1     -10.793  25.658  26.916  1.00  0.00     0.135 A 
HETATM   38  N5  UNL     1     -10.728  25.911  25.574  1.00  0.00    -0.284 N 
HETATM   39  N6  UNL     1     -10.192  27.089  25.394  1.00  0.00    -0.298 N 
ATOM     40  H5  UNL     1     -11.046  25.283  24.835  1.00  0.00     0.188 HD
HETATM   41  C17 UNL     1      -9.880  27.669  26.563  1.00  0.00     0.062 A 
ATOM     42  H6  UNL     1     -10.031  27.514  24.481  1.00  0.00     0.187 HD
HETATM   43  C18 UNL     1      -9.300  28.901  26.883  1.00  0.00     0.032 A 
HETATM   44  C22 UNL     1     -10.259  26.765  27.529  1.00  0.00     0.037 A 
HETATM   45  C19 UNL     1      -9.102  29.221  28.222  1.00  0.00     0.002 A 
HETATM   46  C20 UNL     1      -9.490  28.300  29.170  1.00  0.00     0.001 A 
HETATM   47  C21 UNL     1     -10.063  27.080  28.872  1.00  0.00     0.017 A 
ENDBRANCH  35  37
ENDBRANCH  29  33
ENDBRANCH  23  26
ENDBRANCH  17  19
ENDBRANCH   8  17
ENDBRANCH   3   4
TORSDOF 6
ENDMDL
MODEL 2
REMARK VINA RESULT: -9.412840467      6.346     11.243
REMARK  6 active torsions:
REMARK  status: ('A' for Active; 'I' for Inactive)
REMARK    1  A    between atoms: C3_3  and  N1_4 
REMARK    2  A    between atoms: C6_8  and  N2_9 
REMARK    3  A    between atoms: N2_9  and  C7_11 
REMARK    4  A    between atoms: N3_15  and  C11_16 
REMARK    5  A    between atoms: C14_19  and  C15_20 
REMARK       I    between atoms: C15_20  and  N4_22 
REMARK    6  A    between atoms: N4_22  and  C16_24 
ROOT
HETATM    1  C1  UNL     1     -16.108  22.593  29.940  1.00  0.00     0.113 C 
HETATM    2  C2  UNL     1     -14.963  23.481  29.699  1.00  0.00    -0.087 C 
HETATM    3  C3  UNL     1     -14.017  24.219  29.521  1.00  0.00     0.021 C 
ENDROOT
BRANCH   3   4
HETATM    4  N1  UNL     1     -12.930  25.077  29.338  1.00  0.00    -0.218 N 
HETATM    5  C4  UNL     1     -12.877  26.275  29.961  1.00  0.00     0.263 A 
HETATM    6  O1  UNL     1     -13.831  26.634  30.729  1.00  0.00    -0.267 OA
HETATM    7  C5  UNL     1     -11.816  27.137  29.795  1.00  0.00     0.107 A 
HETATM    8  C6  UNL     1     -10.787  26.751  28.967  1.00  0.00     0.070 A 
HETATM    9  C25 UNL     1     -10.821  25.515  28.313  1.00  0.00     0.105 A 
HETATM   10  N9  UNL     1      -9.806  25.159  27.510  1.00  0.00    -0.360 N 
HETATM   11  C28 UNL     1     -11.928  24.695  28.528  1.00  0.00     0.152 A 
HETATM   12  C26 UNL     1      -9.874  23.958  26.894  1.00  0.00     0.105 A 
ATOM     13  H9  UNL     1      -9.006  25.776  27.369  1.00  0.00     0.165 HD
HETATM   14  C27 UNL     1     -10.930  23.120  27.069  1.00  0.00     0.107 A 
HETATM   15  N10 UNL     1     -11.926  23.513  27.882  1.00  0.00    -0.348 N 
ATOM     16  H10 UNL     1     -12.719  22.885  28.016  1.00  0.00     0.167 HD
BRANCH   8  17
HETATM   17  N2  UNL     1      -9.696  27.615  28.786  1.00  0.00    -0.339 N 
ATOM     18  H2  UNL     1      -8.875  27.520  29.384  1.00  0.00     0.167 HD
BRANCH  17  19
HETATM   19  C7  UNL     1      -9.715  28.531  27.869  1.00  0.00     0.122 A 
HETATM   20  C8  UNL     1      -9.013  28.488  26.677  1.00  0.00     0.076 A 
HETATM   21  C9  UNL     1      -9.319  29.659  26.004  1.00  0.00     0.034 A 
HETATM   22  C10 UNL     1      -8.805  30.069  24.673  1.00  0.00     0.070 C 
HETATM   23  N3  UNL     1     -10.178  30.377  26.769  1.00  0.00    -0.259 N 
HETATM   24  N8  UNL     1     -10.386  29.686  27.853  1.00  0.00    -0.278 N 
ATOM     25  H8  UNL     1     -10.997  29.994  28.609  1.00  0.00     0.189 HD
BRANCH  23  26
HETATM   26  C11 UNL     1     -10.709  31.652  26.383  1.00  0.00     0.058 A 
HETATM   27  C12 UNL     1     -11.109  32.569  27.351  1.00  0.00     0.032 A 
HETATM   28  C13 UNL     1     -11.619  33.793  26.962  1.00  0.00     0.021 A 
HETATM   29  C14 UNL     1     -11.750  34.149  25.632  1.00  0.00     0.056 A 
HETATM   30  C23 UNL     1     -11.361  33.255  24.682  1.00  0.00     0.064 A 
HETATM   31  N7  UNL     1     -11.455  33.525  23.273  1.00  0.00    -0.101 NA
HETATM   32  C24 UNL     1     -10.846  32.018  25.061  1.00  0.00     0.059 A 
BRANCH  29  33
HETATM   33  C15 UNL     1     -12.289  35.441  25.245  1.00  0.00     0.259 C 
HETATM   34  O2  UNL     1     -11.482  36.430  25.240  1.00  0.00    -0.267 OA
HETATM   35  N4  UNL     1     -13.598  35.691  24.883  1.00  0.00    -0.307 N 
ATOM     36  H4  UNL     1     -14.220  35.869  25.671  1.00  0.00     0.170 HD
BRANCH  35  37
HETATM   37  C16 UNL     1     -14.171  35.740  23.752  1.00  0.00     0.135 A 
HETATM   38  N5  UNL     1     -15.231  34.938  23.431  1.00  0.00    -0.284 N 
HETATM   39  N6  UNL     1     -15.608  35.210  22.210  1.00  0.00    -0.298 N 
ATOM     40  H5  UNL     1     -15.658  34.242  24.044  1.00  0.00     0.188 HD
HETATM   41  C17 UNL     1     -14.850  36.173  21.666  1.00  0.00     0.062 A 
ATOM     42  H6  UNL     1     -16.381  34.748  21.731  1.00  0.00     0.187 HD
HETATM   43  C18 UNL     1     -14.862  36.793  20.412  1.00  0.00     0.032 A 
HETATM   44  C22 UNL     1     -13.939  36.511  22.640  1.00  0.00     0.037 A 
HETATM   45  C19 UNL     1     -13.922  37.783  20.144  1.00  0.00     0.002 A 
HETATM   46  C20 UNL     1     -13.022  38.102  21.135  1.00  0.00     0.001 A 
HETATM   47  C21 UNL     1     -12.994  37.501  22.377  1.00  0.00     0.017 A 
ENDBRANCH  35  37
ENDBRANCH  29  33
ENDBRANCH  23  26
ENDBRANCH  17  19
ENDBRANCH   8  17
ENDBRANCH   3   4
TORSDOF 6
ENDMDL
MODEL 3
REMARK VINA RESULT: -9.409489654      6.360     11.362
REMARK  6 active torsions:
REMARK  status: ('A' for Active; 'I' for Inactive)
REMARK    1  A    between atoms: C3_3  and  N1_4 
REMARK    2  A    between atoms: C6_8  and  N2_9 
REMARK    3  A    between atoms: N2_9  and  C7_11 
REMARK    4  A    between atoms: N3_15  and  C11_16 
REMARK    5  A    between atoms: C14_19  and  C15_20 
REMARK       I    between atoms: C15_20  and  N4_22 
REMARK    6  A    between atoms: N4_22  and  C16_24 
ROOT
HETATM    1  C1  UNL     1     -15.946  22.576  29.938  1.00  0.00     0.113 C 
HETATM    2  C2  UNL     1     -14.844  23.522  29.718  1.00  0.00    -0.087 C 
HETATM    3  C3  UNL     1     -13.935  24.308  29.556  1.00  0.00     0.021 C 
ENDROOT
BRANCH   3   4
HETATM    4  N1  UNL     1     -12.893  25.224  29.391  1.00  0.00    -0.218 N 
HETATM    5  C4  UNL     1     -12.927  26.431  29.996  1.00  0.00     0.263 A 
HETATM    6  O1  UNL     1     -13.921  26.747  30.731  1.00  0.00    -0.267 OA
HETATM    7  C5  UNL     1     -11.911  27.350  29.847  1.00  0.00     0.107 A 
HETATM    8  C6  UNL     1     -10.838  27.012  29.055  1.00  0.00     0.070 A 
HETATM    9  C25 UNL     1     -10.783  25.766  28.420  1.00  0.00     0.105 A 
HETATM   10  N9  UNL     1      -9.726  25.457  27.652  1.00  0.00    -0.360 N 
HETATM   11  C28 UNL     1     -11.848  24.888  28.616  1.00  0.00     0.152 A 
HETATM   12  C26 UNL     1      -9.708  24.246  27.053  1.00  0.00     0.105 A 
ATOM     13  H9  UNL     1      -8.959  26.117  27.524  1.00  0.00     0.165 HD
HETATM   14  C27 UNL     1     -10.720  23.352  27.212  1.00  0.00     0.107 A 
HETATM   15  N10 UNL     1     -11.760  23.699  27.989  1.00  0.00    -0.348 N 
ATOM     16  H10 UNL     1     -12.520  23.029  28.110  1.00  0.00     0.167 HD
BRANCH   8  17
HETATM   17  N2  UNL     1      -9.793  27.934  28.891  1.00  0.00    -0.339 N 
ATOM     18  H2  UNL     1      -9.018  27.938  29.555  1.00  0.00     0.167 HD
BRANCH  17  19
HETATM   19  C7  UNL     1      -9.796  28.779  27.909  1.00  0.00     0.122 A 
HETATM   20  C8  UNL     1      -9.150  28.604  26.698  1.00  0.00     0.076 A 
HETATM   21  C9  UNL     1      -9.414  29.739  25.950  1.00  0.00     0.034 A 
HETATM   22  C10 UNL     1      -8.934  30.017  24.573  1.00  0.00     0.070 C 
HETATM   23  N3  UNL     1     -10.194  30.565  26.690  1.00  0.00    -0.259 N 
HETATM   24  N8  UNL     1     -10.396  29.970  27.831  1.00  0.00    -0.278 N 
ATOM     25  H8  UNL     1     -10.954  30.370  28.585  1.00  0.00     0.189 HD
BRANCH  23  26
HETATM   26  C11 UNL     1     -10.663  31.839  26.229  1.00  0.00     0.058 A 
HETATM   27  C12 UNL     1     -10.858  32.883  27.129  1.00  0.00     0.032 A 
HETATM   28  C13 UNL     1     -11.312  34.105  26.668  1.00  0.00     0.021 A 
HETATM   29  C14 UNL     1     -11.584  34.335  25.331  1.00  0.00     0.056 A 
HETATM   30  C23 UNL     1     -11.396  33.316  24.449  1.00  0.00     0.064 A 
HETATM   31  N7  UNL     1     -11.649  33.450  23.039  1.00  0.00    -0.101 NA
HETATM   32  C24 UNL     1     -10.939  32.081  24.901  1.00  0.00     0.059 A 
BRANCH  29  33
HETATM   33  C15 UNL     1     -12.059  35.626  24.869  1.00  0.00     0.259 C 
HETATM   34  O2  UNL     1     -12.530  36.423  25.748  1.00  0.00    -0.267 OA
HETATM   35  N4  UNL     1     -12.047  36.067  23.559  1.00  0.00    -0.307 N 
ATOM     36  H4  UNL     1     -12.859  35.774  23.015  1.00  0.00     0.170 HD
BRANCH  35  37
HETATM   37  C16 UNL     1     -11.214  36.767  22.908  1.00  0.00     0.135 A 
HETATM   38  N5  UNL     1     -10.497  37.779  23.484  1.00  0.00    -0.284 N 
HETATM   39  N6  UNL     1      -9.726  38.317  22.576  1.00  0.00    -0.298 N 
ATOM     40  H5  UNL     1     -10.553  38.066  24.461  1.00  0.00     0.188 HD
HETATM   41  C17 UNL     1      -9.879  37.717  21.386  1.00  0.00     0.062 A 
ATOM     42  H6  UNL     1      -9.089  39.094  22.750  1.00  0.00     0.187 HD
HETATM   43  C18 UNL     1      -9.289  37.929  20.136  1.00  0.00     0.032 A 
HETATM   44  C22 UNL     1     -10.821  36.735  21.593  1.00  0.00     0.037 A 
HETATM   45  C19 UNL     1      -9.666  37.121  19.069  1.00  0.00     0.002 A 
HETATM   46  C20 UNL     1     -10.611  36.146  19.302  1.00  0.00     0.001 A 
HETATM   47  C21 UNL     1     -11.204  35.922  20.528  1.00  0.00     0.017 A 
ENDBRANCH  35  37
ENDBRANCH  29  33
ENDBRANCH  23  26
ENDBRANCH  17  19
ENDBRANCH   8  17
ENDBRANCH   3   4
TORSDOF 6
ENDMDL
MODEL 4
REMARK VINA RESULT: -9.382629194      3.510     11.554
REMARK  6 active torsions:
REMARK  status: ('A' for Active; 'I' for Inactive)
REMARK    1  A    between atoms: C3_3  and  N1_4 
REMARK    2  A    between atoms: C6_8  and  N2_9 
REMARK    3  A    between atoms: N2_9  and  C7_11 
REMARK    4  A    between atoms: N3_15  and  C11_16 
REMARK    5  A    between atoms: C14_19  and  C15_20 
REMARK       I    between atoms: C15_20  and  N4_22 
REMARK    6  A    between atoms: N4_22  and  C16_24 
ROOT
HETATM    1  C1  UNL     1      -8.526  22.581  24.745  1.00  0.00     0.113 C 
HETATM    2  C2  UNL     1      -9.573  23.426  25.332  1.00  0.00    -0.087 C 
HETATM    3  C3  UNL     1     -10.443  24.132  25.799  1.00  0.00     0.021 C 
ENDROOT
BRANCH   3   4
HETATM    4  N1  UNL     1     -11.444  24.956  26.316  1.00  0.00    -0.218 N 
HETATM    5  C4  UNL     1     -12.706  24.501  26.476  1.00  0.00     0.263 A 
HETATM    6  O1  UNL     1     -12.996  23.302  26.153  1.00  0.00    -0.267 OA
HETATM    7  C5  UNL     1     -13.710  25.297  26.985  1.00  0.00     0.107 A 
HETATM    8  C6  UNL     1     -13.400  26.591  27.334  1.00  0.00     0.070 A 
HETATM    9  C25 UNL     1     -12.100  27.083  27.177  1.00  0.00     0.105 A 
HETATM   10  N9  UNL     1     -11.820  28.349  27.525  1.00  0.00    -0.360 N 
HETATM   11  C28 UNL     1     -11.136  26.219  26.656  1.00  0.00     0.152 A 
HETATM   12  C26 UNL     1     -10.553  28.789  27.358  1.00  0.00     0.105 A 
ATOM     13  H9  UNL     1     -12.542  28.961  27.905  1.00  0.00     0.165 HD
HETATM   14  C27 UNL     1      -9.576  27.989  26.855  1.00  0.00     0.107 A 
HETATM   15  N10 UNL     1      -9.896  26.727  26.519  1.00  0.00    -0.348 N 
ATOM     16  H10 UNL     1      -9.164  26.125  26.142  1.00  0.00     0.167 HD
BRANCH   8  17
HETATM   17  N2  UNL     1     -14.408  27.418  27.854  1.00  0.00    -0.339 N 
ATOM     18  H2  UNL     1     -14.862  28.100  27.245  1.00  0.00     0.167 HD
BRANCH  17  19
HETATM   19  C7  UNL     1     -14.771  27.329  29.094  1.00  0.00     0.122 A 
HETATM   20  C8  UNL     1     -14.561  28.294  30.063  1.00  0.00     0.076 A 
HETATM   21  C9  UNL     1     -15.102  27.792  31.235  1.00  0.00     0.034 A 
HETATM   22  C10 UNL     1     -15.121  28.469  32.556  1.00  0.00     0.070 C 
HETATM   23  N3  UNL     1     -15.621  26.567  30.973  1.00  0.00    -0.259 N 
HETATM   24  N8  UNL     1     -15.408  26.330  29.710  1.00  0.00    -0.278 N 
ATOM     25  H8  UNL     1     -15.697  25.471  29.242  1.00  0.00     0.189 HD
BRANCH  23  26
HETATM   26  C11 UNL     1     -16.266  25.751  31.960  1.00  0.00     0.058 A 
HETATM   27  C12 UNL     1     -17.653  25.752  32.076  1.00  0.00     0.032 A 
HETATM   28  C13 UNL     1     -18.258  24.960  33.033  1.00  0.00     0.021 A 
HETATM   29  C14 UNL     1     -17.532  24.154  33.892  1.00  0.00     0.056 A 
HETATM   30  C23 UNL     1     -16.175  24.151  33.782  1.00  0.00     0.064 A 
HETATM   31  N7  UNL     1     -15.328  23.351  34.625  1.00  0.00    -0.101 NA
HETATM   32  C24 UNL     1     -15.553  24.945  32.822  1.00  0.00     0.059 A 
BRANCH  29  33
HETATM   33  C15 UNL     1     -18.188  23.329  34.890  1.00  0.00     0.259 C 
HETATM   34  O2  UNL     1     -18.561  23.905  35.967  1.00  0.00    -0.267 OA
HETATM   35  N4  UNL     1     -18.443  21.976  34.775  1.00  0.00    -0.307 N 
ATOM     36  H4  UNL     1     -17.664  21.381  35.057  1.00  0.00     0.170 HD
BRANCH  35  37
HETATM   37  C16 UNL     1     -19.466  21.336  34.385  1.00  0.00     0.135 A 
HETATM   38  N5  UNL     1     -20.621  21.961  34.004  1.00  0.00    -0.284 N 
HETATM   39  N6  UNL     1     -21.494  21.053  33.654  1.00  0.00    -0.298 N 
ATOM     40  H5  UNL     1     -20.777  22.969  33.993  1.00  0.00     0.188 HD
HETATM   41  C17 UNL     1     -20.990  19.816  33.777  1.00  0.00     0.062 A 
ATOM     42  H6  UNL     1     -22.439  21.259  33.329  1.00  0.00     0.187 HD
HETATM   43  C18 UNL     1     -21.524  18.547  33.531  1.00  0.00     0.032 A 
HETATM   44  C22 UNL     1     -19.706  19.992  34.240  1.00  0.00     0.037 A 
HETATM   45  C19 UNL     1     -20.731  17.428  33.761  1.00  0.00     0.002 A 
HETATM   46  C20 UNL     1     -19.450  17.631  34.224  1.00  0.00     0.001 A 
HETATM   47  C21 UNL     1     -18.906  18.875  34.473  1.00  0.00     0.017 A 
ENDBRANCH  35  37
ENDBRANCH  29  33
ENDBRANCH  23  26
ENDBRANCH  17  19
ENDBRANCH   8  17
ENDBRANCH   3   4
TORSDOF 6
ENDMDL
MODEL 5
REMARK VINA RESULT: -9.347304864      3.433     11.515
REMARK  6 active torsions:
REMARK  status: ('A' for Active; 'I' for Inactive)
REMARK    1  A    between atoms: C3_3  and  N1_4 
REMARK    2  A    between atoms: C6_8  and  N2_9 
REMARK    3  A    between atoms: N2_9  and  C7_11 
REMARK    4  A    between atoms: N3_15  and  C11_16 
REMARK    5  A    between atoms: C14_19  and  C15_20 
REMARK       I    between atoms: C15_20  and  N4_22 
REMARK    6  A    between atoms: N4_22  and  C16_24 
ROOT
HETATM    1  C1  UNL     1      -8.666  21.463  25.779  1.00  0.00     0.113 C 
HETATM    2  C2  UNL     1      -9.665  22.480  26.133  1.00  0.00    -0.087 C 
HETATM    3  C3  UNL     1     -10.476  23.335  26.420  1.00  0.00     0.021 C 
ENDROOT
BRANCH   3   4
HETATM    4  N1  UNL     1     -11.392  24.335  26.753  1.00  0.00    -0.218 N 
HETATM    5  C4  UNL     1     -12.715  24.169  26.529  1.00  0.00     0.263 A 
HETATM    6  O1  UNL     1     -13.140  23.086  26.006  1.00  0.00    -0.267 OA
HETATM    7  C5  UNL     1     -13.637  25.142  26.849  1.00  0.00     0.107 A 
HETATM    8  C6  UNL     1     -13.180  26.310  27.412  1.00  0.00     0.070 A 
HETATM    9  C25 UNL     1     -11.816  26.503  27.654  1.00  0.00     0.105 A 
HETATM   10  N9  UNL     1     -11.393  27.652  28.206  1.00  0.00    -0.360 N 
HETATM   11  C28 UNL     1     -10.942  25.474  27.303  1.00  0.00     0.152 A 
HETATM   12  C26 UNL     1     -10.067  27.803  28.423  1.00  0.00     0.105 A 
ATOM     13  H9  UNL     1     -12.052  28.389  28.454  1.00  0.00     0.165 HD
HETATM   14  C27 UNL     1      -9.172  26.831  28.100  1.00  0.00     0.107 A 
HETATM   15  N10 UNL     1      -9.635  25.696  27.550  1.00  0.00    -0.348 N 
ATOM     16  H10 UNL     1      -8.966  24.966  27.309  1.00  0.00     0.167 HD
BRANCH   8  17
HETATM   17  N2  UNL     1     -14.103  27.313  27.746  1.00  0.00    -0.339 N 
ATOM     18  H2  UNL     1     -14.249  28.095  27.106  1.00  0.00     0.167 HD
BRANCH  17  19
HETATM   19  C7  UNL     1     -14.774  27.262  28.854  1.00  0.00     0.122 A 
HETATM   20  C8  UNL     1     -15.270  28.356  29.543  1.00  0.00     0.076 A 
HETATM   21  C9  UNL     1     -15.914  27.851  30.660  1.00  0.00     0.034 A 
HETATM   22  C10 UNL     1     -16.607  28.641  31.708  1.00  0.00     0.070 C 
HETATM   23  N3  UNL     1     -15.807  26.499  30.638  1.00  0.00    -0.259 N 
HETATM   24  N8  UNL     1     -15.133  26.192  29.567  1.00  0.00    -0.278 N 
ATOM     25  H8  UNL     1     -14.904  25.234  29.300  1.00  0.00     0.189 HD
BRANCH  23  26
HETATM   26  C11 UNL     1     -16.360  25.643  31.646  1.00  0.00     0.058 A 
HETATM   27  C12 UNL     1     -15.525  24.990  32.549  1.00  0.00     0.032 A 
HETATM   28  C13 UNL     1     -16.075  24.168  33.514  1.00  0.00     0.021 A 
HETATM   29  C14 UNL     1     -17.438  23.964  33.622  1.00  0.00     0.056 A 
HETATM   30  C23 UNL     1     -18.258  24.599  32.740  1.00  0.00     0.064 A 
HETATM   31  N7  UNL     1     -19.689  24.455  32.764  1.00  0.00    -0.101 NA
HETATM   32  C24 UNL     1     -17.717  25.430  31.763  1.00  0.00     0.059 A 
BRANCH  29  33
HETATM   33  C15 UNL     1     -17.994  23.095  34.643  1.00  0.00     0.259 C 
HETATM   34  O2  UNL     1     -18.175  23.601  35.802  1.00  0.00    -0.267 OA
HETATM   35  N4  UNL     1     -18.344  21.770  34.470  1.00  0.00    -0.307 N 
ATOM     36  H4  UNL     1     -17.570  21.117  34.592  1.00  0.00     0.170 HD
BRANCH  35  37
HETATM   37  C16 UNL     1     -19.449  21.214  34.188  1.00  0.00     0.135 A 
HETATM   38  N5  UNL     1     -20.584  21.930  33.925  1.00  0.00    -0.284 N 
HETATM   39  N6  UNL     1     -21.556  21.094  33.670  1.00  0.00    -0.298 N 
ATOM     40  H5  UNL     1     -20.660  22.947  33.927  1.00  0.00     0.188 HD
HETATM   41  C17 UNL     1     -21.141  19.822  33.745  1.00  0.00     0.062 A 
ATOM     42  H6  UNL     1     -22.510  21.376  33.443  1.00  0.00     0.187 HD
HETATM   43  C18 UNL     1     -21.796  18.599  33.560  1.00  0.00     0.032 A 
HETATM   44  C22 UNL     1     -19.807  19.893  34.074  1.00  0.00     0.037 A 
HETATM   45  C19 UNL     1     -21.074  17.421  33.712  1.00  0.00     0.002 A 
HETATM   46  C20 UNL     1     -19.740  17.520  34.040  1.00  0.00     0.001 A 
HETATM   47  C21 UNL     1     -19.077  18.716  34.228  1.00  0.00     0.017 A 
ENDBRANCH  35  37
ENDBRANCH  29  33
ENDBRANCH  23  26
ENDBRANCH  17  19
ENDBRANCH   8  17
ENDBRANCH   3   4
TORSDOF 6
ENDMDL
