MODEL 1
REMARK VINA RESULT: -9.436535525      0.000      0.000
REMARK  7 active torsions:
REMARK  status: ('A' for Active; 'I' for Inactive)
REMARK    1  A    between atoms: N2_5  and  C3_6 
REMARK    2  A    between atoms: C6_9  and  C7_10 
REMARK       I    between atoms: C7_10  and  N3_12 
REMARK    3  A    between atoms: C10_16  and  C11_17 
REMARK    4  A    between atoms: C19_28  and  C20_29 
REMARK    5  A    between atoms: C23_35  and  C24_36 
REMARK    6  A    between atoms: C25_37  and  C26_38 
REMARK    7  A    between atoms: C27_41  and  N9_42 
ROOT
HETATM    1  C1  UNL     1     -13.365  27.496  27.332  1.00  0.00     0.070 C 
HETATM    2  C2  UNL     1     -12.575  27.939  28.500  1.00  0.00     0.035 A 
HETATM    3  N1  UNL     1     -11.659  28.892  28.533  1.00  0.00    -0.298 N 
ATOM      4  H1  UNL     1     -11.381  29.447  27.723  1.00  0.00     0.187 HD
HETATM    5  N2  UNL     1     -11.147  29.037  29.742  1.00  0.00    -0.267 N 
HETATM    6  C18 UNL     1     -11.753  28.144  30.528  1.00  0.00     0.131 A 
HETATM    7  C19 UNL     1     -12.681  27.412  29.780  1.00  0.00     0.020 A 
ENDROOT
BRANCH   5   8
HETATM    8  C3  UNL     1     -10.122  29.952  30.110  1.00  0.00     0.056 A 
HETATM    9  C4  UNL     1     -10.460  31.302  30.344  1.00  0.00     0.032 A 
HETATM   10  C5  UNL     1      -9.489  32.197  30.720  1.00  0.00     0.019 A 
HETATM   11  C6  UNL     1      -8.168  31.814  30.878  1.00  0.00     0.032 A 
HETATM   12  C16 UNL     1      -7.815  30.526  30.660  1.00  0.00     0.019 A 
HETATM   13  C17 UNL     1      -8.816  29.627  30.279  1.00  0.00     0.032 A 
BRANCH  11  14
HETATM   14  C7  UNL     1      -7.168  32.811  31.284  1.00  0.00     0.257 C 
HETATM   15  O1  UNL     1      -6.238  33.052  30.487  1.00  0.00    -0.267 OA
HETATM   16  N3  UNL     1      -7.269  33.471  32.541  1.00  0.00    -0.308 N 
HETATM   17  C8  UNL     1      -6.299  33.591  33.365  1.00  0.00     0.126 A 
ATOM     18  H3  UNL     1      -8.170  33.872  32.800  1.00  0.00     0.170 HD
HETATM   19  C9  UNL     1      -4.984  33.173  33.319  1.00  0.00     0.077 A 
HETATM   20  N5  UNL     1      -6.439  34.211  34.569  1.00  0.00    -0.281 N 
HETATM   21  C10 UNL     1      -4.353  33.554  34.514  1.00  0.00     0.037 A 
HETATM   22  N4  UNL     1      -5.302  34.180  35.219  1.00  0.00    -0.301 N 
ATOM     23  H4  UNL     1      -5.159  34.582  36.145  1.00  0.00     0.187 HD
HETATM   24  C15 UNL     1      -7.668  34.816  35.052  1.00  0.00     0.179 C 
BRANCH  21  25
HETATM   25  C11 UNL     1      -2.936  33.300  34.878  1.00  0.00    -0.007 C 
HETATM   26  C12 UNL     1      -2.671  31.839  34.572  1.00  0.00     0.021 C 
HETATM   27  C13 UNL     1      -2.683  33.598  36.339  1.00  0.00     0.021 C 
HETATM   28  C14 UNL     1      -1.991  34.162  34.067  1.00  0.00     0.021 C 
ENDBRANCH  21  25
ENDBRANCH  11  14
ENDBRANCH   5   8
BRANCH   7  29
HETATM   29  C20 UNL     1     -13.529  26.325  30.240  1.00  0.00     0.031 A 
HETATM   30  C21 UNL     1     -14.529  26.457  31.188  1.00  0.00     0.122 A 
HETATM   31  N6  UNL     1     -15.054  25.226  31.303  1.00  0.00    -0.308 N 
HETATM   32  N7  UNL     1     -14.433  24.369  30.489  1.00  0.00    -0.288 N 
ATOM     33  H6  UNL     1     -15.822  24.980  31.928  1.00  0.00     0.186 HD
HETATM   34  C22 UNL     1     -14.764  22.970  30.387  1.00  0.00     0.178 C 
HETATM   35  C23 UNL     1     -13.463  25.031  29.798  1.00  0.00     0.116 A 
BRANCH  35  36
HETATM   36  C24 UNL     1     -12.596  24.411  28.850  1.00  0.00    -0.038 C 
HETATM   37  C25 UNL     1     -11.876  23.862  28.060  1.00  0.00    -0.021 C 
BRANCH  37  38
HETATM   38  C26 UNL     1     -11.021  23.168  27.118  1.00  0.00     0.191 A 
HETATM   39  N8  UNL     1     -10.146  23.755  26.298  1.00  0.00    -0.166 N 
HETATM   40  C27 UNL     1      -9.544  22.795  25.570  1.00  0.00     0.692 A 
ATOM     41  H8  UNL     1      -9.964  24.756  26.235  1.00  0.00     0.186 HD
HETATM   42  N10 UNL     1     -10.040  21.590  25.930  1.00  0.00    -0.130 N 
HETATM   43  N11 UNL     1     -10.942  21.844  26.877  1.00  0.00    -0.263 N 
ATOM     44  H10 UNL     1      -9.779  20.678  25.554  1.00  0.00     0.205 HD
ATOM     45  H11 UNL     1     -11.496  21.134  27.354  1.00  0.00     0.189 HD
BRANCH  40  46
HETATM   46  N9  UNL     1      -8.645  23.014  24.670  1.00  0.00    -0.233 N 
ATOM     47  H92 UNL     1      -7.697  23.350  24.834  1.00  0.00     0.174 HD
ATOM     48  H91 UNL     1      -8.779  22.866  23.670  1.00  0.00     0.174 HD
ENDBRANCH  40  46
ENDBRANCH  37  38
ENDBRANCH  35  36
ENDBRANCH   7  29
TORSDOF 7
ENDMDL
MODEL 2
REMARK VINA RESULT: -9.040901312      5.752     13.111
REMARK  7 active torsions:
REMARK  status: ('A' for Active; 'I' for Inactive)
REMARK    1  A    between atoms: N2_5  and  C3_6 
REMARK    2  A    between atoms: C6_9  and  C7_10 
REMARK       I    between atoms: C7_10  and  N3_12 
REMARK    3  A    between atoms: C10_16  and  C11_17 
REMARK    4  A    between atoms: C19_28  and  C20_29 
REMARK    5  A    between atoms: C23_35  and  C24_36 
REMARK    6  A    between atoms: C25_37  and  C26_38 
REMARK    7  A    between atoms: C27_41  and  N9_42 
ROOT
HETATM    1  C1  UNL     1     -13.808  27.347  27.476  1.00  0.00     0.070 C 
HETATM    2  C2  UNL     1     -14.208  26.238  28.368  1.00  0.00     0.035 A 
HETATM    3  N1  UNL     1     -15.087  26.281  29.354  1.00  0.00    -0.298 N 
ATOM      4  H1  UNL     1     -15.605  27.117  29.623  1.00  0.00     0.187 HD
HETATM    5  N2  UNL     1     -15.211  25.108  29.949  1.00  0.00    -0.267 N 
HETATM    6  C18 UNL     1     -14.381  24.268  29.326  1.00  0.00     0.131 A 
HETATM    7  C19 UNL     1     -13.711  24.943  28.301  1.00  0.00     0.020 A 
ENDROOT
BRANCH   5   8
HETATM    8  C3  UNL     1     -16.051  24.821  31.061  1.00  0.00     0.056 A 
HETATM    9  C4  UNL     1     -16.805  23.629  31.063  1.00  0.00     0.032 A 
HETATM   10  C5  UNL     1     -17.606  23.324  32.136  1.00  0.00     0.019 A 
HETATM   11  C6  UNL     1     -17.701  24.162  33.234  1.00  0.00     0.032 A 
HETATM   12  C16 UNL     1     -16.990  25.313  33.260  1.00  0.00     0.019 A 
HETATM   13  C17 UNL     1     -16.178  25.608  32.159  1.00  0.00     0.032 A 
BRANCH  11  14
HETATM   14  C7  UNL     1     -18.571  23.789  34.357  1.00  0.00     0.257 C 
HETATM   15  O1  UNL     1     -18.072  23.094  35.266  1.00  0.00    -0.267 OA
HETATM   16  N3  UNL     1     -19.929  24.213  34.395  1.00  0.00    -0.308 N 
HETATM   17  C8  UNL     1     -20.914  23.437  34.642  1.00  0.00     0.126 A 
ATOM     18  H3  UNL     1     -20.128  25.197  34.214  1.00  0.00     0.170 HD
HETATM   19  C9  UNL     1     -20.984  22.087  34.923  1.00  0.00     0.077 A 
HETATM   20  N5  UNL     1     -22.203  23.875  34.649  1.00  0.00    -0.281 N 
HETATM   21  C10 UNL     1     -22.333  21.737  35.093  1.00  0.00     0.037 A 
HETATM   22  N4  UNL     1     -23.009  22.877  34.912  1.00  0.00    -0.301 N 
ATOM     23  H4  UNL     1     -24.024  22.959  34.972  1.00  0.00     0.187 HD
HETATM   24  C15 UNL     1     -22.614  25.246  34.403  1.00  0.00     0.179 C 
BRANCH  21  25
HETATM   25  C11 UNL     1     -22.855  20.382  35.407  1.00  0.00    -0.007 C 
HETATM   26  C12 UNL     1     -23.076  19.690  34.076  1.00  0.00     0.021 C 
HETATM   27  C13 UNL     1     -24.145  20.460  36.194  1.00  0.00     0.021 C 
HETATM   28  C14 UNL     1     -21.867  19.583  36.231  1.00  0.00     0.021 C 
ENDBRANCH  21  25
ENDBRANCH  11  14
ENDBRANCH   5   8
BRANCH   7  29
HETATM   29  C20 UNL     1     -12.702  24.411  27.402  1.00  0.00     0.031 A 
HETATM   30  C21 UNL     1     -12.893  23.330  26.558  1.00  0.00     0.122 A 
HETATM   31  N6  UNL     1     -11.722  23.187  25.915  1.00  0.00    -0.308 N 
HETATM   32  N7  UNL     1     -10.845  24.110  26.320  1.00  0.00    -0.288 N 
ATOM     33  H6  UNL     1     -11.530  22.472  25.214  1.00  0.00     0.186 HD
HETATM   34  C22 UNL     1      -9.498  24.216  25.820  1.00  0.00     0.178 C 
HETATM   35  C23 UNL     1     -11.432  24.904  27.260  1.00  0.00     0.116 A 
BRANCH  35  36
HETATM   36  C24 UNL     1     -10.771  25.984  27.915  1.00  0.00    -0.038 C 
HETATM   37  C25 UNL     1     -10.207  26.905  28.441  1.00  0.00    -0.021 C 
BRANCH  37  38
HETATM   38  C26 UNL     1      -9.519  28.030  29.043  1.00  0.00     0.191 A 
HETATM   39  N8  UNL     1     -10.050  28.865  29.939  1.00  0.00    -0.166 N 
HETATM   40  C27 UNL     1      -9.120  29.785  30.259  1.00  0.00     0.692 A 
ATOM     41  H8  UNL     1     -10.996  28.815  30.316  1.00  0.00     0.186 HD
HETATM   42  N10 UNL     1      -7.989  29.532  29.561  1.00  0.00    -0.130 N 
HETATM   43  N11 UNL     1      -8.258  28.456  28.825  1.00  0.00    -0.263 N 
ATOM     44  H10 UNL     1      -7.114  30.056  29.592  1.00  0.00     0.205 HD
ATOM     45  H11 UNL     1      -7.601  28.013  28.183  1.00  0.00     0.189 HD
BRANCH  40  46
HETATM   46  N9  UNL     1      -9.302  30.751  31.094  1.00  0.00    -0.233 N 
ATOM     47  H92 UNL     1      -8.948  30.798  32.050  1.00  0.00     0.174 HD
ATOM     48  H91 UNL     1      -9.827  31.602  30.891  1.00  0.00     0.174 HD
ENDBRANCH  40  46
ENDBRANCH  37  38
ENDBRANCH  35  36
ENDBRANCH   7  29
TORSDOF 7
ENDMDL
MODEL 3
REMARK VINA RESULT: -9.038552832      5.733     12.975
REMARK  7 active torsions:
REMARK  status: ('A' for Active; 'I' for Inactive)
REMARK    1  A    between atoms: N2_5  and  C3_6 
REMARK    2  A    between atoms: C6_9  and  C7_10 
REMARK       I    between atoms: C7_10  and  N3_12 
REMARK    3  A    between atoms: C10_16  and  C11_17 
REMARK    4  A    between atoms: C19_28  and  C20_29 
REMARK    5  A    between atoms: C23_35  and  C24_36 
REMARK    6  A    between atoms: C25_37  and  C26_38 
REMARK    7  A    between atoms: C27_41  and  N9_42 
ROOT
HETATM    1  C1  UNL     1     -14.331  27.831  28.085  1.00  0.00     0.070 C 
HETATM    2  C2  UNL     1     -14.428  27.271  29.450  1.00  0.00     0.035 A 
HETATM    3  N1  UNL     1     -15.401  26.521  29.940  1.00  0.00    -0.298 N 
ATOM      4  H1  UNL     1     -16.226  26.237  29.412  1.00  0.00     0.187 HD
HETATM    5  N2  UNL     1     -15.172  26.184  31.197  1.00  0.00    -0.267 N 
HETATM    6  C18 UNL     1     -14.006  26.736  31.540  1.00  0.00     0.131 A 
HETATM    7  C19 UNL     1     -13.484  27.446  30.453  1.00  0.00     0.020 A 
ENDROOT
BRANCH   5   8
HETATM    8  C3  UNL     1     -16.033  25.409  32.022  1.00  0.00     0.056 A 
HETATM    9  C4  UNL     1     -16.025  25.625  33.417  1.00  0.00     0.032 A 
HETATM   10  C5  UNL     1     -16.862  24.900  34.228  1.00  0.00     0.019 A 
HETATM   11  C6  UNL     1     -17.727  23.948  33.717  1.00  0.00     0.032 A 
HETATM   12  C16 UNL     1     -17.756  23.718  32.384  1.00  0.00     0.019 A 
HETATM   13  C17 UNL     1     -16.897  24.466  31.571  1.00  0.00     0.032 A 
BRANCH  11  14
HETATM   14  C7  UNL     1     -18.604  23.201  34.629  1.00  0.00     0.257 C 
HETATM   15  O1  UNL     1     -18.097  22.264  35.278  1.00  0.00    -0.267 OA
HETATM   16  N3  UNL     1     -19.979  23.546  34.758  1.00  0.00    -0.308 N 
HETATM   17  C8  UNL     1     -20.937  22.701  34.706  1.00  0.00     0.126 A 
ATOM     18  H3  UNL     1     -20.215  24.529  34.901  1.00  0.00     0.170 HD
HETATM   19  C9  UNL     1     -20.957  21.331  34.530  1.00  0.00     0.077 A 
HETATM   20  N5  UNL     1     -22.243  23.071  34.812  1.00  0.00    -0.281 N 
HETATM   21  C10 UNL     1     -22.294  20.902  34.532  1.00  0.00     0.037 A 
HETATM   22  N4  UNL     1     -23.012  22.017  34.710  1.00  0.00    -0.301 N 
ATOM     23  H4  UNL     1     -24.031  22.042  34.759  1.00  0.00     0.187 HD
HETATM   24  C15 UNL     1     -22.704  24.434  35.013  1.00  0.00     0.179 C 
BRANCH  21  25
HETATM   25  C11 UNL     1     -22.767  19.504  34.370  1.00  0.00    -0.007 C 
HETATM   26  C12 UNL     1     -21.896  18.878  33.299  1.00  0.00     0.021 C 
HETATM   27  C13 UNL     1     -24.226  19.460  33.972  1.00  0.00     0.021 C 
HETATM   28  C14 UNL     1     -22.623  18.716  35.656  1.00  0.00     0.021 C 
ENDBRANCH  21  25
ENDBRANCH  11  14
ENDBRANCH   5   8
BRANCH   7  29
HETATM   29  C20 UNL     1     -12.254  28.217  30.407  1.00  0.00     0.031 A 
HETATM   30  C21 UNL     1     -12.035  29.389  31.111  1.00  0.00     0.122 A 
HETATM   31  N6  UNL     1     -10.785  29.755  30.784  1.00  0.00    -0.308 N 
HETATM   32  N7  UNL     1     -10.244  28.881  29.931  1.00  0.00    -0.288 N 
ATOM     33  H6  UNL     1     -10.313  30.587  31.139  1.00  0.00     0.186 HD
HETATM   34  C22 UNL     1      -8.914  29.000  29.390  1.00  0.00     0.178 C 
HETATM   35  C23 UNL     1     -11.146  27.893  29.672  1.00  0.00     0.116 A 
BRANCH  35  36
HETATM   36  C24 UNL     1     -10.899  26.802  28.787  1.00  0.00    -0.038 C 
HETATM   37  C25 UNL     1     -10.714  25.891  28.025  1.00  0.00    -0.021 C 
BRANCH  37  38
HETATM   38  C26 UNL     1     -10.520  24.803  27.087  1.00  0.00     0.191 A 
HETATM   39  N8  UNL     1     -10.657  23.507  27.375  1.00  0.00    -0.166 N 
HETATM   40  C27 UNL     1     -10.390  22.798  26.261  1.00  0.00     0.692 A 
ATOM     41  H8  UNL     1     -10.920  23.120  28.281  1.00  0.00     0.186 HD
HETATM   42  N10 UNL     1     -10.080  23.652  25.258  1.00  0.00    -0.130 N 
HETATM   43  N11 UNL     1     -10.167  24.871  25.788  1.00  0.00    -0.263 N 
ATOM     44  H10 UNL     1      -9.833  23.411  24.298  1.00  0.00     0.205 HD
ATOM     45  H11 UNL     1      -9.989  25.737  25.280  1.00  0.00     0.189 HD
BRANCH  40  46
HETATM   46  N9  UNL     1     -10.420  21.511  26.187  1.00  0.00    -0.233 N 
ATOM     47  H92 UNL     1      -9.617  20.894  26.068  1.00  0.00     0.174 HD
ATOM     48  H91 UNL     1     -11.268  20.947  26.246  1.00  0.00     0.174 HD
ENDBRANCH  40  46
ENDBRANCH  37  38
ENDBRANCH  35  36
ENDBRANCH   7  29
TORSDOF 7
ENDMDL
MODEL 4
REMARK VINA RESULT: -8.927510507      6.135     12.357
REMARK  7 active torsions:
REMARK  status: ('A' for Active; 'I' for Inactive)
REMARK    1  A    between atoms: N2_5  and  C3_6 
REMARK    2  A    between atoms: C6_9  and  C7_10 
REMARK       I    between atoms: C7_10  and  N3_12 
REMARK    3  A    between atoms: C10_16  and  C11_17 
REMARK    4  A    between atoms: C19_28  and  C20_29 
REMARK    5  A    between atoms: C23_35  and  C24_36 
REMARK    6  A    between atoms: C25_37  and  C26_38 
REMARK    7  A    between atoms: C27_41  and  N9_42 
ROOT
HETATM    1  C1  UNL     1     -11.061  23.060  27.104  1.00  0.00     0.070 C 
HETATM    2  C2  UNL     1     -11.917  23.772  28.077  1.00  0.00     0.035 A 
HETATM    3  N1  UNL     1     -13.066  23.360  28.585  1.00  0.00    -0.298 N 
ATOM      4  H1  UNL     1     -13.510  22.472  28.350  1.00  0.00     0.187 HD
HETATM    5  N2  UNL     1     -13.569  24.240  29.433  1.00  0.00    -0.267 N 
HETATM    6  C18 UNL     1     -12.714  25.265  29.480  1.00  0.00     0.131 A 
HETATM    7  C19 UNL     1     -11.634  25.016  28.627  1.00  0.00     0.020 A 
ENDROOT
BRANCH   5   8
HETATM    8  C3  UNL     1     -14.803  24.116  30.129  1.00  0.00     0.056 A 
HETATM    9  C4  UNL     1     -15.286  25.215  30.871  1.00  0.00     0.032 A 
HETATM   10  C5  UNL     1     -16.485  25.122  31.533  1.00  0.00     0.019 A 
HETATM   11  C6  UNL     1     -17.248  23.967  31.499  1.00  0.00     0.032 A 
HETATM   12  C16 UNL     1     -16.809  22.897  30.796  1.00  0.00     0.019 A 
HETATM   13  C17 UNL     1     -15.587  23.008  30.126  1.00  0.00     0.032 A 
BRANCH  11  14
HETATM   14  C7  UNL     1     -18.525  23.920  32.224  1.00  0.00     0.257 C 
HETATM   15  O1  UNL     1     -19.249  24.936  32.182  1.00  0.00    -0.267 OA
HETATM   16  N3  UNL     1     -18.910  22.752  32.941  1.00  0.00    -0.308 N 
HETATM   17  C8  UNL     1     -19.343  22.762  34.144  1.00  0.00     0.126 A 
ATOM     18  H3  UNL     1     -18.835  21.853  32.465  1.00  0.00     0.170 HD
HETATM   19  C9  UNL     1     -19.559  23.786  35.044  1.00  0.00     0.077 A 
HETATM   20  N5  UNL     1     -19.681  21.621  34.805  1.00  0.00    -0.281 N 
HETATM   21  C10 UNL     1     -20.027  23.231  36.245  1.00  0.00     0.037 A 
HETATM   22  N4  UNL     1     -20.075  21.914  36.020  1.00  0.00    -0.301 N 
ATOM     23  H4  UNL     1     -20.380  21.223  36.706  1.00  0.00     0.187 HD
HETATM   24  C15 UNL     1     -19.615  20.285  34.241  1.00  0.00     0.179 C 
BRANCH  21  25
HETATM   25  C11 UNL     1     -20.382  23.980  37.478  1.00  0.00    -0.007 C 
HETATM   26  C12 UNL     1     -20.578  25.424  37.061  1.00  0.00     0.021 C 
HETATM   27  C13 UNL     1     -19.294  23.864  38.523  1.00  0.00     0.021 C 
HETATM   28  C14 UNL     1     -21.663  23.458  38.096  1.00  0.00     0.021 C 
ENDBRANCH  21  25
ENDBRANCH  11  14
ENDBRANCH   5   8
BRANCH   7  29
HETATM   29  C20 UNL     1     -10.500  25.883  28.358  1.00  0.00     0.031 A 
HETATM   30  C21 UNL     1      -9.195  25.445  28.206  1.00  0.00     0.122 A 
HETATM   31  N6  UNL     1      -8.486  26.561  27.969  1.00  0.00    -0.308 N 
HETATM   32  N7  UNL     1      -9.280  27.635  27.971  1.00  0.00    -0.288 N 
ATOM     33  H6  UNL     1      -7.479  26.584  27.810  1.00  0.00     0.186 HD
HETATM   34  C22 UNL     1      -8.816  28.981  27.751  1.00  0.00     0.178 C 
HETATM   35  C23 UNL     1     -10.563  27.243  28.211  1.00  0.00     0.116 A 
BRANCH  35  36
HETATM   36  C24 UNL     1     -11.668  28.141  28.296  1.00  0.00    -0.038 C 
HETATM   37  C25 UNL     1     -12.607  28.884  28.391  1.00  0.00    -0.021 C 
BRANCH  37  38
HETATM   38  C26 UNL     1     -13.750  29.763  28.537  1.00  0.00     0.191 A 
HETATM   39  N8  UNL     1     -15.002  29.362  28.772  1.00  0.00    -0.166 N 
HETATM   40  C27 UNL     1     -15.788  30.455  28.836  1.00  0.00     0.692 A 
ATOM     41  H8  UNL     1     -15.310  28.397  28.883  1.00  0.00     0.186 HD
HETATM   42  N10 UNL     1     -15.029  31.557  28.640  1.00  0.00    -0.130 N 
HETATM   43  N11 UNL     1     -13.788  31.108  28.460  1.00  0.00    -0.263 N 
ATOM     44  H10 UNL     1     -15.341  32.528  28.633  1.00  0.00     0.205 HD
ATOM     45  H11 UNL     1     -12.976  31.701  28.286  1.00  0.00     0.189 HD
BRANCH  40  46
HETATM   46  N9  UNL     1     -17.061  30.430  29.042  1.00  0.00    -0.233 N 
ATOM     47  H92 UNL     1     -17.676  29.625  28.925  1.00  0.00     0.174 HD
ATOM     48  H91 UNL     1     -17.612  31.228  29.360  1.00  0.00     0.174 HD
ENDBRANCH  40  46
ENDBRANCH  37  38
ENDBRANCH  35  36
ENDBRANCH   7  29
TORSDOF 7
ENDMDL
MODEL 5
REMARK VINA RESULT: -8.791339528      5.739      7.615
REMARK  7 active torsions:
REMARK  status: ('A' for Active; 'I' for Inactive)
REMARK    1  A    between atoms: N2_5  and  C3_6 
REMARK    2  A    between atoms: C6_9  and  C7_10 
REMARK       I    between atoms: C7_10  and  N3_12 
REMARK    3  A    between atoms: C10_16  and  C11_17 
REMARK    4  A    between atoms: C19_28  and  C20_29 
REMARK    5  A    between atoms: C23_35  and  C24_36 
REMARK    6  A    between atoms: C25_37  and  C26_38 
REMARK    7  A    between atoms: C27_41  and  N9_42 
ROOT
HETATM    1  C1  UNL     1     -14.623  26.852  33.721  1.00  0.00     0.070 C 
HETATM    2  C2  UNL     1     -14.373  27.270  32.324  1.00  0.00     0.035 A 
HETATM    3  N1  UNL     1     -13.693  28.327  31.915  1.00  0.00    -0.298 N 
ATOM      4  H1  UNL     1     -13.250  29.001  32.540  1.00  0.00     0.187 HD
HETATM    5  N2  UNL     1     -13.657  28.404  30.596  1.00  0.00    -0.267 N 
HETATM    6  C18 UNL     1     -14.340  27.357  30.128  1.00  0.00     0.131 A 
HETATM    7  C19 UNL     1     -14.822  26.595  31.198  1.00  0.00     0.020 A 
ENDROOT
BRANCH   5   8
HETATM    8  C3  UNL     1     -13.032  29.432  29.837  1.00  0.00     0.056 A 
HETATM    9  C4  UNL     1     -12.277  29.082  28.698  1.00  0.00     0.032 A 
HETATM   10  C5  UNL     1     -11.683  30.061  27.941  1.00  0.00     0.019 A 
HETATM   11  C6  UNL     1     -11.800  31.402  28.263  1.00  0.00     0.032 A 
HETATM   12  C16 UNL     1     -12.517  31.768  29.351  1.00  0.00     0.019 A 
HETATM   13  C17 UNL     1     -13.117  30.758  30.111  1.00  0.00     0.032 A 
BRANCH  11  14
HETATM   14  C7  UNL     1     -11.146  32.411  27.419  1.00  0.00     0.257 C 
HETATM   15  O1  UNL     1     -10.968  33.545  27.909  1.00  0.00    -0.267 OA
HETATM   16  N3  UNL     1     -10.735  32.093  26.094  1.00  0.00    -0.308 N 
HETATM   17  C8  UNL     1     -10.993  32.816  25.071  1.00  0.00     0.126 A 
ATOM     18  H3  UNL     1     -10.202  31.234  25.951  1.00  0.00     0.170 HD
HETATM   19  C9  UNL     1     -11.674  34.008  24.926  1.00  0.00     0.077 A 
HETATM   20  N5  UNL     1     -10.602  32.468  23.815  1.00  0.00    -0.281 N 
HETATM   21  C10 UNL     1     -11.680  34.354  23.566  1.00  0.00     0.037 A 
HETATM   22  N4  UNL     1     -11.008  33.370  22.958  1.00  0.00    -0.301 N 
ATOM     23  H4  UNL     1     -10.833  33.328  21.954  1.00  0.00     0.187 HD
HETATM   24  C15 UNL     1      -9.845  31.273  23.484  1.00  0.00     0.179 C 
BRANCH  21  25
HETATM   25  C11 UNL     1     -12.306  35.563  22.970  1.00  0.00    -0.007 C 
HETATM   26  C12 UNL     1     -12.207  35.400  21.466  1.00  0.00     0.021 C 
HETATM   27  C13 UNL     1     -11.604  36.824  23.423  1.00  0.00     0.021 C 
HETATM   28  C14 UNL     1     -13.763  35.686  23.367  1.00  0.00     0.021 C 
ENDBRANCH  21  25
ENDBRANCH  11  14
ENDBRANCH   5   8
BRANCH   7  29
HETATM   29  C20 UNL     1     -15.637  25.394  31.133  1.00  0.00     0.031 A 
HETATM   30  C21 UNL     1     -16.756  25.160  31.914  1.00  0.00     0.122 A 
HETATM   31  N6  UNL     1     -17.196  23.952  31.528  1.00  0.00    -0.308 N 
HETATM   32  N7  UNL     1     -16.414  23.448  30.569  1.00  0.00    -0.288 N 
ATOM     33  H6  UNL     1     -18.016  23.483  31.914  1.00  0.00     0.186 HD
HETATM   34  C22 UNL     1     -16.623  22.163  29.952  1.00  0.00     0.178 C 
HETATM   35  C23 UNL     1     -15.418  24.335  30.293  1.00  0.00     0.116 A 
BRANCH  35  36
HETATM   36  C24 UNL     1     -14.394  24.107  29.326  1.00  0.00    -0.038 C 
HETATM   37  C25 UNL     1     -13.520  23.940  28.518  1.00  0.00    -0.021 C 
BRANCH  37  38
HETATM   38  C26 UNL     1     -12.451  23.772  27.554  1.00  0.00     0.191 A 
HETATM   39  N8  UNL     1     -11.617  22.731  27.507  1.00  0.00    -0.166 N 
HETATM   40  C27 UNL     1     -10.757  22.927  26.489  1.00  0.00     0.692 A 
ATOM     41  H8  UNL     1     -11.628  21.926  28.132  1.00  0.00     0.186 HD
HETATM   42  N10 UNL     1     -11.047  24.103  25.885  1.00  0.00    -0.130 N 
HETATM   43  N11 UNL     1     -12.086  24.600  26.555  1.00  0.00    -0.263 N 
ATOM     44  H10 UNL     1     -10.571  24.520  25.086  1.00  0.00     0.205 HD
ATOM     45  H11 UNL     1     -12.543  25.486  26.341  1.00  0.00     0.189 HD
BRANCH  40  46
HETATM   46  N9  UNL     1      -9.808  22.116  26.164  1.00  0.00    -0.233 N 
ATOM     47  H92 UNL     1      -9.029  22.318  25.537  1.00  0.00     0.174 HD
ATOM     48  H91 UNL     1      -9.720  21.160  26.509  1.00  0.00     0.174 HD
ENDBRANCH  40  46
ENDBRANCH  37  38
ENDBRANCH  35  36
ENDBRANCH   7  29
TORSDOF 7
ENDMDL
