MODEL 1
REMARK VINA RESULT: -5.662628875      0.000      0.000
REMARK  5 active torsions:
REMARK  status: ('A' for Active; 'I' for Inactive)
REMARK    1  A    between atoms: N1_2  and  C2_4 
REMARK    2  A    between atoms: C4_8  and  N3_9 
REMARK    3  A    between atoms: N3_9  and  C5_11 
REMARK    4  A    between atoms: C5_11  and  C6_12 
REMARK    5  A    between atoms: C6_12  and  N4_13 
ROOT
HETATM    1  C2  UNL     1      47.326  15.065 -11.446  1.00  0.00     0.086 A 
HETATM    2  C3  UNL     1      47.517  16.300 -10.899  1.00  0.00     0.138 A 
HETATM    3  N2  UNL     1      47.717  17.347 -11.716  1.00  0.00    -0.200 N 
ATOM      4  H2  UNL     1      47.858  18.265 -11.296  1.00  0.00     0.183 HD
HETATM    5  C4  UNL     1      47.742  17.253 -13.057  1.00  0.00     0.679 A 
HETATM    6  N5  UNL     1      47.553  16.028 -13.583  1.00  0.00    -0.177 N 
ATOM      7  H5  UNL     1      47.566  15.921 -14.598  1.00  0.00     0.185 HD
HETATM    8  C7  UNL     1      47.347  14.936 -12.816  1.00  0.00     0.159 A 
HETATM    9  N6  UNL     1      47.146  13.636 -13.356  1.00  0.00    -0.080 NA
ENDROOT
BRANCH   5  10
HETATM   10  N3  UNL     1      47.930  18.228 -13.855  1.00  0.00    -0.224 N 
ATOM     11  H3  UNL     1      47.706  19.157 -13.496  1.00  0.00     0.177 HD
BRANCH  10  12
HETATM   12  C5  UNL     1      48.417  18.168 -15.188  1.00  0.00     0.165 C 
BRANCH  12  13
HETATM   13  C6  UNL     1      47.360  18.390 -16.243  1.00  0.00     0.249 C 
BRANCH  13  14
HETATM   14  N4  UNL     1      47.098  17.074 -16.849  1.00  0.00    -0.078 N 
ATOM     15  H43 UNL     1      46.730  16.389 -16.188  1.00  0.00     0.274 HD
ATOM     16  H42 UNL     1      46.301  17.073 -17.487  1.00  0.00     0.274 HD
ATOM     17  H41 UNL     1      47.970  16.783 -17.290  1.00  0.00     0.274 HD
ENDBRANCH  13  14
ENDBRANCH  12  13
ENDBRANCH  10  12
ENDBRANCH   5  10
BRANCH   1  18
HETATM   18  N1  UNL     1      47.109  13.913 -10.607  1.00  0.00    -0.390 N 
HETATM   19  C1  UNL     1      47.743  13.797  -9.316  1.00  0.00     0.146 C 
ATOM     20  H1  UNL     1      46.495  13.166 -10.932  1.00  0.00     0.159 HD
ENDBRANCH   1  18
TORSDOF 5
ENDMDL
MODEL 2
REMARK VINA RESULT: -5.528813847      1.015      1.091
REMARK  5 active torsions:
REMARK  status: ('A' for Active; 'I' for Inactive)
REMARK    1  A    between atoms: N1_2  and  C2_4 
REMARK    2  A    between atoms: C4_8  and  N3_9 
REMARK    3  A    between atoms: N3_9  and  C5_11 
REMARK    4  A    between atoms: C5_11  and  C6_12 
REMARK    5  A    between atoms: C6_12  and  N4_13 
ROOT
HETATM    1  C2  UNL     1      47.348  15.114 -11.507  1.00  0.00     0.086 A 
HETATM    2  C3  UNL     1      47.569  16.311 -10.892  1.00  0.00     0.138 A 
HETATM    3  N2  UNL     1      47.782  17.399 -11.650  1.00  0.00    -0.200 N 
ATOM      4  H2  UNL     1      47.946  18.289 -11.180  1.00  0.00     0.183 HD
HETATM    5  C4  UNL     1      47.792  17.382 -12.995  1.00  0.00     0.679 A 
HETATM    6  N5  UNL     1      47.573  16.193 -13.588  1.00  0.00    -0.177 N 
ATOM      7  H5  UNL     1      47.574  16.144 -14.607  1.00  0.00     0.185 HD
HETATM    8  C7  UNL     1      47.353  15.064 -12.882  1.00  0.00     0.159 A 
HETATM    9  N6  UNL     1      47.120  13.800 -13.493  1.00  0.00    -0.080 NA
ENDROOT
BRANCH   5  10
HETATM   10  N3  UNL     1      47.992  18.398 -13.737  1.00  0.00    -0.224 N 
ATOM     11  H3  UNL     1      48.256  19.261 -13.262  1.00  0.00     0.177 HD
BRANCH  10  12
HETATM   12  C5  UNL     1      47.888  18.462 -15.152  1.00  0.00     0.165 C 
BRANCH  12  13
HETATM   13  C6  UNL     1      48.917  19.352 -15.808  1.00  0.00     0.249 C 
BRANCH  13  14
HETATM   14  N4  UNL     1      50.064  18.488 -16.132  1.00  0.00    -0.078 N 
ATOM     15  H43 UNL     1      49.924  17.513 -15.866  1.00  0.00     0.274 HD
ATOM     16  H42 UNL     1      50.182  18.329 -17.133  1.00  0.00     0.274 HD
ATOM     17  H41 UNL     1      50.878  18.915 -15.691  1.00  0.00     0.274 HD
ENDBRANCH  13  14
ENDBRANCH  12  13
ENDBRANCH  10  12
ENDBRANCH   5  10
BRANCH   1  18
HETATM   18  N1  UNL     1      47.116  13.919 -10.733  1.00  0.00    -0.390 N 
HETATM   19  C1  UNL     1      47.539  13.826  -9.356  1.00  0.00     0.146 C 
ATOM     20  H1  UNL     1      46.643  13.127 -11.166  1.00  0.00     0.159 HD
ENDBRANCH   1  18
TORSDOF 5
ENDMDL
MODEL 3
REMARK VINA RESULT: -5.511540420      1.318      2.391
REMARK  5 active torsions:
REMARK  status: ('A' for Active; 'I' for Inactive)
REMARK    1  A    between atoms: N1_2  and  C2_4 
REMARK    2  A    between atoms: C4_8  and  N3_9 
REMARK    3  A    between atoms: N3_9  and  C5_11 
REMARK    4  A    between atoms: C5_11  and  C6_12 
REMARK    5  A    between atoms: C6_12  and  N4_13 
ROOT
HETATM    1  C2  UNL     1      47.646  15.447 -12.157  1.00  0.00     0.086 A 
HETATM    2  C3  UNL     1      47.054  14.537 -12.984  1.00  0.00     0.138 A 
HETATM    3  N2  UNL     1      46.709  14.920 -14.225  1.00  0.00    -0.200 N 
ATOM      4  H2  UNL     1      46.268  14.232 -14.835  1.00  0.00     0.183 HD
HETATM    5  C4  UNL     1      46.913  16.158 -14.708  1.00  0.00     0.679 A 
HETATM    6  N5  UNL     1      47.497  17.044 -13.880  1.00  0.00    -0.177 N 
ATOM      7  H5  UNL     1      47.666  17.993 -14.215  1.00  0.00     0.185 HD
HETATM    8  C7  UNL     1      47.867  16.723 -12.623  1.00  0.00     0.159 A 
HETATM    9  N6  UNL     1      48.485  17.647 -11.736  1.00  0.00    -0.080 NA
ENDROOT
BRANCH   5  10
HETATM   10  N3  UNL     1      46.595  16.546 -15.879  1.00  0.00    -0.224 N 
ATOM     11  H3  UNL     1      45.997  15.919 -16.418  1.00  0.00     0.177 HD
BRANCH  10  12
HETATM   12  C5  UNL     1      46.980  17.755 -16.519  1.00  0.00     0.165 C 
BRANCH  12  13
HETATM   13  C6  UNL     1      47.161  17.633 -18.013  1.00  0.00     0.249 C 
BRANCH  13  14
HETATM   14  N4  UNL     1      48.171  16.583 -18.222  1.00  0.00    -0.078 N 
ATOM     15  H43 UNL     1      49.099  16.949 -18.437  1.00  0.00     0.274 HD
ATOM     16  H42 UNL     1      48.426  16.089 -17.367  1.00  0.00     0.274 HD
ATOM     17  H41 UNL     1      47.800  15.970 -18.948  1.00  0.00     0.274 HD
ENDBRANCH  13  14
ENDBRANCH  12  13
ENDBRANCH  10  12
ENDBRANCH   5  10
BRANCH   1  18
HETATM   18  N1  UNL     1      48.033  15.081 -10.816  1.00  0.00    -0.390 N 
HETATM   19  C1  UNL     1      47.217  14.199 -10.017  1.00  0.00     0.146 C 
ATOM     20  H1  UNL     1      48.898  15.453 -10.427  1.00  0.00     0.159 HD
ENDBRANCH   1  18
TORSDOF 5
ENDMDL
MODEL 4
REMARK VINA RESULT: -5.371525143      1.358      5.125
REMARK  5 active torsions:
REMARK  status: ('A' for Active; 'I' for Inactive)
REMARK    1  A    between atoms: N1_2  and  C2_4 
REMARK    2  A    between atoms: C4_8  and  N3_9 
REMARK    3  A    between atoms: N3_9  and  C5_11 
REMARK    4  A    between atoms: C5_11  and  C6_12 
REMARK    5  A    between atoms: C6_12  and  N4_13 
ROOT
HETATM    1  C2  UNL     1      47.126  16.099 -13.933  1.00  0.00     0.086 A 
HETATM    2  C3  UNL     1      47.572  17.188 -13.243  1.00  0.00     0.138 A 
HETATM    3  N2  UNL     1      47.924  17.039 -11.955  1.00  0.00    -0.200 N 
ATOM      4  H2  UNL     1      48.256  17.860 -11.449  1.00  0.00     0.183 HD
HETATM    5  C4  UNL     1      47.864  15.869 -11.295  1.00  0.00     0.679 A 
HETATM    6  N5  UNL     1      47.422  14.803 -11.989  1.00  0.00    -0.177 N 
ATOM      7  H5  UNL     1      47.364  13.900 -11.519  1.00  0.00     0.185 HD
HETATM    8  C7  UNL     1      47.053  14.887 -13.285  1.00  0.00     0.159 A 
HETATM    9  N6  UNL     1      46.585  13.771 -14.032  1.00  0.00    -0.080 NA
ENDROOT
BRANCH   5  10
HETATM   10  N3  UNL     1      48.191  15.700 -10.076  1.00  0.00    -0.224 N 
ATOM     11  H3  UNL     1      49.173  15.852  -9.844  1.00  0.00     0.177 HD
BRANCH  10  12
HETATM   12  C5  UNL     1      47.341  15.324  -9.001  1.00  0.00     0.165 C 
BRANCH  12  13
HETATM   13  C6  UNL     1      47.853  14.161  -8.186  1.00  0.00     0.249 C 
BRANCH  13  14
HETATM   14  N4  UNL     1      47.557  12.948  -8.966  1.00  0.00    -0.078 N 
ATOM     15  H43 UNL     1      47.289  12.150  -8.388  1.00  0.00     0.274 HD
ATOM     16  H42 UNL     1      46.691  13.012  -9.502  1.00  0.00     0.274 HD
ATOM     17  H41 UNL     1      48.379  12.771  -9.543  1.00  0.00     0.274 HD
ENDBRANCH  13  14
ENDBRANCH  12  13
ENDBRANCH  10  12
ENDBRANCH   5  10
BRANCH   1  18
HETATM   18  N1  UNL     1      46.737  16.213 -15.317  1.00  0.00    -0.390 N 
HETATM   19  C1  UNL     1      47.168  17.327 -16.126  1.00  0.00     0.146 C 
ATOM     20  H1  UNL     1      46.147  15.492 -15.731  1.00  0.00     0.159 HD
ENDBRANCH   1  18
TORSDOF 5
ENDMDL
MODEL 5
REMARK VINA RESULT: -5.354764657      1.117      1.402
REMARK  5 active torsions:
REMARK  status: ('A' for Active; 'I' for Inactive)
REMARK    1  A    between atoms: N1_2  and  C2_4 
REMARK    2  A    between atoms: C4_8  and  N3_9 
REMARK    3  A    between atoms: N3_9  and  C5_11 
REMARK    4  A    between atoms: C5_11  and  C6_12 
REMARK    5  A    between atoms: C6_12  and  N4_13 
ROOT
HETATM    1  C2  UNL     1      47.295  15.036 -11.376  1.00  0.00     0.086 A 
HETATM    2  C3  UNL     1      47.469  16.213 -10.709  1.00  0.00     0.138 A 
HETATM    3  N2  UNL     1      47.689  17.332 -11.420  1.00  0.00    -0.200 N 
ATOM      4  H2  UNL     1      47.818  18.207 -10.911  1.00  0.00     0.183 HD
HETATM    5  C4  UNL     1      47.749  17.365 -12.762  1.00  0.00     0.679 A 
HETATM    6  N5  UNL     1      47.576  16.195 -13.406  1.00  0.00    -0.177 N 
ATOM      7  H5  UNL     1      47.616  16.184 -14.425  1.00  0.00     0.185 HD
HETATM    8  C7  UNL     1      47.352  15.037 -12.751  1.00  0.00     0.159 A 
HETATM    9  N6  UNL     1      47.166  13.793 -13.416  1.00  0.00    -0.080 NA
ENDROOT
BRANCH   5  10
HETATM   10  N3  UNL     1      47.957  18.411 -13.459  1.00  0.00    -0.224 N 
ATOM     11  H3  UNL     1      48.033  19.289 -12.946  1.00  0.00     0.177 HD
BRANCH  10  12
HETATM   12  C5  UNL     1      48.095  18.490 -14.871  1.00  0.00     0.165 C 
BRANCH  12  13
HETATM   13  C6  UNL     1      48.121  19.900 -15.411  1.00  0.00     0.249 C 
BRANCH  13  14
HETATM   14  N4  UNL     1      47.869  20.787 -14.263  1.00  0.00    -0.078 N 
ATOM     15  H43 UNL     1      47.891  20.302 -13.365  1.00  0.00     0.274 HD
ATOM     16  H42 UNL     1      48.635  21.434 -14.075  1.00  0.00     0.274 HD
ATOM     17  H41 UNL     1      46.982  21.253 -14.450  1.00  0.00     0.274 HD
ENDBRANCH  13  14
ENDBRANCH  12  13
ENDBRANCH  10  12
ENDBRANCH   5  10
BRANCH   1  18
HETATM   18  N1  UNL     1      47.056  13.810 -10.655  1.00  0.00    -0.390 N 
HETATM   19  C1  UNL     1      47.536  13.630  -9.305  1.00  0.00     0.146 C 
ATOM     20  H1  UNL     1      46.538  13.056 -11.107  1.00  0.00     0.159 HD
ENDBRANCH   1  18
TORSDOF 5
ENDMDL
