MODEL 1
REMARK VINA RESULT: -4.989922231      0.000      0.000
REMARK  8 active torsions:
REMARK  status: ('A' for Active; 'I' for Inactive)
REMARK    1  A    between atoms: N1_1  and  C1_5 
REMARK    2  A    between atoms: C1_5  and  C2_6 
REMARK    3  A    between atoms: C2_6  and  C3_7 
REMARK    4  A    between atoms: C3_7  and  C4_8 
REMARK    5  A    between atoms: C4_8  and  N2_9 
REMARK    6  A    between atoms: N2_9  and  C5_11 
REMARK    7  A    between atoms: C6_17  and  N5_18 
REMARK    8  A    between atoms: N5_18  and  N6_20 
ROOT
HETATM    1  C5  UNL     1      47.574  15.556 -12.857  1.00  0.00     0.171 A 
HETATM    2  N3  UNL     1      46.977  14.399 -13.198  1.00  0.00    -0.222 N 
ATOM      3  H3  UNL     1      46.958  13.554 -12.628  1.00  0.00     0.198 HD
HETATM    4  O1  UNL     1      46.430  14.528 -14.364  1.00  0.00    -0.153 OA
HETATM    5  N4  UNL     1      46.614  15.706 -14.848  1.00  0.00    -0.221 N 
ATOM      6  H4  UNL     1      46.281  16.051 -15.748  1.00  0.00     0.198 HD
HETATM    7  C6  UNL     1      47.340  16.404 -13.926  1.00  0.00     0.188 A 
ENDROOT
BRANCH   1   8
HETATM    8  N2  UNL     1      48.223  15.888 -11.824  1.00  0.00    -0.372 N 
ATOM      9  H2  UNL     1      49.205  15.612 -11.805  1.00  0.00     0.161 HD
BRANCH   8  10
HETATM   10  C4  UNL     1      47.756  16.599 -10.688  1.00  0.00     0.121 C 
BRANCH  10  11
HETATM   11  C3  UNL     1      46.893  15.652  -9.865  1.00  0.00     0.021 C 
BRANCH  11  12
HETATM   12  C2  UNL     1      47.766  15.127  -8.745  1.00  0.00     0.029 C 
BRANCH  12  13
HETATM   13  C1  UNL     1      47.848  13.630  -8.735  1.00  0.00     0.229 C 
BRANCH  13  14
HETATM   14  N1  UNL     1      47.029  13.109  -9.791  1.00  0.00    -0.079 N 
ATOM     15  H13 UNL     1      47.581  12.781 -10.584  1.00  0.00     0.274 HD
ATOM     16  H12 UNL     1      46.593  12.221  -9.543  1.00  0.00     0.274 HD
ATOM     17  H11 UNL     1      46.343  13.814 -10.061  1.00  0.00     0.274 HD
ENDBRANCH  13  14
ENDBRANCH  12  13
ENDBRANCH  11  12
ENDBRANCH  10  11
ENDBRANCH   8  10
ENDBRANCH   1   8
BRANCH   7  18
HETATM   18  N5  UNL     1      47.733  17.628 -14.032  1.00  0.00    -0.287 N 
ATOM     19  H5  UNL     1      47.420  18.329 -13.362  1.00  0.00     0.188 HD
BRANCH  18  20
HETATM   20  N6  UNL     1      48.588  17.982 -15.070  1.00  0.00    -0.343 N 
ATOM     21  H62 UNL     1      48.212  18.472 -15.882  1.00  0.00     0.176 HD
ATOM     22  H61 UNL     1      49.579  17.746 -15.005  1.00  0.00     0.176 HD
ENDBRANCH  18  20
ENDBRANCH   7  18
TORSDOF 8
ENDMDL
MODEL 2
REMARK VINA RESULT: -4.867543574      1.231      2.362
REMARK  8 active torsions:
REMARK  status: ('A' for Active; 'I' for Inactive)
REMARK    1  A    between atoms: N1_1  and  C1_5 
REMARK    2  A    between atoms: C1_5  and  C2_6 
REMARK    3  A    between atoms: C2_6  and  C3_7 
REMARK    4  A    between atoms: C3_7  and  C4_8 
REMARK    5  A    between atoms: C4_8  and  N2_9 
REMARK    6  A    between atoms: N2_9  and  C5_11 
REMARK    7  A    between atoms: C6_17  and  N5_18 
REMARK    8  A    between atoms: N5_18  and  N6_20 
ROOT
HETATM    1  C5  UNL     1      47.595  16.807 -13.749  1.00  0.00     0.171 A 
HETATM    2  N3  UNL     1      47.203  17.688 -14.689  1.00  0.00    -0.222 N 
ATOM      3  H3  UNL     1      47.489  18.665 -14.737  1.00  0.00     0.198 HD
HETATM    4  O1  UNL     1      46.408  17.099 -15.522  1.00  0.00    -0.153 OA
HETATM    5  N4  UNL     1      46.226  15.862 -15.213  1.00  0.00    -0.221 N 
ATOM      6  H4  UNL     1      45.645  15.191 -15.714  1.00  0.00     0.198 HD
HETATM    7  C6  UNL     1      46.962  15.623 -14.087  1.00  0.00     0.188 A 
ENDROOT
BRANCH   1   8
HETATM    8  N2  UNL     1      48.358  16.936 -12.750  1.00  0.00    -0.372 N 
ATOM      9  H2  UNL     1      49.309  16.584 -12.866  1.00  0.00     0.161 HD
BRANCH   8  10
HETATM   10  C4  UNL     1      48.058  17.509 -11.487  1.00  0.00     0.121 C 
BRANCH  10  11
HETATM   11  C3  UNL     1      47.417  16.431 -10.624  1.00  0.00     0.021 C 
BRANCH  11  12
HETATM   12  C2  UNL     1      48.431  15.314 -10.494  1.00  0.00     0.029 C 
BRANCH  12  13
HETATM   13  C1  UNL     1      48.000  14.258  -9.521  1.00  0.00     0.229 C 
BRANCH  13  14
HETATM   14  N1  UNL     1      46.838  13.593 -10.035  1.00  0.00    -0.079 N 
ATOM     15  H13 UNL     1      45.972  14.054  -9.758  1.00  0.00     0.274 HD
ATOM     16  H12 UNL     1      46.742  13.703 -11.045  1.00  0.00     0.274 HD
ATOM     17  H11 UNL     1      46.863  12.613  -9.754  1.00  0.00     0.274 HD
ENDBRANCH  13  14
ENDBRANCH  12  13
ENDBRANCH  11  12
ENDBRANCH  10  11
ENDBRANCH   8  10
ENDBRANCH   1   8
BRANCH   7  18
HETATM   18  N5  UNL     1      47.050  14.501 -13.458  1.00  0.00    -0.287 N 
ATOM     19  H5  UNL     1      47.689  14.402 -12.670  1.00  0.00     0.188 HD
BRANCH  18  20
HETATM   20  N6  UNL     1      46.265  13.427 -13.865  1.00  0.00    -0.343 N 
ATOM     21  H62 UNL     1      46.491  12.945 -14.735  1.00  0.00     0.176 HD
ATOM     22  H61 UNL     1      45.476  13.137 -13.287  1.00  0.00     0.176 HD
ENDBRANCH  18  20
ENDBRANCH   7  18
TORSDOF 8
ENDMDL
MODEL 3
REMARK VINA RESULT: -4.834976321      1.714      2.604
REMARK  8 active torsions:
REMARK  status: ('A' for Active; 'I' for Inactive)
REMARK    1  A    between atoms: N1_1  and  C1_5 
REMARK    2  A    between atoms: C1_5  and  C2_6 
REMARK    3  A    between atoms: C2_6  and  C3_7 
REMARK    4  A    between atoms: C3_7  and  C4_8 
REMARK    5  A    between atoms: C4_8  and  N2_9 
REMARK    6  A    between atoms: N2_9  and  C5_11 
REMARK    7  A    between atoms: C6_17  and  N5_18 
REMARK    8  A    between atoms: N5_18  and  N6_20 
ROOT
HETATM    1  C5  UNL     1      47.879  17.431 -14.258  1.00  0.00     0.171 A 
HETATM    2  N3  UNL     1      48.663  18.139 -15.092  1.00  0.00    -0.222 N 
ATOM      3  H3  UNL     1      49.351  18.834 -14.806  1.00  0.00     0.198 HD
HETATM    4  O1  UNL     1      48.405  17.798 -16.313  1.00  0.00    -0.153 OA
HETATM    5  N4  UNL     1      47.489  16.897 -16.373  1.00  0.00    -0.221 N 
ATOM      6  H4  UNL     1      47.113  16.467 -17.218  1.00  0.00     0.198 HD
HETATM    7  C6  UNL     1      47.116  16.625 -15.087  1.00  0.00     0.188 A 
ENDROOT
BRANCH   1   8
HETATM    8  N2  UNL     1      47.785  17.430 -12.997  1.00  0.00    -0.372 N 
ATOM      9  H2  UNL     1      47.096  18.069 -12.600  1.00  0.00     0.161 HD
BRANCH   8  10
HETATM   10  C4  UNL     1      48.520  16.652 -12.065  1.00  0.00     0.121 C 
BRANCH  10  11
HETATM   11  C3  UNL     1      47.541  16.106 -11.035  1.00  0.00     0.021 C 
BRANCH  11  12
HETATM   12  C2  UNL     1      48.277  15.038 -10.254  1.00  0.00     0.029 C 
BRANCH  12  13
HETATM   13  C1  UNL     1      47.372  13.933  -9.800  1.00  0.00     0.229 C 
BRANCH  13  14
HETATM   14  N1  UNL     1      46.010  14.366  -9.912  1.00  0.00    -0.079 N 
ATOM     15  H13 UNL     1      45.612  14.634  -9.012  1.00  0.00     0.274 HD
ATOM     16  H12 UNL     1      45.927  15.270 -10.380  1.00  0.00     0.274 HD
ATOM     17  H11 UNL     1      45.465  13.639 -10.376  1.00  0.00     0.274 HD
ENDBRANCH  13  14
ENDBRANCH  12  13
ENDBRANCH  11  12
ENDBRANCH  10  11
ENDBRANCH   8  10
ENDBRANCH   1   8
BRANCH   7  18
HETATM   18  N5  UNL     1      46.221  15.773 -14.715  1.00  0.00    -0.287 N 
ATOM     19  H5  UNL     1      45.233  16.021 -14.745  1.00  0.00     0.188 HD
BRANCH  18  20
HETATM   20  N6  UNL     1      46.618  14.516 -14.275  1.00  0.00    -0.343 N 
ATOM     21  H62 UNL     1      46.509  14.274 -13.290  1.00  0.00     0.176 HD
ATOM     22  H61 UNL     1      47.012  13.853 -14.943  1.00  0.00     0.176 HD
ENDBRANCH  18  20
ENDBRANCH   7  18
TORSDOF 8
ENDMDL
MODEL 4
REMARK VINA RESULT: -4.826027842      1.581      2.132
REMARK  8 active torsions:
REMARK  status: ('A' for Active; 'I' for Inactive)
REMARK    1  A    between atoms: N1_1  and  C1_5 
REMARK    2  A    between atoms: C1_5  and  C2_6 
REMARK    3  A    between atoms: C2_6  and  C3_7 
REMARK    4  A    between atoms: C3_7  and  C4_8 
REMARK    5  A    between atoms: C4_8  and  N2_9 
REMARK    6  A    between atoms: N2_9  and  C5_11 
REMARK    7  A    between atoms: C6_17  and  N5_18 
REMARK    8  A    between atoms: N5_18  and  N6_20 
ROOT
HETATM    1  C5  UNL     1      47.733  17.372 -14.324  1.00  0.00     0.171 A 
HETATM    2  N3  UNL     1      46.608  16.680 -14.582  1.00  0.00    -0.222 N 
ATOM      3  H3  UNL     1      46.163  16.020 -13.945  1.00  0.00     0.198 HD
HETATM    4  O1  UNL     1      46.181  16.983 -15.764  1.00  0.00    -0.153 OA
HETATM    5  N4  UNL     1      46.944  17.845 -16.340  1.00  0.00    -0.221 N 
ATOM      6  H4  UNL     1      46.819  18.241 -17.271  1.00  0.00     0.198 HD
HETATM    7  C6  UNL     1      47.953  18.128 -15.464  1.00  0.00     0.188 A 
ENDROOT
BRANCH   1   8
HETATM    8  N2  UNL     1      48.487  17.395 -13.310  1.00  0.00    -0.372 N 
ATOM      9  H2  UNL     1      49.487  17.469 -13.498  1.00  0.00     0.161 HD
BRANCH   8  10
HETATM   10  C4  UNL     1      48.115  17.329 -11.941  1.00  0.00     0.121 C 
BRANCH  10  11
HETATM   11  C3  UNL     1      48.523  15.962 -11.410  1.00  0.00     0.021 C 
BRANCH  11  12
HETATM   12  C2  UNL     1      47.579  15.637 -10.271  1.00  0.00     0.029 C 
BRANCH  12  13
HETATM   13  C1  UNL     1      48.000  14.417  -9.508  1.00  0.00     0.229 C 
BRANCH  13  14
HETATM   14  N1  UNL     1      47.008  13.394  -9.675  1.00  0.00    -0.079 N 
ATOM     15  H13 UNL     1      46.060  13.752  -9.561  1.00  0.00     0.274 HD
ATOM     16  H12 UNL     1      46.930  13.084 -10.644  1.00  0.00     0.274 HD
ATOM     17  H11 UNL     1      47.212  12.625  -9.038  1.00  0.00     0.274 HD
ENDBRANCH  13  14
ENDBRANCH  12  13
ENDBRANCH  11  12
ENDBRANCH  10  11
ENDBRANCH   8  10
ENDBRANCH   1   8
BRANCH   7  18
HETATM   18  N5  UNL     1      48.928  18.948 -15.662  1.00  0.00    -0.287 N 
ATOM     19  H5  UNL     1      48.847  19.923 -15.375  1.00  0.00     0.188 HD
BRANCH  18  20
HETATM   20  N6  UNL     1      50.091  18.491 -16.271  1.00  0.00    -0.343 N 
ATOM     21  H62 UNL     1      50.473  17.584 -16.001  1.00  0.00     0.176 HD
ATOM     22  H61 UNL     1      50.546  19.068 -16.979  1.00  0.00     0.176 HD
ENDBRANCH  18  20
ENDBRANCH   7  18
TORSDOF 8
ENDMDL
MODEL 5
REMARK VINA RESULT: -4.774549950      2.192      4.632
REMARK  8 active torsions:
REMARK  status: ('A' for Active; 'I' for Inactive)
REMARK    1  A    between atoms: N1_1  and  C1_5 
REMARK    2  A    between atoms: C1_5  and  C2_6 
REMARK    3  A    between atoms: C2_6  and  C3_7 
REMARK    4  A    between atoms: C3_7  and  C4_8 
REMARK    5  A    between atoms: C4_8  and  N2_9 
REMARK    6  A    between atoms: N2_9  and  C5_11 
REMARK    7  A    between atoms: C6_17  and  N5_18 
REMARK    8  A    between atoms: N5_18  and  N6_20 
ROOT
HETATM    1  C5  UNL     1      47.782  15.835 -11.198  1.00  0.00     0.171 A 
HETATM    2  N3  UNL     1      47.736  15.633  -9.868  1.00  0.00    -0.222 N 
ATOM      3  H3  UNL     1      48.077  16.283  -9.161  1.00  0.00     0.198 HD
HETATM    4  O1  UNL     1      47.192  14.483  -9.629  1.00  0.00    -0.153 OA
HETATM    5  N4  UNL     1      46.859  13.879 -10.715  1.00  0.00    -0.221 N 
ATOM      6  H4  UNL     1      46.415  12.965 -10.790  1.00  0.00     0.198 HD
HETATM    7  C6  UNL     1      47.215  14.699 -11.749  1.00  0.00     0.188 A 
ENDROOT
BRANCH   1   8
HETATM    8  N2  UNL     1      48.223  16.803 -11.881  1.00  0.00    -0.372 N 
ATOM      9  H2  UNL     1      48.922  16.570 -12.587  1.00  0.00     0.161 HD
BRANCH   8  10
HETATM   10  C4  UNL     1      47.867  18.174 -11.789  1.00  0.00     0.121 C 
BRANCH  10  11
HETATM   11  C3  UNL     1      47.895  18.761 -13.193  1.00  0.00     0.021 C 
BRANCH  11  12
HETATM   12  C2  UNL     1      48.217  17.623 -14.138  1.00  0.00     0.029 C 
BRANCH  12  13
HETATM   13  C1  UNL     1      47.506  17.749 -15.451  1.00  0.00     0.229 C 
BRANCH  13  14
HETATM   14  N1  UNL     1      46.679  16.593 -15.649  1.00  0.00    -0.079 N 
ATOM     15  H13 UNL     1      47.040  15.771 -15.166  1.00  0.00     0.274 HD
ATOM     16  H12 UNL     1      45.786  16.667 -15.161  1.00  0.00     0.274 HD
ATOM     17  H11 UNL     1      46.562  16.435 -16.650  1.00  0.00     0.274 HD
ENDBRANCH  13  14
ENDBRANCH  12  13
ENDBRANCH  11  12
ENDBRANCH  10  11
ENDBRANCH   8  10
ENDBRANCH   1   8
BRANCH   7  18
HETATM   18  N5  UNL     1      47.049  14.457 -13.005  1.00  0.00    -0.287 N 
ATOM     19  H5  UNL     1      47.226  15.185 -13.697  1.00  0.00     0.188 HD
BRANCH  18  20
HETATM   20  N6  UNL     1      46.628  13.195 -13.408  1.00  0.00    -0.343 N 
ATOM     21  H62 UNL     1      46.342  12.515 -12.703  1.00  0.00     0.176 HD
ATOM     22  H61 UNL     1      46.610  12.966 -14.402  1.00  0.00     0.176 HD
ENDBRANCH  18  20
ENDBRANCH   7  18
TORSDOF 8
ENDMDL
