MODEL 1
REMARK VINA RESULT: -5.463915065      0.000      0.000
REMARK  4 active torsions:
REMARK  status: ('A' for Active; 'I' for Inactive)
REMARK    1  A    between atoms: N1_3  and  N2_4 
REMARK    2  A    between atoms: C3_7  and  N3_8 
REMARK       I    between atoms: N3_8  and  C4_10 
REMARK       I    between atoms: C4_10  and  N4_11 
REMARK       I    between atoms: C4_10  and  N5_15 
REMARK    3  A    between atoms: N5_15  and  N6_16 
REMARK    4  A    between atoms: N7_20  and  O1_21 
ROOT
HETATM    1  C1  UNL     1      46.477  16.512 -14.971  1.00  0.00     0.093 C 
HETATM    2  C2  UNL     1      47.162  16.444 -13.653  1.00  0.00     0.128 A 
HETATM    3  N1  UNL     1      47.360  15.327 -12.935  1.00  0.00    -0.231 N 
HETATM    4  C3  UNL     1      48.016  15.645 -11.788  1.00  0.00     0.145 A 
HETATM    5  C5  UNL     1      48.208  17.000 -11.841  1.00  0.00     0.174 A 
HETATM    6  N7  UNL     1      47.678  17.495 -12.997  1.00  0.00    -0.218 N 
ENDROOT
BRANCH   4   7
HETATM    7  N3  UNL     1      48.421  14.759 -10.753  1.00  0.00    -0.332 N 
HETATM    8  C4  UNL     1      47.633  14.687  -9.540  1.00  0.00     0.397 C 
HETATM    9  N4  UNL     1      46.291  14.251  -9.874  1.00  0.00    -0.042 N 
HETATM   10  N5  UNL     1      48.261  13.910  -8.521  1.00  0.00    -0.093 NA
ATOM     11  H43 UNL     1      45.857  14.841 -10.584  1.00  0.00     0.278 HD
ATOM     12  H42 UNL     1      46.286  13.374 -10.393  1.00  0.00     0.278 HD
ATOM     13  H41 UNL     1      45.735  14.200  -9.020  1.00  0.00     0.278 HD
ATOM     14  H3  UNL     1      49.256  14.183 -10.863  1.00  0.00     0.164 HD
BRANCH  10  15
HETATM   15  N6  UNL     1      47.436  13.899  -7.393  1.00  0.00    -0.345 N 
ATOM     16  H62 UNL     1      46.486  13.527  -7.368  1.00  0.00     0.172 HD
ATOM     17  H61 UNL     1      47.942  14.320  -6.613  1.00  0.00     0.172 HD
ENDBRANCH  10  15
ENDBRANCH   4   7
BRANCH   3  18
HETATM   18  N2  UNL     1      46.965  14.027 -13.285  1.00  0.00    -0.335 N 
ATOM     19  H22 UNL     1      46.199  13.521 -12.842  1.00  0.00     0.177 HD
ATOM     20  H21 UNL     1      47.382  13.439 -14.007  1.00  0.00     0.177 HD
ENDBRANCH   3  18
BRANCH   6  21
HETATM   21  O1  UNL     1      47.665  18.801 -13.424  1.00  0.00    -0.282 OA
ATOM     22  H1  UNL     1      47.217  19.523 -12.999  1.00  0.00     0.245 HD
ENDBRANCH   6  21
TORSDOF 4
ENDMDL
MODEL 2
REMARK VINA RESULT: -5.068306207      2.678      5.725
REMARK  4 active torsions:
REMARK  status: ('A' for Active; 'I' for Inactive)
REMARK    1  A    between atoms: N1_3  and  N2_4 
REMARK    2  A    between atoms: C3_7  and  N3_8 
REMARK       I    between atoms: N3_8  and  C4_10 
REMARK       I    between atoms: C4_10  and  N4_11 
REMARK       I    between atoms: C4_10  and  N5_15 
REMARK    3  A    between atoms: N5_15  and  N6_16 
REMARK    4  A    between atoms: N7_20  and  O1_21 
ROOT
HETATM    1  C1  UNL     1      48.015  15.417 -10.686  1.00  0.00     0.093 C 
HETATM    2  C2  UNL     1      47.830  16.191 -11.941  1.00  0.00     0.128 A 
HETATM    3  N1  UNL     1      47.377  15.694 -13.104  1.00  0.00    -0.231 N 
HETATM    4  C3  UNL     1      47.339  16.689 -14.029  1.00  0.00     0.145 A 
HETATM    5  C5  UNL     1      47.786  17.808 -13.380  1.00  0.00     0.174 A 
HETATM    6  N7  UNL     1      48.090  17.500 -12.086  1.00  0.00    -0.218 N 
ENDROOT
BRANCH   4   7
HETATM    7  N3  UNL     1      46.920  16.590 -15.384  1.00  0.00    -0.332 N 
HETATM    8  C4  UNL     1      47.166  17.702 -16.280  1.00  0.00     0.397 C 
HETATM    9  N4  UNL     1      48.595  17.932 -16.366  1.00  0.00    -0.042 N 
HETATM   10  N5  UNL     1      46.524  17.542 -17.544  1.00  0.00    -0.093 NA
ATOM     11  H43 UNL     1      49.022  18.070 -15.450  1.00  0.00     0.278 HD
ATOM     12  H42 UNL     1      49.107  17.094 -16.639  1.00  0.00     0.278 HD
ATOM     13  H41 UNL     1      48.769  18.715 -16.996  1.00  0.00     0.278 HD
ATOM     14  H3  UNL     1      46.454  15.747 -15.721  1.00  0.00     0.164 HD
BRANCH  10  15
HETATM   15  N6  UNL     1      46.812  18.657 -18.337  1.00  0.00    -0.345 N 
ATOM     16  H62 UNL     1      46.119  19.323 -18.680  1.00  0.00     0.172 HD
ATOM     17  H61 UNL     1      47.817  18.686 -18.509  1.00  0.00     0.172 HD
ENDBRANCH  10  15
ENDBRANCH   4   7
BRANCH   3  18
HETATM   18  N2  UNL     1      46.997  14.367 -13.354  1.00  0.00    -0.335 N 
ATOM     19  H22 UNL     1      47.575  13.554 -13.141  1.00  0.00     0.177 HD
ATOM     20  H21 UNL     1      46.119  14.054 -13.770  1.00  0.00     0.177 HD
ENDBRANCH   3  18
BRANCH   6  21
HETATM   21  O1  UNL     1      48.567  18.342 -11.111  1.00  0.00    -0.282 OA
ATOM     22  H1  UNL     1      48.041  18.834 -10.492  1.00  0.00     0.245 HD
ENDBRANCH   6  21
TORSDOF 4
ENDMDL
MODEL 3
REMARK VINA RESULT: -5.057565023      3.041      4.010
REMARK  4 active torsions:
REMARK  status: ('A' for Active; 'I' for Inactive)
REMARK    1  A    between atoms: N1_3  and  N2_4 
REMARK    2  A    between atoms: C3_7  and  N3_8 
REMARK       I    between atoms: N3_8  and  C4_10 
REMARK       I    between atoms: C4_10  and  N4_11 
REMARK       I    between atoms: C4_10  and  N5_15 
REMARK    3  A    between atoms: N5_15  and  N6_16 
REMARK    4  A    between atoms: N7_20  and  O1_21 
ROOT
HETATM    1  C1  UNL     1      47.851  21.086 -13.761  1.00  0.00     0.093 C 
HETATM    2  C2  UNL     1      47.800  19.750 -13.111  1.00  0.00     0.128 A 
HETATM    3  N1  UNL     1      48.120  18.585 -13.698  1.00  0.00    -0.231 N 
HETATM    4  C3  UNL     1      47.954  17.575 -12.804  1.00  0.00     0.145 A 
HETATM    5  C5  UNL     1      47.521  18.175 -11.652  1.00  0.00     0.174 A 
HETATM    6  N7  UNL     1      47.426  19.523 -11.842  1.00  0.00    -0.218 N 
ENDROOT
BRANCH   4   7
HETATM    7  N3  UNL     1      48.183  16.189 -13.017  1.00  0.00    -0.332 N 
HETATM    8  C4  UNL     1      47.071  15.342 -13.399  1.00  0.00     0.397 C 
HETATM    9  N4  UNL     1      46.532  15.810 -14.661  1.00  0.00    -0.042 N 
HETATM   10  N5  UNL     1      47.407  13.955 -13.388  1.00  0.00    -0.093 NA
ATOM     11  H43 UNL     1      46.276  16.797 -14.631  1.00  0.00     0.278 HD
ATOM     12  H42 UNL     1      47.243  15.868 -15.389  1.00  0.00     0.278 HD
ATOM     13  H41 UNL     1      45.749  15.215 -14.930  1.00  0.00     0.278 HD
ATOM     14  H3  UNL     1      49.117  15.796 -12.903  1.00  0.00     0.164 HD
BRANCH  10  15
HETATM   15  N6  UNL     1      46.279  13.218 -13.763  1.00  0.00    -0.345 N 
ATOM     16  H62 UNL     1      46.087  12.259 -13.473  1.00  0.00     0.172 HD
ATOM     17  H61 UNL     1      45.695  13.797 -14.366  1.00  0.00     0.172 HD
ENDBRANCH  10  15
ENDBRANCH   4   7
BRANCH   3  18
HETATM   18  N2  UNL     1      48.557  18.407 -15.019  1.00  0.00    -0.335 N 
ATOM     19  H22 UNL     1      48.152  17.737 -15.673  1.00  0.00     0.177 HD
ATOM     20  H21 UNL     1      49.314  18.911 -15.482  1.00  0.00     0.177 HD
ENDBRANCH   3  18
BRANCH   6  21
HETATM   21  O1  UNL     1      47.030  20.475 -10.934  1.00  0.00    -0.282 OA
ATOM     22  H1  UNL     1      46.164  20.558 -10.554  1.00  0.00     0.245 HD
ENDBRANCH   6  21
TORSDOF 4
ENDMDL
MODEL 4
REMARK VINA RESULT: -5.025906157      2.917      5.953
REMARK  4 active torsions:
REMARK  status: ('A' for Active; 'I' for Inactive)
REMARK    1  A    between atoms: N1_3  and  N2_4 
REMARK    2  A    between atoms: C3_7  and  N3_8 
REMARK       I    between atoms: N3_8  and  C4_10 
REMARK       I    between atoms: C4_10  and  N4_11 
REMARK       I    between atoms: C4_10  and  N5_15 
REMARK    3  A    between atoms: N5_15  and  N6_16 
REMARK    4  A    between atoms: N7_20  and  O1_21 
ROOT
HETATM    1  C1  UNL     1      47.917  15.027 -10.637  1.00  0.00     0.093 C 
HETATM    2  C2  UNL     1      47.625  15.483 -12.021  1.00  0.00     0.128 A 
HETATM    3  N1  UNL     1      47.783  16.736 -12.478  1.00  0.00    -0.231 N 
HETATM    4  C3  UNL     1      47.417  16.783 -13.786  1.00  0.00     0.145 A 
HETATM    5  C5  UNL     1      47.031  15.508 -14.103  1.00  0.00     0.174 A 
HETATM    6  N7  UNL     1      47.160  14.702 -13.009  1.00  0.00    -0.218 N 
ENDROOT
BRANCH   4   7
HETATM    7  N3  UNL     1      47.434  17.915 -14.646  1.00  0.00    -0.332 N 
HETATM    8  C4  UNL     1      47.975  17.775 -15.983  1.00  0.00     0.397 C 
HETATM    9  N4  UNL     1      47.195  16.791 -16.708  1.00  0.00    -0.042 N 
HETATM   10  N5  UNL     1      48.106  19.026 -16.656  1.00  0.00    -0.093 NA
ATOM     11  H43 UNL     1      47.142  15.899 -16.216  1.00  0.00     0.278 HD
ATOM     12  H42 UNL     1      46.200  17.012 -16.713  1.00  0.00     0.278 HD
ATOM     13  H41 UNL     1      47.576  16.692 -17.649  1.00  0.00     0.278 HD
ATOM     14  H3  UNL     1      47.070  18.812 -14.326  1.00  0.00     0.164 HD
BRANCH  10  15
HETATM   15  N6  UNL     1      48.636  18.797 -17.929  1.00  0.00    -0.345 N 
ATOM     16  H62 UNL     1      48.797  19.518 -18.633  1.00  0.00     0.172 HD
ATOM     17  H61 UNL     1      48.829  17.800 -18.029  1.00  0.00     0.172 HD
ENDBRANCH  10  15
ENDBRANCH   4   7
BRANCH   3  18
HETATM   18  N2  UNL     1      48.249  17.840 -11.748  1.00  0.00    -0.335 N 
ATOM     19  H22 UNL     1      48.454  17.823 -10.749  1.00  0.00     0.177 HD
ATOM     20  H21 UNL     1      48.437  18.774 -12.113  1.00  0.00     0.177 HD
ENDBRANCH   3  18
BRANCH   6  21
HETATM   21  O1  UNL     1      46.878  13.361 -12.914  1.00  0.00    -0.282 OA
ATOM     22  H1  UNL     1      47.150  12.782 -12.212  1.00  0.00     0.245 HD
ENDBRANCH   6  21
TORSDOF 4
ENDMDL
MODEL 5
REMARK VINA RESULT: -4.993560530      1.650      2.088
REMARK  4 active torsions:
REMARK  status: ('A' for Active; 'I' for Inactive)
REMARK    1  A    between atoms: N1_3  and  N2_4 
REMARK    2  A    between atoms: C3_7  and  N3_8 
REMARK       I    between atoms: N3_8  and  C4_10 
REMARK       I    between atoms: C4_10  and  N4_11 
REMARK       I    between atoms: C4_10  and  N5_15 
REMARK    3  A    between atoms: N5_15  and  N6_16 
REMARK    4  A    between atoms: N7_20  and  O1_21 
ROOT
HETATM    1  C1  UNL     1      47.991  18.378 -14.176  1.00  0.00     0.093 C 
HETATM    2  C2  UNL     1      47.554  17.010 -13.794  1.00  0.00     0.128 A 
HETATM    3  N1  UNL     1      47.908  16.364 -12.670  1.00  0.00    -0.231 N 
HETATM    4  C3  UNL     1      47.321  15.138 -12.658  1.00  0.00     0.145 A 
HETATM    5  C5  UNL     1      46.597  15.068 -13.818  1.00  0.00     0.174 A 
HETATM    6  N7  UNL     1      46.741  16.228 -14.522  1.00  0.00    -0.218 N 
ENDROOT
BRANCH   4   7
HETATM    7  N3  UNL     1      47.432  14.140 -11.652  1.00  0.00    -0.332 N 
HETATM    8  C4  UNL     1      47.443  14.541 -10.260  1.00  0.00     0.397 C 
HETATM    9  N4  UNL     1      46.198  15.217  -9.953  1.00  0.00    -0.042 N 
HETATM   10  N5  UNL     1      47.754  13.463  -9.379  1.00  0.00    -0.093 NA
ATOM     11  H43 UNL     1      46.015  15.999 -10.581  1.00  0.00     0.278 HD
ATOM     12  H42 UNL     1      45.382  14.652 -10.187  1.00  0.00     0.278 HD
ATOM     13  H41 UNL     1      46.205  15.500  -8.973  1.00  0.00     0.278 HD
ATOM     14  H3  UNL     1      47.502  13.155 -11.907  1.00  0.00     0.164 HD
BRANCH  10  15
HETATM   15  N6  UNL     1      47.746  13.941  -8.065  1.00  0.00    -0.345 N 
ATOM     16  H62 UNL     1      47.923  13.372  -7.236  1.00  0.00     0.172 HD
ATOM     17  H61 UNL     1      47.536  14.939  -8.081  1.00  0.00     0.172 HD
ENDBRANCH  10  15
ENDBRANCH   4   7
BRANCH   3  18
HETATM   18  N2  UNL     1      48.746  16.849 -11.656  1.00  0.00    -0.335 N 
ATOM     19  H22 UNL     1      49.762  16.759 -11.659  1.00  0.00     0.177 HD
ATOM     20  H21 UNL     1      48.455  17.340 -10.810  1.00  0.00     0.177 HD
ENDBRANCH   3  18
BRANCH   6  21
HETATM   21  O1  UNL     1      46.179  16.553 -15.732  1.00  0.00    -0.282 OA
ATOM     22  H1  UNL     1      46.146  15.995 -16.500  1.00  0.00     0.245 HD
ENDBRANCH   6  21
TORSDOF 4
ENDMDL
