MODEL 1
REMARK VINA RESULT: -4.655632202      0.000      0.000
REMARK  7 active torsions:
REMARK  status: ('A' for Active; 'I' for Inactive)
REMARK    1  A    between atoms: C2_6  and  N2_7 
REMARK    2  A    between atoms: N2_7  and  C3_10 
REMARK    3  A    between atoms: C3_10  and  C4_11 
REMARK    4  A    between atoms: C4_11  and  C5_12 
REMARK    5  A    between atoms: C5_12  and  N3_13 
REMARK    6  A    between atoms: C6_17  and  N4_18 
REMARK    7  A    between atoms: C7_22  and  N5_23 
ROOT
HETATM    1  N1  UNL     1      47.911  18.753 -11.558  1.00  0.00    -0.382 N 
ATOM      2  H11 UNL     1      47.933  19.566 -12.174  1.00  0.00     0.158 HD
ATOM      3  H12 UNL     1      48.085  19.033 -10.592  1.00  0.00     0.158 HD
HETATM    4  C1  UNL     1      47.699  17.513 -11.904  1.00  0.00     0.147 C 
HETATM    5  O1  UNL     1      47.669  16.409 -11.068  1.00  0.00    -0.302 OA
HETATM    6  C2  UNL     1      47.697  15.201 -11.852  1.00  0.00     0.361 C 
HETATM    7  C6  UNL     1      47.682  15.600 -13.274  1.00  0.00     0.278 C 
HETATM    8  C7  UNL     1      47.448  17.107 -13.304  1.00  0.00     0.291 C 
ENDROOT
BRANCH   6   9
HETATM    9  N2  UNL     1      46.727  14.321 -11.359  1.00  0.00    -0.046 N 
ATOM     10  H22 UNL     1      45.847  14.448 -11.858  1.00  0.00     0.280 HD
ATOM     11  H21 UNL     1      46.947  13.363 -11.631  1.00  0.00     0.280 HD
BRANCH   9  12
HETATM   12  C3  UNL     1      46.516  14.399  -9.953  1.00  0.00     0.237 C 
BRANCH  12  13
HETATM   13  C4  UNL     1      47.363  13.363  -9.220  1.00  0.00     0.055 C 
BRANCH  13  14
HETATM   14  C5  UNL     1      48.035  14.009  -8.025  1.00  0.00     0.231 C 
BRANCH  14  15
HETATM   15  N3  UNL     1      47.925  15.455  -8.195  1.00  0.00    -0.079 N 
ATOM     16  H33 UNL     1      48.308  15.782  -9.082  1.00  0.00     0.274 HD
ATOM     17  H32 UNL     1      46.966  15.768  -8.341  1.00  0.00     0.274 HD
ATOM     18  H31 UNL     1      48.368  15.890  -7.385  1.00  0.00     0.274 HD
ENDBRANCH  14  15
ENDBRANCH  13  14
ENDBRANCH  12  13
ENDBRANCH   9  12
ENDBRANCH   6   9
BRANCH   7  19
HETATM   19  N4  UNL     1      46.697  15.021 -14.122  1.00  0.00    -0.068 N 
ATOM     20  H43 UNL     1      46.907  14.032 -14.250  1.00  0.00     0.275 HD
ATOM     21  H42 UNL     1      45.812  14.968 -13.617  1.00  0.00     0.275 HD
ATOM     22  H41 UNL     1      46.537  15.450 -15.034  1.00  0.00     0.275 HD
ENDBRANCH   7  19
BRANCH   8  23
HETATM   23  N5  UNL     1      48.414  17.750 -14.150  1.00  0.00    -0.066 N 
ATOM     24  H53 UNL     1      48.258  18.755 -14.226  1.00  0.00     0.275 HD
ATOM     25  H52 UNL     1      49.342  17.782 -13.728  1.00  0.00     0.275 HD
ATOM     26  H51 UNL     1      48.413  17.285 -15.058  1.00  0.00     0.275 HD
ENDBRANCH   8  23
TORSDOF 7
ENDMDL
MODEL 2
REMARK VINA RESULT: -4.523909758      2.397      3.500
REMARK  7 active torsions:
REMARK  status: ('A' for Active; 'I' for Inactive)
REMARK    1  A    between atoms: C2_6  and  N2_7 
REMARK    2  A    between atoms: N2_7  and  C3_10 
REMARK    3  A    between atoms: C3_10  and  C4_11 
REMARK    4  A    between atoms: C4_11  and  C5_12 
REMARK    5  A    between atoms: C5_12  and  N3_13 
REMARK    6  A    between atoms: C6_17  and  N4_18 
REMARK    7  A    between atoms: C7_22  and  N5_23 
ROOT
HETATM    1  N1  UNL     1      47.751  19.720 -16.832  1.00  0.00    -0.382 N 
ATOM      2  H11 UNL     1      47.403  19.703 -17.791  1.00  0.00     0.158 HD
ATOM      3  H12 UNL     1      48.208  20.611 -16.635  1.00  0.00     0.158 HD
HETATM    4  C1  UNL     1      47.654  18.767 -15.946  1.00  0.00     0.147 C 
HETATM    5  O1  UNL     1      48.126  18.790 -14.644  1.00  0.00    -0.302 OA
HETATM    6  C2  UNL     1      48.084  17.462 -14.086  1.00  0.00     0.361 C 
HETATM    7  C6  UNL     1      47.486  16.576 -15.104  1.00  0.00     0.278 C 
HETATM    8  C7  UNL     1      46.991  17.476 -16.232  1.00  0.00     0.291 C 
ENDROOT
BRANCH   6   9
HETATM    9  N2  UNL     1      47.533  17.531 -12.802  1.00  0.00    -0.046 N 
ATOM     10  H22 UNL     1      47.292  18.495 -12.571  1.00  0.00     0.280 HD
ATOM     11  H21 UNL     1      46.604  17.110 -12.792  1.00  0.00     0.280 HD
BRANCH   9  12
HETATM   12  C3  UNL     1      48.343  16.965 -11.777  1.00  0.00     0.237 C 
BRANCH  12  13
HETATM   13  C4  UNL     1      47.491  16.169 -10.791  1.00  0.00     0.055 C 
BRANCH  13  14
HETATM   14  C5  UNL     1      47.332  14.747 -11.289  1.00  0.00     0.231 C 
BRANCH  14  15
HETATM   15  N3  UNL     1      46.558  14.020 -10.286  1.00  0.00    -0.079 N 
ATOM     16  H33 UNL     1      46.580  14.463  -9.368  1.00  0.00     0.274 HD
ATOM     17  H32 UNL     1      45.551  14.081 -10.438  1.00  0.00     0.274 HD
ATOM     18  H31 UNL     1      46.903  13.060 -10.275  1.00  0.00     0.274 HD
ENDBRANCH  14  15
ENDBRANCH  13  14
ENDBRANCH  12  13
ENDBRANCH   9  12
ENDBRANCH   6   9
BRANCH   7  19
HETATM   19  N4  UNL     1      46.381  15.765 -14.720  1.00  0.00    -0.068 N 
ATOM     20  H43 UNL     1      45.799  16.284 -14.063  1.00  0.00     0.275 HD
ATOM     21  H42 UNL     1      45.745  15.671 -15.512  1.00  0.00     0.275 HD
ATOM     22  H41 UNL     1      46.576  14.840 -14.336  1.00  0.00     0.275 HD
ENDBRANCH   7  19
BRANCH   8  23
HETATM   23  N5  UNL     1      47.454  16.992 -17.502  1.00  0.00    -0.066 N 
ATOM     24  H53 UNL     1      47.530  17.734 -18.198  1.00  0.00     0.275 HD
ATOM     25  H52 UNL     1      48.436  16.718 -17.481  1.00  0.00     0.275 HD
ATOM     26  H51 UNL     1      46.842  16.234 -17.806  1.00  0.00     0.275 HD
ENDBRANCH   8  23
TORSDOF 7
ENDMDL
MODEL 3
REMARK VINA RESULT: -4.402203646      2.216      5.724
REMARK  7 active torsions:
REMARK  status: ('A' for Active; 'I' for Inactive)
REMARK    1  A    between atoms: C2_6  and  N2_7 
REMARK    2  A    between atoms: N2_7  and  C3_10 
REMARK    3  A    between atoms: C3_10  and  C4_11 
REMARK    4  A    between atoms: C4_11  and  C5_12 
REMARK    5  A    between atoms: C5_12  and  N3_13 
REMARK    6  A    between atoms: C6_17  and  N4_18 
REMARK    7  A    between atoms: C7_22  and  N5_23 
ROOT
HETATM    1  N1  UNL     1      46.947  13.910 -11.761  1.00  0.00    -0.382 N 
ATOM      2  H11 UNL     1      46.650  13.591 -10.838  1.00  0.00     0.158 HD
ATOM      3  H12 UNL     1      46.920  13.139 -12.430  1.00  0.00     0.158 HD
HETATM    4  C1  UNL     1      47.319  15.116 -12.091  1.00  0.00     0.147 C 
HETATM    5  O1  UNL     1      47.722  15.550 -13.343  1.00  0.00    -0.302 OA
HETATM    6  C2  UNL     1      48.323  16.855 -13.239  1.00  0.00     0.361 C 
HETATM    7  C6  UNL     1      48.224  17.272 -11.826  1.00  0.00     0.278 C 
HETATM    8  C7  UNL     1      47.358  16.233 -11.122  1.00  0.00     0.291 C 
ENDROOT
BRANCH   6   9
HETATM    9  N2  UNL     1      47.806  17.670 -14.251  1.00  0.00    -0.046 N 
ATOM     10  H22 UNL     1      47.218  18.401 -13.851  1.00  0.00     0.280 HD
ATOM     11  H21 UNL     1      48.547  18.242 -14.657  1.00  0.00     0.280 HD
BRANCH   9  12
HETATM   12  C3  UNL     1      47.103  16.974 -15.274  1.00  0.00     0.237 C 
BRANCH  12  13
HETATM   13  C4  UNL     1      47.051  17.802 -16.555  1.00  0.00     0.055 C 
BRANCH  13  14
HETATM   14  C5  UNL     1      48.353  17.647 -17.314  1.00  0.00     0.231 C 
BRANCH  14  15
HETATM   15  N3  UNL     1      48.173  16.557 -18.269  1.00  0.00    -0.079 N 
ATOM     16  H33 UNL     1      47.231  16.521 -18.659  1.00  0.00     0.274 HD
ATOM     17  H32 UNL     1      48.673  16.708 -19.145  1.00  0.00     0.274 HD
ATOM     18  H31 UNL     1      48.444  15.694 -17.798  1.00  0.00     0.274 HD
ENDBRANCH  14  15
ENDBRANCH  13  14
ENDBRANCH  12  13
ENDBRANCH   9  12
ENDBRANCH   6   9
BRANCH   7  19
HETATM   19  N4  UNL     1      47.645  18.540 -11.541  1.00  0.00    -0.068 N 
ATOM     20  H43 UNL     1      48.351  19.141 -11.116  1.00  0.00     0.275 HD
ATOM     21  H42 UNL     1      47.473  19.033 -12.418  1.00  0.00     0.275 HD
ATOM     22  H41 UNL     1      46.798  18.564 -10.972  1.00  0.00     0.275 HD
ENDBRANCH   7  19
BRANCH   8  23
HETATM   23  N5  UNL     1      47.997  15.776  -9.919  1.00  0.00    -0.066 N 
ATOM     24  H53 UNL     1      48.677  15.037 -10.095  1.00  0.00     0.275 HD
ATOM     25  H52 UNL     1      48.638  16.468  -9.530  1.00  0.00     0.275 HD
ATOM     26  H51 UNL     1      47.277  15.494  -9.254  1.00  0.00     0.275 HD
ENDBRANCH   8  23
TORSDOF 7
ENDMDL
MODEL 4
REMARK VINA RESULT: -4.396340006      2.763      5.917
REMARK  7 active torsions:
REMARK  status: ('A' for Active; 'I' for Inactive)
REMARK    1  A    between atoms: C2_6  and  N2_7 
REMARK    2  A    between atoms: N2_7  and  C3_10 
REMARK    3  A    between atoms: C3_10  and  C4_11 
REMARK    4  A    between atoms: C4_11  and  C5_12 
REMARK    5  A    between atoms: C5_12  and  N3_13 
REMARK    6  A    between atoms: C6_17  and  N4_18 
REMARK    7  A    between atoms: C7_22  and  N5_23 
ROOT
HETATM    1  N1  UNL     1      46.942  14.096 -12.541  1.00  0.00    -0.382 N 
ATOM      2  H11 UNL     1      47.054  13.914 -11.543  1.00  0.00     0.158 HD
ATOM      3  H12 UNL     1      46.604  13.260 -13.019  1.00  0.00     0.158 HD
HETATM    4  C1  UNL     1      47.183  15.216 -13.166  1.00  0.00     0.147 C 
HETATM    5  O1  UNL     1      47.031  15.463 -14.520  1.00  0.00    -0.302 OA
HETATM    6  C2  UNL     1      47.668  16.708 -14.865  1.00  0.00     0.361 C 
HETATM    7  C6  UNL     1      48.196  17.292 -13.615  1.00  0.00     0.278 C 
HETATM    8  C7  UNL     1      47.673  16.427 -12.473  1.00  0.00     0.291 C 
ENDROOT
BRANCH   6   9
HETATM    9  N2  UNL     1      46.801  17.448 -15.676  1.00  0.00    -0.046 N 
ATOM     10  H22 UNL     1      46.119  16.832 -16.119  1.00  0.00     0.280 HD
ATOM     11  H21 UNL     1      46.178  18.016 -15.102  1.00  0.00     0.280 HD
BRANCH   9  12
HETATM   12  C3  UNL     1      47.447  18.256 -16.653  1.00  0.00     0.237 C 
BRANCH  12  13
HETATM   13  C4  UNL     1      48.451  17.435 -17.458  1.00  0.00     0.055 C 
BRANCH  13  14
HETATM   14  C5  UNL     1      49.707  18.251 -17.688  1.00  0.00     0.231 C 
BRANCH  14  15
HETATM   15  N3  UNL     1      50.270  18.559 -16.376  1.00  0.00    -0.079 N 
ATOM     16  H33 UNL     1      50.124  17.815 -15.694  1.00  0.00     0.274 HD
ATOM     17  H32 UNL     1      51.290  18.548 -16.367  1.00  0.00     0.274 HD
ATOM     18  H31 UNL     1      49.878  19.453 -16.080  1.00  0.00     0.274 HD
ENDBRANCH  14  15
ENDBRANCH  13  14
ENDBRANCH  12  13
ENDBRANCH   9  12
ENDBRANCH   6   9
BRANCH   7  19
HETATM   19  N4  UNL     1      47.841  18.633 -13.301  1.00  0.00    -0.068 N 
ATOM     20  H43 UNL     1      47.293  19.021 -14.068  1.00  0.00     0.275 HD
ATOM     21  H42 UNL     1      47.150  18.629 -12.551  1.00  0.00     0.275 HD
ATOM     22  H41 UNL     1      48.590  19.284 -13.063  1.00  0.00     0.275 HD
ENDBRANCH   7  19
BRANCH   8  23
HETATM   23  N5  UNL     1      48.746  16.052 -11.594  1.00  0.00    -0.066 N 
ATOM     24  H53 UNL     1      49.412  16.810 -11.446  1.00  0.00     0.275 HD
ATOM     25  H52 UNL     1      48.439  15.945 -10.627  1.00  0.00     0.275 HD
ATOM     26  H51 UNL     1      49.188  15.209 -11.959  1.00  0.00     0.275 HD
ENDBRANCH   8  23
TORSDOF 7
ENDMDL
MODEL 5
REMARK VINA RESULT: -4.393260252      2.720      6.097
REMARK  7 active torsions:
REMARK  status: ('A' for Active; 'I' for Inactive)
REMARK    1  A    between atoms: C2_6  and  N2_7 
REMARK    2  A    between atoms: N2_7  and  C3_10 
REMARK    3  A    between atoms: C3_10  and  C4_11 
REMARK    4  A    between atoms: C4_11  and  C5_12 
REMARK    5  A    between atoms: C5_12  and  N3_13 
REMARK    6  A    between atoms: C6_17  and  N4_18 
REMARK    7  A    between atoms: C7_22  and  N5_23 
ROOT
HETATM    1  N1  UNL     1      46.886  13.898 -12.961  1.00  0.00    -0.382 N 
ATOM      2  H11 UNL     1      46.734  13.413 -12.076  1.00  0.00     0.158 HD
ATOM      3  H12 UNL     1      46.716  13.268 -13.745  1.00  0.00     0.158 HD
HETATM    4  C1  UNL     1      47.248  15.141 -13.122  1.00  0.00     0.147 C 
HETATM    5  O1  UNL     1      47.455  15.799 -14.323  1.00  0.00    -0.302 OA
HETATM    6  C2  UNL     1      48.119  17.055 -14.085  1.00  0.00     0.361 C 
HETATM    7  C6  UNL     1      48.275  17.199 -12.623  1.00  0.00     0.278 C 
HETATM    8  C7  UNL     1      47.495  16.054 -11.984  1.00  0.00     0.291 C 
ENDROOT
BRANCH   6   9
HETATM    9  N2  UNL     1      47.476  18.052 -14.825  1.00  0.00    -0.046 N 
ATOM     10  H22 UNL     1      46.665  18.404 -14.316  1.00  0.00     0.280 HD
ATOM     11  H21 UNL     1      48.047  18.897 -14.852  1.00  0.00     0.280 HD
BRANCH   9  12
HETATM   12  C3  UNL     1      47.103  17.666 -16.143  1.00  0.00     0.237 C 
BRANCH  12  13
HETATM   13  C4  UNL     1      48.256  17.888 -17.119  1.00  0.00     0.055 C 
BRANCH  13  14
HETATM   14  C5  UNL     1      48.138  16.914 -18.275  1.00  0.00     0.231 C 
BRANCH  14  15
HETATM   15  N3  UNL     1      49.466  16.781 -18.867  1.00  0.00    -0.079 N 
ATOM     16  H33 UNL     1      50.096  17.540 -18.607  1.00  0.00     0.274 HD
ATOM     17  H32 UNL     1      50.007  16.016 -18.465  1.00  0.00     0.274 HD
ATOM     18  H31 UNL     1      49.341  16.695 -19.876  1.00  0.00     0.274 HD
ENDBRANCH  14  15
ENDBRANCH  13  14
ENDBRANCH  12  13
ENDBRANCH   9  12
ENDBRANCH   6   9
BRANCH   7  19
HETATM   19  N4  UNL     1      47.805  18.396 -12.015  1.00  0.00    -0.068 N 
ATOM     20  H43 UNL     1      48.605  18.961 -11.730  1.00  0.00     0.275 HD
ATOM     21  H42 UNL     1      47.390  18.993 -12.730  1.00  0.00     0.275 HD
ATOM     22  H41 UNL     1      47.157  18.314 -11.230  1.00  0.00     0.275 HD
ENDBRANCH   7  19
BRANCH   8  23
HETATM   23  N5  UNL     1      48.306  15.372 -11.014  1.00  0.00    -0.066 N 
ATOM     24  H53 UNL     1      47.836  15.271 -10.115  1.00  0.00     0.275 HD
ATOM     25  H52 UNL     1      48.418  14.381 -11.227  1.00  0.00     0.275 HD
ATOM     26  H51 UNL     1      49.200  15.858 -10.936  1.00  0.00     0.275 HD
ENDBRANCH   8  23
TORSDOF 7
ENDMDL
