MODEL 1
REMARK VINA RESULT: -5.043440966      0.000      0.000
REMARK  3 active torsions:
REMARK  status: ('A' for Active; 'I' for Inactive)
REMARK    1  A    between atoms: C2_3  and  N2_4 
REMARK    2  A    between atoms: C4_7  and  C5_8 
REMARK    3  A    between atoms: N4_9  and  N5_11 
ROOT
HETATM    1  N1  UNL     1      81.751 -16.215  60.511  1.00  0.00    -0.196 NA
HETATM    2  C1  UNL     1      81.440 -15.756  61.528  1.00  0.00     0.080 C 
HETATM    3  C2  UNL     1      81.070 -15.175  62.828  1.00  0.00     0.272 C 
ENDROOT
BRANCH   3   4
HETATM    4  N2  UNL     1      82.146 -15.386  63.787  1.00  0.00    -0.155 N 
HETATM    5  C3  UNL     1      82.949 -14.401  64.233  1.00  0.00     0.164 A 
HETATM    6  N3  UNL     1      82.914 -13.025  63.878  1.00  0.00    -0.079 NA
HETATM    7  C4  UNL     1      83.858 -14.976  65.136  1.00  0.00     0.107 A 
HETATM    8  N6  UNL     1      83.568 -16.284  65.202  1.00  0.00    -0.187 N 
HETATM    9  C6  UNL     1      82.520 -16.534  64.374  1.00  0.00     0.680 A 
ATOM     10  H6  UNL     1      84.053 -16.974  65.776  1.00  0.00     0.184 HD
HETATM   11  N7  UNL     1      81.952 -17.676  64.165  1.00  0.00    -0.234 N 
ATOM     12  H72 UNL     1      81.165 -17.864  63.544  1.00  0.00     0.174 HD
ATOM     13  H71 UNL     1      82.236 -18.548  64.611  1.00  0.00     0.174 HD
BRANCH   7  14
HETATM   14  C5  UNL     1      84.900 -14.266  65.850  1.00  0.00     0.140 C 
HETATM   15  N4  UNL     1      84.766 -13.234  66.554  1.00  0.00    -0.316 N 
ATOM     16  H4  UNL     1      85.632 -12.892  66.971  1.00  0.00     0.185 HD
BRANCH  15  17
HETATM   17  N5  UNL     1      83.659 -12.487  66.857  1.00  0.00    -0.345 N 
ATOM     18  H52 UNL     1      83.828 -11.800  67.591  1.00  0.00     0.176 HD
ATOM     19  H51 UNL     1      82.712 -12.503  66.477  1.00  0.00     0.176 HD
ENDBRANCH  15  17
ENDBRANCH   7  14
ENDBRANCH   3   4
TORSDOF 3
ENDMDL
MODEL 2
REMARK VINA RESULT: -5.016041054      1.827      4.740
REMARK  3 active torsions:
REMARK  status: ('A' for Active; 'I' for Inactive)
REMARK    1  A    between atoms: C2_3  and  N2_4 
REMARK    2  A    between atoms: C4_7  and  C5_8 
REMARK    3  A    between atoms: N4_9  and  N5_11 
ROOT
HETATM    1  N1  UNL     1      84.612 -11.046  66.179  1.00  0.00    -0.196 NA
HETATM    2  C1  UNL     1      84.594 -12.114  66.629  1.00  0.00     0.080 C 
HETATM    3  C2  UNL     1      84.577 -13.479  67.176  1.00  0.00     0.272 C 
ENDROOT
BRANCH   3   4
HETATM    4  N2  UNL     1      84.596 -14.447  66.087  1.00  0.00    -0.155 N 
HETATM    5  C3  UNL     1      83.488 -14.878  65.456  1.00  0.00     0.164 A 
HETATM    6  N3  UNL     1      82.141 -14.497  65.707  1.00  0.00    -0.079 NA
HETATM    7  C4  UNL     1      83.893 -15.797  64.474  1.00  0.00     0.107 A 
HETATM    8  N6  UNL     1      85.230 -15.885  64.550  1.00  0.00    -0.187 N 
HETATM    9  C6  UNL     1      85.659 -15.058  65.540  1.00  0.00     0.680 A 
ATOM     10  H6  UNL     1      85.824 -16.473  63.965  1.00  0.00     0.184 HD
HETATM   11  N7  UNL     1      86.881 -14.866  65.916  1.00  0.00    -0.234 N 
ATOM     12  H72 UNL     1      87.203 -14.246  66.658  1.00  0.00     0.174 HD
ATOM     13  H71 UNL     1      87.688 -15.330  65.500  1.00  0.00     0.174 HD
BRANCH   7  14
HETATM   14  C5  UNL     1      83.014 -16.502  63.564  1.00  0.00     0.140 C 
HETATM   15  N4  UNL     1      82.114 -16.002  62.844  1.00  0.00    -0.316 N 
ATOM     16  H4  UNL     1      81.607 -16.678  62.272  1.00  0.00     0.185 HD
BRANCH  15  17
HETATM   17  N5  UNL     1      81.694 -14.707  62.694  1.00  0.00    -0.345 N 
ATOM     18  H52 UNL     1      80.920 -14.463  63.312  1.00  0.00     0.176 HD
ATOM     19  H51 UNL     1      82.021 -13.961  62.080  1.00  0.00     0.176 HD
ENDBRANCH  15  17
ENDBRANCH   7  14
ENDBRANCH   3   4
TORSDOF 3
ENDMDL
MODEL 3
REMARK VINA RESULT: -4.992450436      2.932      4.814
REMARK  3 active torsions:
REMARK  status: ('A' for Active; 'I' for Inactive)
REMARK    1  A    between atoms: C2_3  and  N2_4 
REMARK    2  A    between atoms: C4_7  and  C5_8 
REMARK    3  A    between atoms: N4_9  and  N5_11 
ROOT
HETATM    1  N1  UNL     1      79.555 -20.351  65.560  1.00  0.00    -0.196 NA
HETATM    2  C1  UNL     1      79.690 -20.193  64.421  1.00  0.00     0.080 C 
HETATM    3  C2  UNL     1      79.868 -19.966  62.978  1.00  0.00     0.272 C 
ENDROOT
BRANCH   3   4
HETATM    4  N2  UNL     1      79.952 -18.536  62.710  1.00  0.00    -0.155 N 
HETATM    5  C3  UNL     1      81.019 -17.781  63.033  1.00  0.00     0.164 A 
HETATM    6  N3  UNL     1      82.221 -18.201  63.667  1.00  0.00    -0.079 NA
HETATM    7  C4  UNL     1      80.743 -16.466  62.626  1.00  0.00     0.107 A 
HETATM    8  N6  UNL     1      79.520 -16.477  62.073  1.00  0.00    -0.187 N 
HETATM    9  C6  UNL     1      79.037 -17.747  62.127  1.00  0.00     0.680 A 
ATOM     10  H6  UNL     1      79.035 -15.670  61.680  1.00  0.00     0.184 HD
HETATM   11  N7  UNL     1      77.890 -18.159  61.695  1.00  0.00    -0.234 N 
ATOM     12  H72 UNL     1      77.528 -19.111  61.735  1.00  0.00     0.174 HD
ATOM     13  H71 UNL     1      77.195 -17.559  61.251  1.00  0.00     0.174 HD
BRANCH   7  14
HETATM   14  C5  UNL     1      81.628 -15.330  62.784  1.00  0.00     0.140 C 
HETATM   15  N4  UNL     1      82.250 -14.995  63.823  1.00  0.00    -0.316 N 
ATOM     16  H4  UNL     1      82.823 -14.157  63.720  1.00  0.00     0.185 HD
BRANCH  15  17
HETATM   17  N5  UNL     1      82.291 -15.559  65.070  1.00  0.00    -0.345 N 
ATOM     18  H52 UNL     1      81.857 -14.978  65.788  1.00  0.00     0.176 HD
ATOM     19  H51 UNL     1      82.676 -16.447  65.394  1.00  0.00     0.176 HD
ENDBRANCH  15  17
ENDBRANCH   7  14
ENDBRANCH   3   4
TORSDOF 3
ENDMDL
MODEL 4
REMARK VINA RESULT: -4.857457047      2.998      6.265
REMARK  3 active torsions:
REMARK  status: ('A' for Active; 'I' for Inactive)
REMARK    1  A    between atoms: C2_3  and  N2_4 
REMARK    2  A    between atoms: C4_7  and  C5_8 
REMARK    3  A    between atoms: N4_9  and  N5_11 
ROOT
HETATM    1  N1  UNL     1      82.503 -15.172  65.497  1.00  0.00    -0.196 NA
HETATM    2  C1  UNL     1      82.523 -16.062  64.756  1.00  0.00     0.080 C 
HETATM    3  C2  UNL     1      82.525 -17.185  63.805  1.00  0.00     0.272 C 
ENDROOT
BRANCH   3   4
HETATM    4  N2  UNL     1      81.200 -17.336  63.217  1.00  0.00    -0.155 N 
HETATM    5  C3  UNL     1      80.340 -18.311  63.566  1.00  0.00     0.164 A 
HETATM    6  N3  UNL     1      80.535 -19.340  64.529  1.00  0.00    -0.079 NA
HETATM    7  C4  UNL     1      79.177 -18.141  62.797  1.00  0.00     0.107 A 
HETATM    8  N6  UNL     1      79.380 -17.070  62.015  1.00  0.00    -0.187 N 
HETATM    9  C6  UNL     1      80.621 -16.579  62.273  1.00  0.00     0.680 A 
ATOM     10  H6  UNL     1      78.716 -16.690  61.340  1.00  0.00     0.184 HD
HETATM   11  N7  UNL     1      81.180 -15.553  61.720  1.00  0.00    -0.234 N 
ATOM     12  H72 UNL     1      82.110 -15.185  61.914  1.00  0.00     0.174 HD
ATOM     13  H71 UNL     1      80.739 -14.977  61.003  1.00  0.00     0.174 HD
BRANCH   7  14
HETATM   14  C5  UNL     1      77.995 -18.978  62.857  1.00  0.00     0.140 C 
HETATM   15  N4  UNL     1      77.939 -20.220  62.676  1.00  0.00    -0.316 N 
ATOM     16  H4  UNL     1      77.003 -20.617  62.764  1.00  0.00     0.185 HD
BRANCH  15  17
HETATM   17  N5  UNL     1      78.915 -21.133  62.380  1.00  0.00    -0.345 N 
ATOM     18  H52 UNL     1      78.881 -21.963  62.971  1.00  0.00     0.176 HD
ATOM     19  H51 UNL     1      79.657 -21.121  61.679  1.00  0.00     0.176 HD
ENDBRANCH  15  17
ENDBRANCH   7  14
ENDBRANCH   3   4
TORSDOF 3
ENDMDL
MODEL 5
REMARK VINA RESULT: -4.793805020      1.306      4.674
REMARK  3 active torsions:
REMARK  status: ('A' for Active; 'I' for Inactive)
REMARK    1  A    between atoms: C2_3  and  N2_4 
REMARK    2  A    between atoms: C4_7  and  C5_8 
REMARK    3  A    between atoms: N4_9  and  N5_11 
ROOT
HETATM    1  N1  UNL     1      83.938 -12.657  67.515  1.00  0.00    -0.196 NA
HETATM    2  C1  UNL     1      83.885 -12.831  66.370  1.00  0.00     0.080 C 
HETATM    3  C2  UNL     1      83.802 -13.073  64.922  1.00  0.00     0.272 C 
ENDROOT
BRANCH   3   4
HETATM    4  N2  UNL     1      83.235 -14.393  64.674  1.00  0.00    -0.155 N 
HETATM    5  C3  UNL     1      82.306 -14.637  63.730  1.00  0.00     0.164 A 
HETATM    6  N3  UNL     1      81.717 -13.708  62.829  1.00  0.00    -0.079 NA
HETATM    7  C4  UNL     1      82.003 -16.008  63.783  1.00  0.00     0.107 A 
HETATM    8  N6  UNL     1      82.761 -16.537  64.755  1.00  0.00    -0.187 N 
HETATM    9  C6  UNL     1      83.515 -15.546  65.300  1.00  0.00     0.680 A 
ATOM     10  H6  UNL     1      82.770 -17.518  65.037  1.00  0.00     0.184 HD
HETATM   11  N7  UNL     1      84.370 -15.662  66.263  1.00  0.00    -0.234 N 
ATOM     12  H72 UNL     1      84.935 -14.919  66.672  1.00  0.00     0.174 HD
ATOM     13  H71 UNL     1      84.583 -16.539  66.739  1.00  0.00     0.174 HD
BRANCH   7  14
HETATM   14  C5  UNL     1      81.049 -16.695  62.936  1.00  0.00     0.140 C 
HETATM   15  N4  UNL     1      80.999 -16.670  61.681  1.00  0.00    -0.316 N 
ATOM     16  H4  UNL     1      80.245 -17.227  61.278  1.00  0.00     0.185 HD
BRANCH  15  17
HETATM   17  N5  UNL     1      81.781 -16.026  60.759  1.00  0.00    -0.345 N 
ATOM     18  H52 UNL     1      82.767 -16.282  60.820  1.00  0.00     0.176 HD
ATOM     19  H51 UNL     1      81.546 -15.345  60.037  1.00  0.00     0.176 HD
ENDBRANCH  15  17
ENDBRANCH   7  14
ENDBRANCH   3   4
TORSDOF 3
ENDMDL
