MODEL 1
REMARK VINA RESULT: -5.309957390      0.000      0.000
REMARK  5 active torsions:
REMARK  status: ('A' for Active; 'I' for Inactive)
REMARK    1  A    between atoms: C2_3  and  N2_4 
REMARK    2  A    between atoms: C2_3  and  C3_8 
REMARK    3  A    between atoms: C3_8  and  N3_9 
REMARK    4  A    between atoms: C3_8  and  N4_13 
REMARK    5  A    between atoms: C4_14  and  O1_15 
ROOT
HETATM    1  N1  UNL     1      81.113 -14.685  62.572  1.00  0.00    -0.195 NA
HETATM    2  C1  UNL     1      81.864 -15.106  63.349  1.00  0.00     0.096 C 
HETATM    3  C2  UNL     1      82.771 -15.646  64.330  1.00  0.00     0.339 C 
ENDROOT
BRANCH   3   4
HETATM    4  N2  UNL     1      83.002 -17.072  64.040  1.00  0.00    -0.059 N 
ATOM      5  H23 UNL     1      83.370 -17.223  63.101  1.00  0.00     0.276 HD
ATOM      6  H22 UNL     1      83.789 -17.452  64.566  1.00  0.00     0.276 HD
ATOM      7  H21 UNL     1      82.139 -17.591  64.206  1.00  0.00     0.276 HD
ENDBRANCH   3   4
BRANCH   3   8
HETATM    8  C3  UNL     1      84.051 -14.933  64.492  1.00  0.00     0.351 C 
BRANCH   8   9
HETATM    9  N3  UNL     1      85.170 -15.812  64.185  1.00  0.00    -0.054 N 
ATOM     10  H33 UNL     1      84.858 -16.692  63.773  1.00  0.00     0.276 HD
ATOM     11  H32 UNL     1      85.721 -15.464  63.401  1.00  0.00     0.276 HD
ATOM     12  H31 UNL     1      85.744 -15.964  65.013  1.00  0.00     0.276 HD
ENDBRANCH   8   9
BRANCH   8  13
HETATM   13  N4  UNL     1      84.239 -14.174  65.703  1.00  0.00    -0.128 N 
HETATM   14  C4  UNL     1      83.744 -12.945  65.866  1.00  0.00     0.176 A 
HETATM   15  C5  UNL     1      84.114 -12.527  67.125  1.00  0.00     0.162 A 
HETATM   16  N5  UNL     1      84.817 -13.515  67.679  1.00  0.00    -0.198 N 
HETATM   17  C6  UNL     1      84.907 -14.554  66.808  1.00  0.00     0.681 A 
ATOM     18  H5  UNL     1      85.225 -13.493  68.613  1.00  0.00     0.183 HD
HETATM   19  N6  UNL     1      85.512 -15.685  67.052  1.00  0.00    -0.234 N 
ATOM     20  H62 UNL     1      85.579 -16.465  66.398  1.00  0.00     0.174 HD
ATOM     21  H61 UNL     1      86.018 -15.974  67.889  1.00  0.00     0.174 HD
BRANCH  14  22
HETATM   22  O1  UNL     1      82.988 -12.128  65.027  1.00  0.00    -0.344 OA
ATOM     23  H1  UNL     1      82.241 -11.566  65.194  1.00  0.00     0.219 HD
ENDBRANCH  14  22
ENDBRANCH   8  13
ENDBRANCH   3   8
TORSDOF 5
ENDMDL
MODEL 2
REMARK VINA RESULT: -5.218110185      4.462      6.120
REMARK  5 active torsions:
REMARK  status: ('A' for Active; 'I' for Inactive)
REMARK    1  A    between atoms: C2_3  and  N2_4 
REMARK    2  A    between atoms: C2_3  and  C3_8 
REMARK    3  A    between atoms: C3_8  and  N3_9 
REMARK    4  A    between atoms: C3_8  and  N4_13 
REMARK    5  A    between atoms: C4_14  and  O1_15 
ROOT
HETATM    1  N1  UNL     1      79.605 -20.246  65.322  1.00  0.00    -0.195 NA
HETATM    2  C1  UNL     1      79.670 -19.671  64.317  1.00  0.00     0.096 C 
HETATM    3  C2  UNL     1      79.725 -18.977  63.055  1.00  0.00     0.339 C 
ENDROOT
BRANCH   3   4
HETATM    4  N2  UNL     1      78.532 -18.123  62.921  1.00  0.00    -0.059 N 
ATOM      5  H23 UNL     1      77.665 -18.647  63.040  1.00  0.00     0.276 HD
ATOM      6  H22 UNL     1      78.423 -17.483  63.708  1.00  0.00     0.276 HD
ATOM      7  H21 UNL     1      78.569 -17.635  62.025  1.00  0.00     0.276 HD
ENDBRANCH   3   4
BRANCH   3   8
HETATM    8  C3  UNL     1      80.953 -18.203  62.794  1.00  0.00     0.351 C 
BRANCH   8   9
HETATM    9  N3  UNL     1      81.753 -18.089  64.004  1.00  0.00    -0.054 N 
ATOM     10  H33 UNL     1      82.747 -17.996  63.793  1.00  0.00     0.276 HD
ATOM     11  H32 UNL     1      81.611 -17.193  64.469  1.00  0.00     0.276 HD
ATOM     12  H31 UNL     1      81.571 -18.873  64.630  1.00  0.00     0.276 HD
ENDBRANCH   8   9
BRANCH   8  13
HETATM   13  N4  UNL     1      80.813 -16.956  62.084  1.00  0.00    -0.128 N 
HETATM   14  C4  UNL     1      80.944 -15.770  62.680  1.00  0.00     0.176 A 
HETATM   15  C5  UNL     1      80.745 -14.810  61.713  1.00  0.00     0.162 A 
HETATM   16  N5  UNL     1      80.502 -15.447  60.568  1.00  0.00    -0.198 N 
HETATM   17  C6  UNL     1      80.540 -16.789  60.776  1.00  0.00     0.681 A 
ATOM     18  H5  UNL     1      80.316 -14.996  59.672  1.00  0.00     0.183 HD
HETATM   19  N6  UNL     1      80.365 -17.696  59.852  1.00  0.00    -0.234 N 
ATOM     20  H62 UNL     1      80.394 -18.703  60.009  1.00  0.00     0.174 HD
ATOM     21  H61 UNL     1      80.159 -17.569  58.862  1.00  0.00     0.174 HD
BRANCH  14  22
HETATM   22  O1  UNL     1      81.224 -15.418  64.000  1.00  0.00    -0.344 OA
ATOM     23  H1  UNL     1      80.660 -15.176  64.725  1.00  0.00     0.219 HD
ENDBRANCH  14  22
ENDBRANCH   8  13
ENDBRANCH   3   8
TORSDOF 5
ENDMDL
MODEL 3
REMARK VINA RESULT: -5.200611249      4.929      6.716
REMARK  5 active torsions:
REMARK  status: ('A' for Active; 'I' for Inactive)
REMARK    1  A    between atoms: C2_3  and  N2_4 
REMARK    2  A    between atoms: C2_3  and  C3_8 
REMARK    3  A    between atoms: C3_8  and  N3_9 
REMARK    4  A    between atoms: C3_8  and  N4_13 
REMARK    5  A    between atoms: C4_14  and  O1_15 
ROOT
HETATM    1  N1  UNL     1      79.625 -20.460  65.669  1.00  0.00    -0.195 NA
HETATM    2  C1  UNL     1      79.769 -20.064  64.589  1.00  0.00     0.096 C 
HETATM    3  C2  UNL     1      79.970 -19.597  63.240  1.00  0.00     0.339 C 
ENDROOT
BRANCH   3   4
HETATM    4  N2  UNL     1      79.369 -20.559  62.300  1.00  0.00    -0.059 N 
ATOM      5  H23 UNL     1      80.028 -21.282  62.011  1.00  0.00     0.276 HD
ATOM      6  H22 UNL     1      78.682 -21.163  62.751  1.00  0.00     0.276 HD
ATOM      7  H21 UNL     1      78.978 -20.051  61.506  1.00  0.00     0.276 HD
ENDBRANCH   3   4
BRANCH   3   8
HETATM    8  C3  UNL     1      79.507 -18.227  62.952  1.00  0.00     0.351 C 
BRANCH   8   9
HETATM    9  N3  UNL     1      78.111 -18.235  62.538  1.00  0.00    -0.054 N 
ATOM     10  H33 UNL     1      77.503 -18.616  63.263  1.00  0.00     0.276 HD
ATOM     11  H32 UNL     1      77.724 -17.293  62.494  1.00  0.00     0.276 HD
ATOM     12  H31 UNL     1      78.003 -18.731  61.654  1.00  0.00     0.276 HD
ENDBRANCH   8   9
BRANCH   8  13
HETATM   13  N4  UNL     1      80.345 -17.405  62.115  1.00  0.00    -0.128 N 
HETATM   14  C4  UNL     1      80.477 -17.614  60.804  1.00  0.00     0.176 A 
HETATM   15  C5  UNL     1      81.346 -16.656  60.330  1.00  0.00     0.162 A 
HETATM   16  N5  UNL     1      81.707 -15.902  61.369  1.00  0.00    -0.198 N 
HETATM   17  C6  UNL     1      81.093 -16.352  62.494  1.00  0.00     0.681 A 
ATOM     18  H5  UNL     1      82.346 -15.108  61.325  1.00  0.00     0.183 HD
HETATM   19  N6  UNL     1      81.217 -15.819  63.680  1.00  0.00    -0.234 N 
ATOM     20  H62 UNL     1      80.756 -16.157  64.524  1.00  0.00     0.174 HD
ATOM     21  H61 UNL     1      81.783 -15.020  63.967  1.00  0.00     0.174 HD
BRANCH  14  22
HETATM   22  O1  UNL     1      79.916 -18.563  59.952  1.00  0.00    -0.344 OA
ATOM     23  H1  UNL     1      79.183 -18.519  59.349  1.00  0.00     0.219 HD
ENDBRANCH  14  22
ENDBRANCH   8  13
ENDBRANCH   3   8
TORSDOF 5
ENDMDL
MODEL 4
REMARK VINA RESULT: -4.945890649      3.216      6.095
REMARK  5 active torsions:
REMARK  status: ('A' for Active; 'I' for Inactive)
REMARK    1  A    between atoms: C2_3  and  N2_4 
REMARK    2  A    between atoms: C2_3  and  C3_8 
REMARK    3  A    between atoms: C3_8  and  N3_9 
REMARK    4  A    between atoms: C3_8  and  N4_13 
REMARK    5  A    between atoms: C4_14  and  O1_15 
ROOT
HETATM    1  N1  UNL     1      82.674 -14.777  65.540  1.00  0.00    -0.195 NA
HETATM    2  C1  UNL     1      82.492 -15.330  64.537  1.00  0.00     0.096 C 
HETATM    3  C2  UNL     1      82.299 -16.024  63.289  1.00  0.00     0.339 C 
ENDROOT
BRANCH   3   4
HETATM    4  N2  UNL     1      82.469 -17.471  63.509  1.00  0.00    -0.059 N 
ATOM      5  H23 UNL     1      83.450 -17.750  63.512  1.00  0.00     0.276 HD
ATOM      6  H22 UNL     1      82.238 -17.747  64.464  1.00  0.00     0.276 HD
ATOM      7  H21 UNL     1      81.923 -17.982  62.815  1.00  0.00     0.276 HD
ENDBRANCH   3   4
BRANCH   3   8
HETATM    8  C3  UNL     1      81.035 -15.749  62.582  1.00  0.00     0.351 C 
BRANCH   8   9
HETATM    9  N3  UNL     1      80.036 -16.757  62.907  1.00  0.00    -0.054 N 
ATOM     10  H33 UNL     1      80.203 -17.173  63.824  1.00  0.00     0.276 HD
ATOM     11  H32 UNL     1      79.124 -16.341  63.091  1.00  0.00     0.276 HD
ATOM     12  H31 UNL     1      79.989 -17.464  62.174  1.00  0.00     0.276 HD
ENDBRANCH   8   9
BRANCH   8  13
HETATM   13  N4  UNL     1      81.113 -15.458  61.172  1.00  0.00    -0.128 N 
HETATM   14  C4  UNL     1      81.352 -16.398  60.256  1.00  0.00     0.176 A 
HETATM   15  C5  UNL     1      81.361 -15.771  59.030  1.00  0.00     0.162 A 
HETATM   16  N5  UNL     1      81.126 -14.476  59.246  1.00  0.00    -0.198 N 
HETATM   17  C6  UNL     1      80.967 -14.259  60.578  1.00  0.00     0.681 A 
ATOM     18  H5  UNL     1      81.074 -13.759  58.523  1.00  0.00     0.183 HD
HETATM   19  N6  UNL     1      80.703 -13.101  61.122  1.00  0.00    -0.234 N 
ATOM     20  H62 UNL     1      80.583 -12.938  62.122  1.00  0.00     0.174 HD
ATOM     21  H61 UNL     1      80.592 -12.192  60.672  1.00  0.00     0.174 HD
BRANCH  14  22
HETATM   22  O1  UNL     1      81.568 -17.771  60.366  1.00  0.00    -0.344 OA
ATOM     23  H1  UNL     1      81.764 -18.436  59.716  1.00  0.00     0.219 HD
ENDBRANCH  14  22
ENDBRANCH   8  13
ENDBRANCH   3   8
TORSDOF 5
ENDMDL
MODEL 5
REMARK VINA RESULT: -4.920367618      6.315      7.471
REMARK  5 active torsions:
REMARK  status: ('A' for Active; 'I' for Inactive)
REMARK    1  A    between atoms: C2_3  and  N2_4 
REMARK    2  A    between atoms: C2_3  and  C3_8 
REMARK    3  A    between atoms: C3_8  and  N3_9 
REMARK    4  A    between atoms: C3_8  and  N4_13 
REMARK    5  A    between atoms: C4_14  and  O1_15 
ROOT
HETATM    1  N1  UNL     1      79.236 -17.765  58.485  1.00  0.00    -0.195 NA
HETATM    2  C1  UNL     1      79.631 -18.131  59.511  1.00  0.00     0.096 C 
HETATM    3  C2  UNL     1      80.149 -18.602  60.772  1.00  0.00     0.339 C 
ENDROOT
BRANCH   3   4
HETATM    4  N2  UNL     1      81.369 -17.846  61.106  1.00  0.00    -0.059 N 
ATOM      5  H23 UNL     1      82.137 -18.047  60.466  1.00  0.00     0.276 HD
ATOM      6  H22 UNL     1      81.273 -16.850  60.908  1.00  0.00     0.276 HD
ATOM      7  H21 UNL     1      81.617 -18.026  62.079  1.00  0.00     0.276 HD
ENDBRANCH   3   4
BRANCH   3   8
HETATM    8  C3  UNL     1      79.205 -18.598  61.903  1.00  0.00     0.351 C 
BRANCH   8   9
HETATM    9  N3  UNL     1      78.987 -17.240  62.382  1.00  0.00    -0.054 N 
ATOM     10  H33 UNL     1      78.728 -17.224  63.369  1.00  0.00     0.276 HD
ATOM     11  H32 UNL     1      79.859 -16.716  62.444  1.00  0.00     0.276 HD
ATOM     12  H31 UNL     1      78.298 -16.762  61.802  1.00  0.00     0.276 HD
ENDBRANCH   8   9
BRANCH   8  13
HETATM   13  N4  UNL     1      79.436 -19.546  62.964  1.00  0.00    -0.128 N 
HETATM   14  C4  UNL     1      80.246 -19.290  63.994  1.00  0.00     0.176 A 
HETATM   15  C5  UNL     1      80.232 -20.405  64.802  1.00  0.00     0.162 A 
HETATM   16  N5  UNL     1      79.414 -21.293  64.237  1.00  0.00    -0.198 N 
HETATM   17  C6  UNL     1      78.906 -20.777  63.088  1.00  0.00     0.681 A 
ATOM     18  H5  UNL     1      79.204 -22.219  64.610  1.00  0.00     0.183 HD
HETATM   19  N6  UNL     1      78.055 -21.385  62.305  1.00  0.00    -0.234 N 
ATOM     20  H62 UNL     1      77.673 -20.997  61.443  1.00  0.00     0.174 HD
ATOM     21  H61 UNL     1      77.653 -22.318  62.398  1.00  0.00     0.174 HD
BRANCH  14  22
HETATM   22  O1  UNL     1      81.014 -18.173  64.318  1.00  0.00    -0.344 OA
ATOM     23  H1  UNL     1      81.833 -17.843  63.968  1.00  0.00     0.219 HD
ENDBRANCH  14  22
ENDBRANCH   8  13
ENDBRANCH   3   8
TORSDOF 5
ENDMDL
