MODEL 1
REMARK VINA RESULT: -6.209048264      0.000      0.000
REMARK  4 active torsions:
REMARK  status: ('A' for Active; 'I' for Inactive)
REMARK    1  A    between atoms: C3_11  and  S1_12 
REMARK    2  A    between atoms: S1_12  and  C4_13 
REMARK    3  A    between atoms: C4_13  and  C5_14 
REMARK    4  A    between atoms: C5_14  and  N5_15 
ROOT
HETATM    1  N1  UNL     1      87.097 -15.699  65.570  1.00  0.00    -0.234 N 
ATOM      2  H11 UNL     1      87.325 -16.401  64.866  1.00  0.00     0.174 HD
ATOM      3  H12 UNL     1      87.845 -15.452  66.217  1.00  0.00     0.174 HD
HETATM    4  C1  UNL     1      85.948 -15.127  65.678  1.00  0.00     0.680 A 
HETATM    5  N2  UNL     1      85.648 -14.203  66.603  1.00  0.00    -0.163 N 
ATOM      6  H2  UNL     1      86.371 -13.931  67.270  1.00  0.00     0.187 HD
HETATM    7  C2  UNL     1      84.434 -13.614  66.694  1.00  0.00     0.208 A 
HETATM    8  N3  UNL     1      84.161 -12.638  67.692  1.00  0.00    -0.063 NA
HETATM    9  N4  UNL     1      83.473 -13.979  65.806  1.00  0.00    -0.310 N 
ATOM     10  H4  UNL     1      82.549 -13.550  65.855  1.00  0.00     0.170 HD
HETATM   11  C3  UNL     1      83.733 -14.902  64.864  1.00  0.00     0.161 A 
HETATM   12  N6  UNL     1      84.954 -15.453  64.818  1.00  0.00    -0.170 N 
ATOM     13  H6  UNL     1      85.144 -16.153  64.101  1.00  0.00     0.186 HD
ENDROOT
BRANCH  11  14
HETATM   14  S1  UNL     1      82.423 -15.325  63.744  1.00  0.00    -0.092 SA
BRANCH  14  15
HETATM   15  C4  UNL     1      81.817 -16.995  63.971  1.00  0.00     0.109 C 
BRANCH  15  16
HETATM   16  C5  UNL     1      80.725 -17.363  62.990  1.00  0.00     0.240 C 
BRANCH  16  17
HETATM   17  N5  UNL     1      80.181 -16.147  62.409  1.00  0.00    -0.079 N 
ATOM     18  H53 UNL     1      80.832 -15.364  62.468  1.00  0.00     0.274 HD
ATOM     19  H52 UNL     1      80.112 -16.200  61.393  1.00  0.00     0.274 HD
ATOM     20  H51 UNL     1      79.285 -15.940  62.849  1.00  0.00     0.274 HD
ENDBRANCH  16  17
ENDBRANCH  15  16
ENDBRANCH  14  15
ENDBRANCH  11  14
TORSDOF 4
ENDMDL
MODEL 2
REMARK VINA RESULT: -6.189191233      1.021      1.021
REMARK  4 active torsions:
REMARK  status: ('A' for Active; 'I' for Inactive)
REMARK    1  A    between atoms: C3_11  and  S1_12 
REMARK    2  A    between atoms: S1_12  and  C4_13 
REMARK    3  A    between atoms: C4_13  and  C5_14 
REMARK    4  A    between atoms: C5_14  and  N5_15 
ROOT
HETATM    1  N1  UNL     1      87.163 -15.649  65.605  1.00  0.00    -0.234 N 
ATOM      2  H11 UNL     1      87.409 -16.365  64.920  1.00  0.00     0.174 HD
ATOM      3  H12 UNL     1      87.910 -15.355  66.234  1.00  0.00     0.174 HD
HETATM    4  C1  UNL     1      85.995 -15.117  65.711  1.00  0.00     0.680 A 
HETATM    5  N2  UNL     1      85.673 -14.176  66.611  1.00  0.00    -0.163 N 
ATOM      6  H2  UNL     1      86.394 -13.857  67.259  1.00  0.00     0.187 HD
HETATM    7  C2  UNL     1      84.439 -13.630  66.701  1.00  0.00     0.208 A 
HETATM    8  N3  UNL     1      84.143 -12.634  67.672  1.00  0.00    -0.063 NA
HETATM    9  N4  UNL     1      83.481 -14.058  65.838  1.00  0.00    -0.310 N 
ATOM     10  H4  UNL     1      82.542 -13.662  65.887  1.00  0.00     0.170 HD
HETATM   11  C3  UNL     1      83.763 -15.000  64.921  1.00  0.00     0.161 A 
HETATM   12  N6  UNL     1      85.004 -15.507  64.876  1.00  0.00    -0.170 N 
ATOM     13  H6  UNL     1      85.210 -16.221  64.178  1.00  0.00     0.186 HD
ENDROOT
BRANCH  11  14
HETATM   14  S1  UNL     1      82.456 -15.506  63.834  1.00  0.00    -0.092 SA
BRANCH  14  15
HETATM   15  C4  UNL     1      82.311 -17.286  63.690  1.00  0.00     0.109 C 
BRANCH  15  16
HETATM   16  C5  UNL     1      80.882 -17.745  63.494  1.00  0.00     0.240 C 
BRANCH  16  17
HETATM   17  N5  UNL     1      80.731 -19.076  64.057  1.00  0.00    -0.079 N 
ATOM     18  H53 UNL     1      81.117 -19.800  63.451  1.00  0.00     0.274 HD
ATOM     19  H52 UNL     1      81.336 -19.227  64.864  1.00  0.00     0.274 HD
ATOM     20  H51 UNL     1      79.747 -19.235  64.274  1.00  0.00     0.274 HD
ENDBRANCH  16  17
ENDBRANCH  15  16
ENDBRANCH  14  15
ENDBRANCH  11  14
TORSDOF 4
ENDMDL
MODEL 3
REMARK VINA RESULT: -5.669782961      2.037      5.614
REMARK  4 active torsions:
REMARK  status: ('A' for Active; 'I' for Inactive)
REMARK    1  A    between atoms: C3_11  and  S1_12 
REMARK    2  A    between atoms: S1_12  and  C4_13 
REMARK    3  A    between atoms: C4_13  and  C5_14 
REMARK    4  A    between atoms: C5_14  and  N5_15 
ROOT
HETATM    1  N1  UNL     1      80.628 -14.718  61.562  1.00  0.00    -0.234 N 
ATOM      2  H11 UNL     1      80.924 -13.780  61.288  1.00  0.00     0.174 HD
ATOM      3  H12 UNL     1      79.867 -15.125  61.019  1.00  0.00     0.174 HD
HETATM    4  C1  UNL     1      81.151 -15.390  62.528  1.00  0.00     0.680 A 
HETATM    5  N2  UNL     1      80.762 -16.623  62.887  1.00  0.00    -0.163 N 
ATOM      6  H2  UNL     1      80.002 -17.063  62.369  1.00  0.00     0.187 HD
HETATM    7  C2  UNL     1      81.330 -17.309  63.904  1.00  0.00     0.208 A 
HETATM    8  N3  UNL     1      80.885 -18.616  64.251  1.00  0.00    -0.063 NA
HETATM    9  N4  UNL     1      82.341 -16.721  64.595  1.00  0.00    -0.310 N 
ATOM     10  H4  UNL     1      82.785 -17.219  65.367  1.00  0.00     0.170 HD
HETATM   11  C3  UNL     1      82.760 -15.486  64.266  1.00  0.00     0.161 A 
HETATM   12  N6  UNL     1      82.162 -14.850  63.248  1.00  0.00    -0.170 N 
ATOM     13  H6  UNL     1      82.485 -13.914  63.005  1.00  0.00     0.186 HD
ENDROOT
BRANCH  11  14
HETATM   14  S1  UNL     1      84.083 -14.787  65.218  1.00  0.00    -0.092 SA
BRANCH  14  15
HETATM   15  C4  UNL     1      83.848 -13.048  65.578  1.00  0.00     0.109 C 
BRANCH  15  16
HETATM   16  C5  UNL     1      84.128 -12.703  67.024  1.00  0.00     0.240 C 
BRANCH  16  17
HETATM   17  N5  UNL     1      84.751 -13.845  67.671  1.00  0.00    -0.079 N 
ATOM     18  H53 UNL     1      84.173 -14.232  68.417  1.00  0.00     0.274 HD
ATOM     19  H52 UNL     1      84.776 -14.667  67.068  1.00  0.00     0.274 HD
ATOM     20  H51 UNL     1      85.679 -13.577  67.998  1.00  0.00     0.274 HD
ENDBRANCH  16  17
ENDBRANCH  15  16
ENDBRANCH  14  15
ENDBRANCH  11  14
TORSDOF 4
ENDMDL
MODEL 4
REMARK VINA RESULT: -5.652878690      2.023      5.419
REMARK  4 active torsions:
REMARK  status: ('A' for Active; 'I' for Inactive)
REMARK    1  A    between atoms: C3_11  and  S1_12 
REMARK    2  A    between atoms: S1_12  and  C4_13 
REMARK    3  A    between atoms: C4_13  and  C5_14 
REMARK    4  A    between atoms: C5_14  and  N5_15 
ROOT
HETATM    1  N1  UNL     1      81.022 -18.647  64.003  1.00  0.00    -0.234 N 
ATOM      2  H11 UNL     1      81.490 -19.254  64.676  1.00  0.00     0.174 HD
ATOM      3  H12 UNL     1      80.247 -19.062  63.486  1.00  0.00     0.174 HD
HETATM    4  C1  UNL     1      81.353 -17.422  63.779  1.00  0.00     0.680 A 
HETATM    5  N2  UNL     1      80.737 -16.624  62.894  1.00  0.00    -0.163 N 
ATOM      6  H2  UNL     1      79.958 -17.004  62.357  1.00  0.00     0.187 HD
HETATM    7  C2  UNL     1      81.102 -15.339  62.680  1.00  0.00     0.208 A 
HETATM    8  N3  UNL     1      80.419 -14.529  61.730  1.00  0.00    -0.063 NA
HETATM    9  N4  UNL     1      82.141 -14.836  63.394  1.00  0.00    -0.310 N 
ATOM     10  H4  UNL     1      82.435 -13.870  63.250  1.00  0.00     0.170 HD
HETATM   11  C3  UNL     1      82.785 -15.604  64.291  1.00  0.00     0.161 A 
HETATM   12  N6  UNL     1      82.382 -16.871  64.464  1.00  0.00    -0.170 N 
ATOM     13  H6  UNL     1      82.875 -17.448  65.146  1.00  0.00     0.186 HD
ENDROOT
BRANCH  11  14
HETATM   14  S1  UNL     1      84.133 -14.873  65.182  1.00  0.00    -0.092 SA
BRANCH  14  15
HETATM   15  C4  UNL     1      83.902 -13.123  65.493  1.00  0.00     0.109 C 
BRANCH  15  16
HETATM   16  C5  UNL     1      84.056 -12.761  66.954  1.00  0.00     0.240 C 
BRANCH  16  17
HETATM   17  N5  UNL     1      84.757 -13.835  67.637  1.00  0.00    -0.079 N 
ATOM     18  H53 UNL     1      85.674 -14.020  67.231  1.00  0.00     0.274 HD
ATOM     19  H52 UNL     1      85.066 -13.564  68.571  1.00  0.00     0.274 HD
ATOM     20  H51 UNL     1      84.164 -14.664  67.650  1.00  0.00     0.274 HD
ENDBRANCH  16  17
ENDBRANCH  15  16
ENDBRANCH  14  15
ENDBRANCH  11  14
TORSDOF 4
ENDMDL
MODEL 5
REMARK VINA RESULT: -5.492662360      0.386      2.352
REMARK  4 active torsions:
REMARK  status: ('A' for Active; 'I' for Inactive)
REMARK    1  A    between atoms: C3_11  and  S1_12 
REMARK    2  A    between atoms: S1_12  and  C4_13 
REMARK    3  A    between atoms: C4_13  and  C5_14 
REMARK    4  A    between atoms: C5_14  and  N5_15 
ROOT
HETATM    1  N1  UNL     1      84.487 -12.197  67.008  1.00  0.00    -0.234 N 
ATOM      2  H11 UNL     1      83.671 -11.583  66.994  1.00  0.00     0.174 HD
ATOM      3  H12 UNL     1      85.256 -11.908  67.613  1.00  0.00     0.174 HD
HETATM    4  C1  UNL     1      84.590 -13.282  66.321  1.00  0.00     0.680 A 
HETATM    5  N2  UNL     1      85.661 -14.088  66.340  1.00  0.00    -0.163 N 
ATOM      6  H2  UNL     1      86.452 -13.832  66.932  1.00  0.00     0.187 HD
HETATM    7  C2  UNL     1      85.744 -15.224  65.612  1.00  0.00     0.208 A 
HETATM    8  N3  UNL     1      86.901 -16.050  65.663  1.00  0.00    -0.063 NA
HETATM    9  N4  UNL     1      84.691 -15.562  64.823  1.00  0.00    -0.310 N 
ATOM     10  H4  UNL     1      84.730 -16.414  64.263  1.00  0.00     0.170 HD
HETATM   11  C3  UNL     1      83.598 -14.779  64.775  1.00  0.00     0.161 A 
HETATM   12  N6  UNL     1      83.569 -13.665  65.519  1.00  0.00    -0.170 N 
ATOM     13  H6  UNL     1      82.737 -13.076  65.477  1.00  0.00     0.186 HD
ENDROOT
BRANCH  11  14
HETATM   14  S1  UNL     1      82.268 -15.290  63.718  1.00  0.00    -0.092 SA
BRANCH  14  15
HETATM   15  C4  UNL     1      81.784 -16.996  63.972  1.00  0.00     0.109 C 
BRANCH  15  16
HETATM   16  C5  UNL     1      80.823 -17.498  62.917  1.00  0.00     0.240 C 
BRANCH  16  17
HETATM   17  N5  UNL     1      80.064 -16.374  62.395  1.00  0.00    -0.079 N 
ATOM     18  H53 UNL     1      79.828 -16.490  61.410  1.00  0.00     0.274 HD
ATOM     19  H52 UNL     1      79.115 -16.341  62.767  1.00  0.00     0.274 HD
ATOM     20  H51 UNL     1      80.580 -15.513  62.572  1.00  0.00     0.274 HD
ENDBRANCH  16  17
ENDBRANCH  15  16
ENDBRANCH  14  15
ENDBRANCH  11  14
TORSDOF 4
ENDMDL
