MODEL 1
REMARK VINA RESULT: -7.936606037      0.000      0.000
REMARK  13 active torsions:
REMARK  status: ('A' for Active; 'I' for Inactive)
REMARK    1  A    between atoms: C2_2  and  C3_3 
REMARK    2  A    between atoms: C3_3  and  C4_4 
REMARK    3  A    between atoms: C4_4  and  C5_5 
REMARK    4  A    between atoms: C5_5  and  C6_6 
REMARK    5  A    between atoms: C6_6  and  C7_7 
REMARK    6  A    between atoms: C7_7  and  C8_8 
REMARK    7  A    between atoms: C9_9  and  C10_10 
REMARK    8  A    between atoms: C10_10  and  C11_11 
REMARK    9  A    between atoms: C11_11  and  C12_12 
REMARK   10  A    between atoms: C12_12  and  C13_13 
REMARK   11  A    between atoms: C13_13  and  C14_14 
REMARK   12  A    between atoms: C14_14  and  C15_15 
REMARK   13  A    between atoms: C15_15  and  N1_16 
ROOT
HETATM    1  C12 UNL     1      33.311  30.632  12.717  1.00  0.00     0.000 C 
ENDROOT
BRANCH   1   2
HETATM    2  C11 UNL     1      33.757  32.066  12.836  1.00  0.00     0.004 C 
BRANCH   2   3
HETATM    3  C10 UNL     1      32.679  32.848  13.598  1.00  0.00     0.027 C 
BRANCH   3   4
HETATM    4  C9  UNL     1      32.288  33.951  12.701  1.00  0.00    -0.031 C 
HETATM    5  C8  UNL     1      31.899  35.126  13.111  1.00  0.00    -0.031 C 
BRANCH   5   6
HETATM    6  C7  UNL     1      31.795  35.512  14.519  1.00  0.00     0.027 C 
BRANCH   6   7
HETATM    7  C6  UNL     1      31.948  37.018  14.637  1.00  0.00     0.004 C 
BRANCH   7   8
HETATM    8  C5  UNL     1      33.394  37.374  14.421  1.00  0.00     0.000 C 
BRANCH   8   9
HETATM    9  C4  UNL     1      33.488  38.703  13.655  1.00  0.00     0.000 C 
BRANCH   9  10
HETATM   10  C3  UNL     1      32.970  39.781  14.549  1.00  0.00    -0.000 C 
BRANCH  10  11
HETATM   11  C2  UNL     1      33.955  40.229  15.578  1.00  0.00    -0.005 C 
HETATM   12  C1  UNL     1      33.770  41.681  15.937  1.00  0.00     0.005 C 
ENDBRANCH  10  11
ENDBRANCH   9  10
ENDBRANCH   8   9
ENDBRANCH   7   8
ENDBRANCH   6   7
ENDBRANCH   5   6
ENDBRANCH   3   4
ENDBRANCH   2   3
ENDBRANCH   1   2
BRANCH   1  13
HETATM   13  C13 UNL     1      32.223  30.378  13.724  1.00  0.00     0.002 C 
BRANCH  13  14
HETATM   14  C14 UNL     1      31.442  29.164  13.341  1.00  0.00     0.020 C 
BRANCH  14  15
HETATM   15  C15 UNL     1      30.012  29.227  13.869  1.00  0.00     0.126 C 
BRANCH  15  16
HETATM   16  N1  UNL     1      29.944  29.071  15.309  1.00  0.00    -0.350 N 
HETATM   17  C16 UNL     1      30.411  27.856  15.961  1.00  0.00     0.140 C 
HETATM   18  C17 UNL     1      31.279  28.176  17.180  1.00  0.00     0.160 C 
HETATM   19  S1  UNL     1      30.216  28.970  18.362  1.00  0.00     0.154 S 
HETATM   20  O1  UNL     1      29.636  27.957  19.278  1.00  0.00    -0.227 OA
HETATM   21  O2  UNL     1      31.019  30.021  19.053  1.00  0.00    -0.227 OA
HETATM   22  C18 UNL     1      28.879  29.796  17.493  1.00  0.00     0.243 C 
HETATM   23  C19 UNL     1      29.420  30.098  16.141  1.00  0.00     0.233 C 
HETATM   24  O3  UNL     1      29.421  31.278  15.713  1.00  0.00    -0.272 OA
ENDBRANCH  15  16
ENDBRANCH  14  15
ENDBRANCH  13  14
ENDBRANCH   1  13
TORSDOF 13
ENDMDL
MODEL 2
REMARK VINA RESULT: -7.700680770      2.049      2.598
REMARK  13 active torsions:
REMARK  status: ('A' for Active; 'I' for Inactive)
REMARK    1  A    between atoms: C2_2  and  C3_3 
REMARK    2  A    between atoms: C3_3  and  C4_4 
REMARK    3  A    between atoms: C4_4  and  C5_5 
REMARK    4  A    between atoms: C5_5  and  C6_6 
REMARK    5  A    between atoms: C6_6  and  C7_7 
REMARK    6  A    between atoms: C7_7  and  C8_8 
REMARK    7  A    between atoms: C9_9  and  C10_10 
REMARK    8  A    between atoms: C10_10  and  C11_11 
REMARK    9  A    between atoms: C11_11  and  C12_12 
REMARK   10  A    between atoms: C12_12  and  C13_13 
REMARK   11  A    between atoms: C13_13  and  C14_14 
REMARK   12  A    between atoms: C14_14  and  C15_15 
REMARK   13  A    between atoms: C15_15  and  N1_16 
ROOT
HETATM    1  C12 UNL     1      32.498  32.069  14.045  1.00  0.00     0.000 C 
ENDROOT
BRANCH   1   2
HETATM    2  C11 UNL     1      32.662  33.256  13.132  1.00  0.00     0.004 C 
BRANCH   2   3
HETATM    3  C10 UNL     1      31.458  34.187  13.327  1.00  0.00     0.027 C 
BRANCH   3   4
HETATM    4  C9  UNL     1      31.754  35.385  12.518  1.00  0.00    -0.031 C 
HETATM    5  C8  UNL     1      32.322  36.461  12.986  1.00  0.00    -0.031 C 
BRANCH   5   6
HETATM    6  C7  UNL     1      32.743  36.632  14.376  1.00  0.00     0.027 C 
BRANCH   6   7
HETATM    7  C6  UNL     1      33.767  37.750  14.456  1.00  0.00     0.004 C 
BRANCH   7   8
HETATM    8  C5  UNL     1      33.338  38.864  13.541  1.00  0.00     0.000 C 
BRANCH   8   9
HETATM    9  C4  UNL     1      33.057  40.130  14.366  1.00  0.00     0.000 C 
BRANCH   9  10
HETATM   10  C3  UNL     1      33.945  40.097  15.565  1.00  0.00    -0.000 C 
BRANCH  10  11
HETATM   11  C2  UNL     1      34.137  41.433  16.203  1.00  0.00    -0.005 C 
HETATM   12  C1  UNL     1      33.416  42.524  15.453  1.00  0.00     0.005 C 
ENDBRANCH  10  11
ENDBRANCH   9  10
ENDBRANCH   8   9
ENDBRANCH   7   8
ENDBRANCH   6   7
ENDBRANCH   5   6
ENDBRANCH   3   4
ENDBRANCH   2   3
ENDBRANCH   1   2
BRANCH   1  13
HETATM   13  C13 UNL     1      31.973  32.546  15.371  1.00  0.00     0.002 C 
BRANCH  13  14
HETATM   14  C14 UNL     1      30.983  31.569  15.914  1.00  0.00     0.020 C 
BRANCH  14  15
HETATM   15  C15 UNL     1      30.279  30.805  14.795  1.00  0.00     0.126 C 
BRANCH  15  16
HETATM   16  N1  UNL     1      30.139  29.392  15.091  1.00  0.00    -0.350 N 
HETATM   17  C16 UNL     1      30.560  28.842  16.372  1.00  0.00     0.140 C 
HETATM   18  C17 UNL     1      29.501  27.902  16.951  1.00  0.00     0.160 C 
HETATM   19  S1  UNL     1      29.402  26.512  15.847  1.00  0.00     0.154 S 
HETATM   20  O1  UNL     1      30.325  25.444  16.300  1.00  0.00    -0.227 OA
HETATM   21  O2  UNL     1      27.973  26.090  15.783  1.00  0.00    -0.227 OA
HETATM   22  C18 UNL     1      29.886  27.032  14.197  1.00  0.00     0.243 C 
HETATM   23  C19 UNL     1      29.585  28.488  14.143  1.00  0.00     0.233 C 
HETATM   24  O3  UNL     1      28.830  28.942  13.250  1.00  0.00    -0.272 OA
ENDBRANCH  15  16
ENDBRANCH  14  15
ENDBRANCH  13  14
ENDBRANCH   1  13
TORSDOF 13
ENDMDL
MODEL 3
REMARK VINA RESULT: -7.694426929      1.786      2.517
REMARK  13 active torsions:
REMARK  status: ('A' for Active; 'I' for Inactive)
REMARK    1  A    between atoms: C2_2  and  C3_3 
REMARK    2  A    between atoms: C3_3  and  C4_4 
REMARK    3  A    between atoms: C4_4  and  C5_5 
REMARK    4  A    between atoms: C5_5  and  C6_6 
REMARK    5  A    between atoms: C6_6  and  C7_7 
REMARK    6  A    between atoms: C7_7  and  C8_8 
REMARK    7  A    between atoms: C9_9  and  C10_10 
REMARK    8  A    between atoms: C10_10  and  C11_11 
REMARK    9  A    between atoms: C11_11  and  C12_12 
REMARK   10  A    between atoms: C12_12  and  C13_13 
REMARK   11  A    between atoms: C13_13  and  C14_14 
REMARK   12  A    between atoms: C14_14  and  C15_15 
REMARK   13  A    between atoms: C15_15  and  N1_16 
ROOT
HETATM    1  C12 UNL     1      30.369  32.855  14.934  1.00  0.00     0.000 C 
ENDROOT
BRANCH   1   2
HETATM    2  C11 UNL     1      30.425  33.907  13.857  1.00  0.00     0.004 C 
BRANCH   2   3
HETATM    3  C10 UNL     1      31.874  34.022  13.366  1.00  0.00     0.027 C 
BRANCH   3   4
HETATM    4  C9  UNL     1      31.923  35.266  12.576  1.00  0.00    -0.031 C 
HETATM    5  C8  UNL     1      32.291  36.422  13.052  1.00  0.00    -0.031 C 
BRANCH   5   6
HETATM    6  C7  UNL     1      32.706  36.647  14.437  1.00  0.00     0.027 C 
BRANCH   6   7
HETATM    7  C6  UNL     1      33.743  37.754  14.476  1.00  0.00     0.004 C 
BRANCH   7   8
HETATM    8  C5  UNL     1      33.291  38.871  13.575  1.00  0.00     0.000 C 
BRANCH   8   9
HETATM    9  C4  UNL     1      33.013  40.129  14.412  1.00  0.00     0.000 C 
BRANCH   9  10
HETATM   10  C3  UNL     1      33.978  40.139  15.552  1.00  0.00    -0.000 C 
BRANCH  10  11
HETATM   11  C2  UNL     1      34.088  41.464  16.230  1.00  0.00    -0.005 C 
HETATM   12  C1  UNL     1      33.401  42.555  15.448  1.00  0.00     0.005 C 
ENDBRANCH  10  11
ENDBRANCH   9  10
ENDBRANCH   8   9
ENDBRANCH   7   8
ENDBRANCH   6   7
ENDBRANCH   5   6
ENDBRANCH   3   4
ENDBRANCH   2   3
ENDBRANCH   1   2
BRANCH   1  13
HETATM   13  C13 UNL     1      29.101  32.062  14.772  1.00  0.00     0.002 C 
BRANCH  13  14
HETATM   14  C14 UNL     1      29.422  30.650  14.408  1.00  0.00     0.020 C 
BRANCH  14  15
HETATM   15  C15 UNL     1      28.846  29.664  15.421  1.00  0.00     0.126 C 
BRANCH  15  16
HETATM   16  N1  UNL     1      29.782  29.349  16.484  1.00  0.00    -0.350 N 
HETATM   17  C16 UNL     1      29.739  30.048  17.760  1.00  0.00     0.140 C 
HETATM   18  C17 UNL     1      29.839  29.071  18.933  1.00  0.00     0.160 C 
HETATM   19  S1  UNL     1      31.457  28.340  18.846  1.00  0.00     0.154 S 
HETATM   20  O1  UNL     1      32.409  29.128  19.667  1.00  0.00    -0.227 OA
HETATM   21  O2  UNL     1      31.330  26.915  19.268  1.00  0.00    -0.227 OA
HETATM   22  C18 UNL     1      32.019  28.352  17.140  1.00  0.00     0.243 C 
HETATM   23  C19 UNL     1      30.778  28.347  16.321  1.00  0.00     0.233 C 
HETATM   24  O3  UNL     1      30.591  27.448  15.465  1.00  0.00    -0.272 OA
ENDBRANCH  15  16
ENDBRANCH  14  15
ENDBRANCH  13  14
ENDBRANCH   1  13
TORSDOF 13
ENDMDL
MODEL 4
REMARK VINA RESULT: -7.648942759      1.629      3.051
REMARK  13 active torsions:
REMARK  status: ('A' for Active; 'I' for Inactive)
REMARK    1  A    between atoms: C2_2  and  C3_3 
REMARK    2  A    between atoms: C3_3  and  C4_4 
REMARK    3  A    between atoms: C4_4  and  C5_5 
REMARK    4  A    between atoms: C5_5  and  C6_6 
REMARK    5  A    between atoms: C6_6  and  C7_7 
REMARK    6  A    between atoms: C7_7  and  C8_8 
REMARK    7  A    between atoms: C9_9  and  C10_10 
REMARK    8  A    between atoms: C10_10  and  C11_11 
REMARK    9  A    between atoms: C11_11  and  C12_12 
REMARK   10  A    between atoms: C12_12  and  C13_13 
REMARK   11  A    between atoms: C13_13  and  C14_14 
REMARK   12  A    between atoms: C14_14  and  C15_15 
REMARK   13  A    between atoms: C15_15  and  N1_16 
ROOT
HETATM    1  C12 UNL     1      30.458  29.080  13.296  1.00  0.00     0.000 C 
ENDROOT
BRANCH   1   2
HETATM    2  C11 UNL     1      31.917  29.012  13.668  1.00  0.00     0.004 C 
BRANCH   2   3
HETATM    3  C10 UNL     1      32.573  30.349  13.303  1.00  0.00     0.027 C 
BRANCH   3   4
HETATM    4  C9  UNL     1      32.018  31.331  14.253  1.00  0.00    -0.031 C 
HETATM    5  C8  UNL     1      32.066  32.623  14.083  1.00  0.00    -0.031 C 
BRANCH   5   6
HETATM    6  C7  UNL     1      32.679  33.278  12.928  1.00  0.00     0.027 C 
BRANCH   6   7
HETATM    7  C6  UNL     1      31.883  34.522  12.577  1.00  0.00     0.004 C 
BRANCH   7   8
HETATM    8  C5  UNL     1      31.795  35.398  13.798  1.00  0.00     0.000 C 
BRANCH   8   9
HETATM    9  C4  UNL     1      32.366  36.788  13.477  1.00  0.00     0.000 C 
BRANCH   9  10
HETATM   10  C3  UNL     1      33.406  37.100  14.500  1.00  0.00    -0.000 C 
BRANCH  10  11
HETATM   11  C2  UNL     1      33.806  38.539  14.528  1.00  0.00    -0.005 C 
HETATM   12  C1  UNL     1      33.089  39.342  13.472  1.00  0.00     0.005 C 
ENDBRANCH  10  11
ENDBRANCH   9  10
ENDBRANCH   8   9
ENDBRANCH   7   8
ENDBRANCH   6   7
ENDBRANCH   5   6
ENDBRANCH   3   4
ENDBRANCH   2   3
ENDBRANCH   1   2
BRANCH   1  13
HETATM   13  C13 UNL     1      29.811  27.763  13.625  1.00  0.00     0.002 C 
BRANCH  13  14
HETATM   14  C14 UNL     1      28.629  27.979  14.512  1.00  0.00     0.020 C 
BRANCH  14  15
HETATM   15  C15 UNL     1      28.855  27.390  15.902  1.00  0.00     0.126 C 
BRANCH  15  16
HETATM   16  N1  UNL     1      29.859  28.115  16.656  1.00  0.00    -0.350 N 
HETATM   17  C16 UNL     1      29.647  29.497  17.063  1.00  0.00     0.140 C 
HETATM   18  C17 UNL     1      30.032  29.712  18.528  1.00  0.00     0.160 C 
HETATM   19  S1  UNL     1      31.787  29.450  18.633  1.00  0.00     0.154 S 
HETATM   20  O1  UNL     1      32.499  30.740  18.454  1.00  0.00    -0.227 OA
HETATM   21  O2  UNL     1      32.065  28.782  19.937  1.00  0.00    -0.227 OA
HETATM   22  C18 UNL     1      32.295  28.324  17.329  1.00  0.00     0.243 C 
HETATM   23  C19 UNL     1      31.090  27.507  17.028  1.00  0.00     0.233 C 
HETATM   24  O3  UNL     1      31.144  26.255  17.099  1.00  0.00    -0.272 OA
ENDBRANCH  15  16
ENDBRANCH  14  15
ENDBRANCH  13  14
ENDBRANCH   1  13
TORSDOF 13
ENDMDL
MODEL 5
REMARK VINA RESULT: -7.639499949      1.720      2.422
REMARK  13 active torsions:
REMARK  status: ('A' for Active; 'I' for Inactive)
REMARK    1  A    between atoms: C2_2  and  C3_3 
REMARK    2  A    between atoms: C3_3  and  C4_4 
REMARK    3  A    between atoms: C4_4  and  C5_5 
REMARK    4  A    between atoms: C5_5  and  C6_6 
REMARK    5  A    between atoms: C6_6  and  C7_7 
REMARK    6  A    between atoms: C7_7  and  C8_8 
REMARK    7  A    between atoms: C9_9  and  C10_10 
REMARK    8  A    between atoms: C10_10  and  C11_11 
REMARK    9  A    between atoms: C11_11  and  C12_12 
REMARK   10  A    between atoms: C12_12  and  C13_13 
REMARK   11  A    between atoms: C13_13  and  C14_14 
REMARK   12  A    between atoms: C14_14  and  C15_15 
REMARK   13  A    between atoms: C15_15  and  N1_16 
ROOT
HETATM    1  C12 UNL     1      29.419  31.720  14.697  1.00  0.00     0.000 C 
ENDROOT
BRANCH   1   2
HETATM    2  C11 UNL     1      30.613  31.809  15.611  1.00  0.00     0.004 C 
BRANCH   2   3
HETATM    3  C10 UNL     1      31.291  33.167  15.392  1.00  0.00     0.027 C 
BRANCH   3   4
HETATM    4  C9  UNL     1      32.287  32.941  14.327  1.00  0.00    -0.031 C 
HETATM    5  C8  UNL     1      32.321  33.602  13.204  1.00  0.00    -0.031 C 
BRANCH   5   6
HETATM    6  C7  UNL     1      31.376  34.659  12.843  1.00  0.00     0.027 C 
BRANCH   6   7
HETATM    7  C6  UNL     1      32.109  35.987  12.779  1.00  0.00     0.004 C 
BRANCH   7   8
HETATM    8  C5  UNL     1      32.168  36.573  14.163  1.00  0.00     0.000 C 
BRANCH   8   9
HETATM    9  C4  UNL     1      33.480  37.353  14.338  1.00  0.00     0.000 C 
BRANCH   9  10
HETATM   10  C3  UNL     1      33.293  38.701  13.724  1.00  0.00    -0.000 C 
BRANCH  10  11
HETATM   11  C2  UNL     1      33.355  39.821  14.709  1.00  0.00    -0.005 C 
HETATM   12  C1  UNL     1      32.012  40.087  15.342  1.00  0.00     0.005 C 
ENDBRANCH  10  11
ENDBRANCH   9  10
ENDBRANCH   8   9
ENDBRANCH   7   8
ENDBRANCH   6   7
ENDBRANCH   5   6
ENDBRANCH   3   4
ENDBRANCH   2   3
ENDBRANCH   1   2
BRANCH   1  13
HETATM   13  C13 UNL     1      29.256  30.295  14.247  1.00  0.00     0.002 C 
BRANCH  13  14
HETATM   14  C14 UNL     1      30.595  29.660  14.059  1.00  0.00     0.020 C 
BRANCH  14  15
HETATM   15  C15 UNL     1      30.556  28.166  14.367  1.00  0.00     0.126 C 
BRANCH  15  16
HETATM   16  N1  UNL     1      30.466  27.894  15.789  1.00  0.00    -0.350 N 
HETATM   17  C16 UNL     1      31.480  28.375  16.717  1.00  0.00     0.140 C 
HETATM   18  C17 UNL     1      30.846  29.010  17.956  1.00  0.00     0.160 C 
HETATM   19  S1  UNL     1      29.999  27.704  18.814  1.00  0.00     0.154 S 
HETATM   20  O1  UNL     1      30.903  27.096  19.821  1.00  0.00    -0.227 OA
HETATM   21  O2  UNL     1      28.752  28.283  19.392  1.00  0.00    -0.227 OA
HETATM   22  C18 UNL     1      29.513  26.440  17.635  1.00  0.00     0.243 C 
HETATM   23  C19 UNL     1      29.385  27.149  16.334  1.00  0.00     0.233 C 
HETATM   24  O3  UNL     1      28.307  27.098  15.693  1.00  0.00    -0.272 OA
ENDBRANCH  15  16
ENDBRANCH  14  15
ENDBRANCH  13  14
ENDBRANCH   1  13
TORSDOF 13
ENDMDL
