MODEL 1
REMARK VINA RESULT: -7.901163613      0.000      0.000
REMARK  12 active torsions:
REMARK  status: ('A' for Active; 'I' for Inactive)
REMARK    1  A    between atoms: N1_2  and  C2_3 
REMARK    2  A    between atoms: N1_2  and  C3_5 
REMARK    3  A    between atoms: C3_5  and  C4_6 
REMARK    4  A    between atoms: C4_6  and  C5_7 
REMARK    5  A    between atoms: C5_7  and  C6_8 
REMARK    6  A    between atoms: C6_8  and  C7_9 
REMARK    7  A    between atoms: C7_9  and  C8_10 
REMARK    8  A    between atoms: C8_10  and  C9_11 
REMARK    9  A    between atoms: C9_11  and  C10_12 
REMARK   10  A    between atoms: C10_12  and  C11_13 
REMARK   11  A    between atoms: C11_13  and  C12_14 
REMARK   12  A    between atoms: C12_14  and  C13_15 
ROOT
HETATM    1  C11 UNL     1      28.581  30.278  14.477  1.00  0.00     0.002 C 
ENDROOT
BRANCH   1   2
HETATM    2  C10 UNL     1      28.604  29.158  13.495  1.00  0.00     0.000 C 
BRANCH   2   3
HETATM    3  C9  UNL     1      30.005  28.659  13.358  1.00  0.00     0.000 C 
BRANCH   3   4
HETATM    4  C8  UNL     1      30.336  27.285  13.713  1.00  0.00     0.000 C 
BRANCH   4   5
HETATM    5  C7  UNL     1      29.553  26.526  14.714  1.00  0.00     0.000 C 
BRANCH   5   6
HETATM    6  C6  UNL     1      29.733  26.803  16.148  1.00  0.00     0.000 C 
BRANCH   6   7
HETATM    7  C5  UNL     1      28.415  27.176  16.866  1.00  0.00     0.002 C 
BRANCH   7   8
HETATM    8  C4  UNL     1      27.408  26.102  16.636  1.00  0.00     0.020 C 
BRANCH   8   9
HETATM    9  C3  UNL     1      26.963  25.443  17.926  1.00  0.00     0.124 C 
BRANCH   9  10
HETATM   10  N1  UNL     1      25.647  24.905  17.751  1.00  0.00    -0.364 N 
HETATM   11  C1  UNL     1      25.014  24.976  16.457  1.00  0.00     0.152 C 
BRANCH  10  12
HETATM   12  C2  UNL     1      24.983  24.295  18.825  1.00  0.00     0.350 C 
HETATM   13  O1  UNL     1      25.345  23.177  19.246  1.00  0.00    -0.284 OA
ENDBRANCH  10  12
ENDBRANCH   9  10
ENDBRANCH   8   9
ENDBRANCH   7   8
ENDBRANCH   6   7
ENDBRANCH   5   6
ENDBRANCH   4   5
ENDBRANCH   3   4
ENDBRANCH   2   3
ENDBRANCH   1   2
BRANCH   1  14
HETATM   14  C12 UNL     1      29.736  30.443  15.392  1.00  0.00     0.032 C 
BRANCH  14  15
HETATM   15  C13 UNL     1      30.367  31.769  15.547  1.00  0.00     0.133 C 
HETATM   16  C14 UNL     1      31.613  32.029  14.763  1.00  0.00     0.052 C 
HETATM   17  C15 UNL     1      31.383  33.444  14.243  1.00  0.00     0.050 C 
HETATM   18  C16 UNL     1      32.199  33.704  13.008  1.00  0.00     0.020 C 
HETATM   19  C20 UNL     1      31.759  34.408  15.320  1.00  0.00     0.020 C 
HETATM   20  C21 UNL     1      29.937  33.453  14.019  1.00  0.00     0.268 C 
HETATM   21  C17 UNL     1      31.996  35.107  12.546  1.00  0.00     0.001 C 
HETATM   22  C18 UNL     1      32.154  36.141  13.616  1.00  0.00     0.000 C 
HETATM   23  C19 UNL     1      31.395  35.799  14.877  1.00  0.00     0.001 C 
HETATM   24  O2  UNL     1      29.244  33.980  13.092  1.00  0.00    -0.264 OA
HETATM   25  O3  UNL     1      29.400  32.732  15.078  1.00  0.00    -0.315 OA
ENDBRANCH  14  15
ENDBRANCH   1  14
TORSDOF 12
ENDMDL
MODEL 2
REMARK VINA RESULT: -7.817601033      2.418      3.032
REMARK  12 active torsions:
REMARK  status: ('A' for Active; 'I' for Inactive)
REMARK    1  A    between atoms: N1_2  and  C2_3 
REMARK    2  A    between atoms: N1_2  and  C3_5 
REMARK    3  A    between atoms: C3_5  and  C4_6 
REMARK    4  A    between atoms: C4_6  and  C5_7 
REMARK    5  A    between atoms: C5_7  and  C6_8 
REMARK    6  A    between atoms: C6_8  and  C7_9 
REMARK    7  A    between atoms: C7_9  and  C8_10 
REMARK    8  A    between atoms: C8_10  and  C9_11 
REMARK    9  A    between atoms: C9_11  and  C10_12 
REMARK   10  A    between atoms: C10_12  and  C11_13 
REMARK   11  A    between atoms: C11_13  and  C12_14 
REMARK   12  A    between atoms: C12_14  and  C13_15 
ROOT
HETATM    1  C11 UNL     1      28.607  30.246  14.507  1.00  0.00     0.002 C 
ENDROOT
BRANCH   1   2
HETATM    2  C10 UNL     1      28.680  29.261  13.392  1.00  0.00     0.000 C 
BRANCH   2   3
HETATM    3  C9  UNL     1      29.966  28.507  13.491  1.00  0.00     0.000 C 
BRANCH   3   4
HETATM    4  C8  UNL     1      29.962  27.081  13.792  1.00  0.00     0.000 C 
BRANCH   4   5
HETATM    5  C7  UNL     1      29.915  26.575  15.181  1.00  0.00     0.000 C 
BRANCH   5   6
HETATM    6  C6  UNL     1      28.616  26.368  15.842  1.00  0.00     0.000 C 
BRANCH   6   7
HETATM    7  C5  UNL     1      28.337  27.388  16.971  1.00  0.00     0.002 C 
BRANCH   7   8
HETATM    8  C4  UNL     1      28.454  26.707  18.290  1.00  0.00     0.020 C 
BRANCH   8   9
HETATM    9  C3  UNL     1      29.074  27.598  19.348  1.00  0.00     0.124 C 
BRANCH   9  10
HETATM   10  N1  UNL     1      30.468  27.766  19.064  1.00  0.00    -0.364 N 
HETATM   11  C1  UNL     1      31.314  26.606  18.932  1.00  0.00     0.152 C 
BRANCH  10  12
HETATM   12  C2  UNL     1      31.007  29.050  18.896  1.00  0.00     0.350 C 
HETATM   13  O1  UNL     1      30.271  30.058  18.922  1.00  0.00    -0.284 OA
ENDBRANCH  10  12
ENDBRANCH   9  10
ENDBRANCH   8   9
ENDBRANCH   7   8
ENDBRANCH   6   7
ENDBRANCH   5   6
ENDBRANCH   4   5
ENDBRANCH   3   4
ENDBRANCH   2   3
ENDBRANCH   1   2
BRANCH   1  14
HETATM   14  C12 UNL     1      29.789  30.411  15.387  1.00  0.00     0.032 C 
BRANCH  14  15
HETATM   15  C13 UNL     1      30.405  31.743  15.547  1.00  0.00     0.133 C 
HETATM   16  C14 UNL     1      31.643  32.023  14.756  1.00  0.00     0.052 C 
HETATM   17  C15 UNL     1      31.393  33.438  14.247  1.00  0.00     0.050 C 
HETATM   18  C16 UNL     1      32.198  33.716  13.009  1.00  0.00     0.020 C 
HETATM   19  C20 UNL     1      31.766  34.400  15.328  1.00  0.00     0.020 C 
HETATM   20  C21 UNL     1      29.946  33.432  14.033  1.00  0.00     0.268 C 
HETATM   21  C17 UNL     1      31.976  35.120  12.558  1.00  0.00     0.001 C 
HETATM   22  C18 UNL     1      32.128  36.148  13.634  1.00  0.00     0.000 C 
HETATM   23  C19 UNL     1      31.383  35.789  14.898  1.00  0.00     0.001 C 
HETATM   24  O2  UNL     1      29.241  33.957  13.114  1.00  0.00    -0.264 OA
HETATM   25  O3  UNL     1      29.424  32.698  15.090  1.00  0.00    -0.315 OA
ENDBRANCH  14  15
ENDBRANCH   1  14
TORSDOF 12
ENDMDL
MODEL 3
REMARK VINA RESULT: -7.732259690      4.345      9.615
REMARK  12 active torsions:
REMARK  status: ('A' for Active; 'I' for Inactive)
REMARK    1  A    between atoms: N1_2  and  C2_3 
REMARK    2  A    between atoms: N1_2  and  C3_5 
REMARK    3  A    between atoms: C3_5  and  C4_6 
REMARK    4  A    between atoms: C4_6  and  C5_7 
REMARK    5  A    between atoms: C5_7  and  C6_8 
REMARK    6  A    between atoms: C6_8  and  C7_9 
REMARK    7  A    between atoms: C7_9  and  C8_10 
REMARK    8  A    between atoms: C8_10  and  C9_11 
REMARK    9  A    between atoms: C9_11  and  C10_12 
REMARK   10  A    between atoms: C10_12  and  C11_13 
REMARK   11  A    between atoms: C11_13  and  C12_14 
REMARK   12  A    between atoms: C12_14  and  C13_15 
ROOT
HETATM    1  C11 UNL     1      29.802  32.044  14.603  1.00  0.00     0.002 C 
ENDROOT
BRANCH   1   2
HETATM    2  C10 UNL     1      30.786  32.695  15.512  1.00  0.00     0.000 C 
BRANCH   2   3
HETATM    3  C9  UNL     1      32.168  32.339  15.069  1.00  0.00     0.000 C 
BRANCH   3   4
HETATM    4  C8  UNL     1      32.488  32.253  13.650  1.00  0.00     0.000 C 
BRANCH   4   5
HETATM    5  C7  UNL     1      32.759  33.457  12.835  1.00  0.00     0.000 C 
BRANCH   5   6
HETATM    6  C6  UNL     1      31.664  34.389  12.518  1.00  0.00     0.000 C 
BRANCH   6   7
HETATM    7  C5  UNL     1      32.051  35.873  12.720  1.00  0.00     0.002 C 
BRANCH   7   8
HETATM    8  C4  UNL     1      32.244  36.138  14.173  1.00  0.00     0.020 C 
BRANCH   8   9
HETATM    9  C3  UNL     1      33.295  37.199  14.432  1.00  0.00     0.124 C 
BRANCH   9  10
HETATM   10  N1  UNL     1      32.705  38.495  14.274  1.00  0.00    -0.364 N 
HETATM   11  C1  UNL     1      32.981  39.266  13.087  1.00  0.00     0.152 C 
BRANCH  10  12
HETATM   12  C2  UNL     1      31.847  39.007  15.259  1.00  0.00     0.350 C 
HETATM   13  O1  UNL     1      32.248  39.871  16.066  1.00  0.00    -0.284 OA
ENDBRANCH  10  12
ENDBRANCH   9  10
ENDBRANCH   8   9
ENDBRANCH   7   8
ENDBRANCH   6   7
ENDBRANCH   5   6
ENDBRANCH   4   5
ENDBRANCH   3   4
ENDBRANCH   2   3
ENDBRANCH   1   2
BRANCH   1  14
HETATM   14  C12 UNL     1      28.629  31.360  15.200  1.00  0.00     0.032 C 
BRANCH  14  15
HETATM   15  C13 UNL     1      28.780  30.007  15.770  1.00  0.00     0.133 C 
HETATM   16  C14 UNL     1      30.027  29.256  15.428  1.00  0.00     0.052 C 
HETATM   17  C15 UNL     1      30.420  28.645  16.768  1.00  0.00     0.050 C 
HETATM   18  C16 UNL     1      31.888  28.333  16.809  1.00  0.00     0.020 C 
HETATM   19  C20 UNL     1      29.623  27.397  16.968  1.00  0.00     0.020 C 
HETATM   20  C21 UNL     1      30.001  29.684  17.709  1.00  0.00     0.268 C 
HETATM   21  C17 UNL     1      32.241  27.691  18.109  1.00  0.00     0.001 C 
HETATM   22  C18 UNL     1      31.357  26.547  18.494  1.00  0.00     0.000 C 
HETATM   23  C19 UNL     1      29.888  26.866  18.350  1.00  0.00     0.001 C 
HETATM   24  O2  UNL     1      30.550  30.107  18.776  1.00  0.00    -0.264 OA
HETATM   25  O3  UNL     1      28.804  30.173  17.204  1.00  0.00    -0.315 OA
ENDBRANCH  14  15
ENDBRANCH   1  14
TORSDOF 12
ENDMDL
MODEL 4
REMARK VINA RESULT: -7.728366288      3.032     10.075
REMARK  12 active torsions:
REMARK  status: ('A' for Active; 'I' for Inactive)
REMARK    1  A    between atoms: N1_2  and  C2_3 
REMARK    2  A    between atoms: N1_2  and  C3_5 
REMARK    3  A    between atoms: C3_5  and  C4_6 
REMARK    4  A    between atoms: C4_6  and  C5_7 
REMARK    5  A    between atoms: C5_7  and  C6_8 
REMARK    6  A    between atoms: C6_8  and  C7_9 
REMARK    7  A    between atoms: C7_9  and  C8_10 
REMARK    8  A    between atoms: C8_10  and  C9_11 
REMARK    9  A    between atoms: C9_11  and  C10_12 
REMARK   10  A    between atoms: C10_12  and  C11_13 
REMARK   11  A    between atoms: C11_13  and  C12_14 
REMARK   12  A    between atoms: C12_14  and  C13_15 
ROOT
HETATM    1  C11 UNL     1      29.950  26.802  15.212  1.00  0.00     0.002 C 
ENDROOT
BRANCH   1   2
HETATM    2  C10 UNL     1      29.891  27.259  13.796  1.00  0.00     0.000 C 
BRANCH   2   3
HETATM    3  C9  UNL     1      29.360  28.655  13.756  1.00  0.00     0.000 C 
BRANCH   3   4
HETATM    4  C8  UNL     1      29.210  29.421  14.987  1.00  0.00     0.000 C 
BRANCH   4   5
HETATM    5  C7  UNL     1      28.576  30.757  15.004  1.00  0.00     0.000 C 
BRANCH   5   6
HETATM    6  C6  UNL     1      29.398  31.962  14.801  1.00  0.00     0.000 C 
BRANCH   6   7
HETATM    7  C5  UNL     1      30.819  31.836  15.399  1.00  0.00     0.002 C 
BRANCH   7   8
HETATM    8  C4  UNL     1      31.680  32.922  14.853  1.00  0.00     0.020 C 
BRANCH   8   9
HETATM    9  C3  UNL     1      31.153  34.303  15.192  1.00  0.00     0.124 C 
BRANCH   9  10
HETATM   10  N1  UNL     1      31.698  35.254  14.270  1.00  0.00    -0.364 N 
HETATM   11  C1  UNL     1      31.856  34.893  12.882  1.00  0.00     0.152 C 
BRANCH  10  12
HETATM   12  C2  UNL     1      32.059  36.537  14.707  1.00  0.00     0.350 C 
HETATM   13  O1  UNL     1      31.213  37.294  15.227  1.00  0.00    -0.284 OA
ENDBRANCH  10  12
ENDBRANCH   9  10
ENDBRANCH   8   9
ENDBRANCH   7   8
ENDBRANCH   6   7
ENDBRANCH   5   6
ENDBRANCH   4   5
ENDBRANCH   3   4
ENDBRANCH   2   3
ENDBRANCH   1   2
BRANCH   1  14
HETATM   14  C12 UNL     1      29.333  25.500  15.563  1.00  0.00     0.032 C 
BRANCH  14  15
HETATM   15  C13 UNL     1      28.275  25.442  16.592  1.00  0.00     0.133 C 
HETATM   16  C14 UNL     1      26.953  26.048  16.247  1.00  0.00     0.052 C 
HETATM   17  C15 UNL     1      25.969  25.014  16.781  1.00  0.00     0.050 C 
HETATM   18  C16 UNL     1      24.646  25.112  16.075  1.00  0.00     0.020 C 
HETATM   19  C20 UNL     1      25.788  25.248  18.246  1.00  0.00     0.020 C 
HETATM   20  C21 UNL     1      26.685  23.761  16.540  1.00  0.00     0.268 C 
HETATM   21  C17 UNL     1      23.685  24.126  16.647  1.00  0.00     0.001 C 
HETATM   22  C18 UNL     1      23.589  24.148  18.140  1.00  0.00     0.000 C 
HETATM   23  C19 UNL     1      24.941  24.143  18.814  1.00  0.00     0.001 C 
HETATM   24  O2  UNL     1      26.263  22.624  16.156  1.00  0.00    -0.264 OA
HETATM   25  O3  UNL     1      28.015  24.041  16.824  1.00  0.00    -0.315 OA
ENDBRANCH  14  15
ENDBRANCH   1  14
TORSDOF 12
ENDMDL
MODEL 5
REMARK VINA RESULT: -7.689912677      4.024      9.202
REMARK  12 active torsions:
REMARK  status: ('A' for Active; 'I' for Inactive)
REMARK    1  A    between atoms: N1_2  and  C2_3 
REMARK    2  A    between atoms: N1_2  and  C3_5 
REMARK    3  A    between atoms: C3_5  and  C4_6 
REMARK    4  A    between atoms: C4_6  and  C5_7 
REMARK    5  A    between atoms: C5_7  and  C6_8 
REMARK    6  A    between atoms: C6_8  and  C7_9 
REMARK    7  A    between atoms: C7_9  and  C8_10 
REMARK    8  A    between atoms: C8_10  and  C9_11 
REMARK    9  A    between atoms: C9_11  and  C10_12 
REMARK   10  A    between atoms: C10_12  and  C11_13 
REMARK   11  A    between atoms: C11_13  and  C12_14 
REMARK   12  A    between atoms: C12_14  and  C13_15 
ROOT
HETATM    1  C11 UNL     1      30.088  31.011  14.372  1.00  0.00     0.002 C 
ENDROOT
BRANCH   1   2
HETATM    2  C10 UNL     1      30.697  29.852  13.662  1.00  0.00     0.000 C 
BRANCH   2   3
HETATM    3  C9  UNL     1      32.176  29.874  13.872  1.00  0.00     0.000 C 
BRANCH   3   4
HETATM    4  C8  UNL     1      33.062  30.358  12.822  1.00  0.00     0.000 C 
BRANCH   4   5
HETATM    5  C7  UNL     1      33.741  31.669  12.914  1.00  0.00     0.000 C 
BRANCH   5   6
HETATM    6  C6  UNL     1      33.055  32.807  13.548  1.00  0.00     0.000 C 
BRANCH   6   7
HETATM    7  C5  UNL     1      32.360  33.742  12.532  1.00  0.00     0.002 C 
BRANCH   7   8
HETATM    8  C4  UNL     1      31.642  34.821  13.266  1.00  0.00     0.020 C 
BRANCH   8   9
HETATM    9  C3  UNL     1      32.205  36.196  12.968  1.00  0.00     0.124 C 
BRANCH   9  10
HETATM   10  N1  UNL     1      32.460  36.879  14.201  1.00  0.00    -0.364 N 
HETATM   11  C1  UNL     1      31.457  36.877  15.238  1.00  0.00     0.152 C 
BRANCH  10  12
HETATM   12  C2  UNL     1      33.684  37.530  14.410  1.00  0.00     0.350 C 
HETATM   13  O1  UNL     1      33.772  38.475  15.222  1.00  0.00    -0.284 OA
ENDBRANCH  10  12
ENDBRANCH   9  10
ENDBRANCH   8   9
ENDBRANCH   7   8
ENDBRANCH   6   7
ENDBRANCH   5   6
ENDBRANCH   4   5
ENDBRANCH   3   4
ENDBRANCH   2   3
ENDBRANCH   1   2
BRANCH   1  14
HETATM   14  C12 UNL     1      30.589  31.357  15.725  1.00  0.00     0.032 C 
BRANCH  14  15
HETATM   15  C13 UNL     1      30.102  30.612  16.902  1.00  0.00     0.133 C 
HETATM   16  C14 UNL     1      28.866  29.789  16.726  1.00  0.00     0.052 C 
HETATM   17  C15 UNL     1      29.223  28.501  17.459  1.00  0.00     0.050 C 
HETATM   18  C16 UNL     1      28.402  27.348  16.957  1.00  0.00     0.020 C 
HETATM   19  C20 UNL     1      28.979  28.708  18.919  1.00  0.00     0.020 C 
HETATM   20  C21 UNL     1      30.655  28.382  17.184  1.00  0.00     0.268 C 
HETATM   21  C17 UNL     1      28.732  26.111  17.721  1.00  0.00     0.001 C 
HETATM   22  C18 UNL     1      28.712  26.278  19.208  1.00  0.00     0.000 C 
HETATM   23  C19 UNL     1      29.469  27.501  19.670  1.00  0.00     0.001 C 
HETATM   24  O2  UNL     1      31.370  27.361  16.933  1.00  0.00    -0.264 OA
HETATM   25  O3  UNL     1      31.147  29.679  17.249  1.00  0.00    -0.315 OA
ENDBRANCH  14  15
ENDBRANCH   1  14
TORSDOF 12
ENDMDL
