MODEL 1
REMARK VINA RESULT: -6.101131194      0.000      0.000
REMARK  20 active torsions:
REMARK  status: ('A' for Active; 'I' for Inactive)
REMARK    1  A    between atoms: C3_5  and  N2_6 
REMARK    2  A    between atoms: C5_13  and  O2_14 
REMARK    3  A    between atoms: O2_14  and  C6_15 
REMARK    4  A    between atoms: C6_15  and  C7_16 
REMARK    5  A    between atoms: C7_16  and  C8_17 
REMARK    6  A    between atoms: C8_17  and  C9_18 
REMARK    7  A    between atoms: C9_18  and  C10_19 
REMARK    8  A    between atoms: C10_19  and  C11_20 
REMARK    9  A    between atoms: C11_20  and  C12_21 
REMARK   10  A    between atoms: C12_21  and  C13_22 
REMARK   11  A    between atoms: C13_22  and  C14_23 
REMARK   12  A    between atoms: C14_23  and  C15_24 
REMARK   13  A    between atoms: C15_24  and  C16_25 
REMARK   14  A    between atoms: C16_25  and  C17_26 
REMARK       I    between atoms: C17_26  and  N4_28 
REMARK   15  A    between atoms: N4_28  and  C18_30 
REMARK   16  A    between atoms: C18_30  and  C19_31 
REMARK   17  A    between atoms: C20_33  and  C21_34 
REMARK   18  A    between atoms: C21_34  and  O5_35 
REMARK   19  A    between atoms: C22_37  and  O6_38 
REMARK   20  A    between atoms: C23_40  and  N5_41 
ROOT
HETATM    1  C14 UNL     1      54.800   1.850  36.702  1.00  0.00     0.004 C 
ENDROOT
BRANCH   1   2
HETATM    2  C13 UNL     1      54.738   0.363  36.404  1.00  0.00     0.027 C 
BRANCH   2   3
HETATM    3  C12 UNL     1      54.711  -0.519  37.572  1.00  0.00    -0.031 C 
BRANCH   3   4
HETATM    4  C11 UNL     1      55.890  -1.100  38.198  1.00  0.00    -0.031 C 
BRANCH   4   5
HETATM    5  C10 UNL     1      56.715  -0.384  39.188  1.00  0.00     0.027 C 
BRANCH   5   6
HETATM    6  C9  UNL     1      58.074  -0.040  38.747  1.00  0.00     0.004 C 
BRANCH   6   7
HETATM    7  C8  UNL     1      58.328   1.467  38.740  1.00  0.00     0.002 C 
BRANCH   7   8
HETATM    8  C7  UNL     1      58.692   1.988  40.118  1.00  0.00     0.027 C 
BRANCH   8   9
HETATM    9  C6  UNL     1      58.466   3.466  40.097  1.00  0.00     0.176 C 
BRANCH   9  10
HETATM   10  O2  UNL     1      57.750   4.020  41.138  1.00  0.00    -0.344 OA
BRANCH  10  11
HETATM   11  C5  UNL     1      58.013   5.218  41.754  1.00  0.00     0.160 A 
HETATM   12  C2  UNL     1      59.013   5.453  42.661  1.00  0.00     0.061 A 
HETATM   13  C1  UNL     1      59.919   4.358  43.090  1.00  0.00     0.072 C 
HETATM   14  N1  UNL     1      59.191   6.690  43.214  1.00  0.00    -0.193 N 
HETATM   15  C3  UNL     1      58.372   7.694  42.865  1.00  0.00     0.679 A 
ATOM     16  H1  UNL     1      59.940   6.848  43.889  1.00  0.00     0.184 HD
HETATM   17  N3  UNL     1      57.390   7.490  41.984  1.00  0.00    -0.154 N 
HETATM   18  C4  UNL     1      57.198   6.296  41.433  1.00  0.00     0.295 A 
ATOM     19  H3  UNL     1      56.775   8.264  41.729  1.00  0.00     0.187 HD
HETATM   20  O1  UNL     1      56.272   6.124  40.607  1.00  0.00    -0.265 OA
BRANCH  15  21
HETATM   21  N2  UNL     1      58.535   8.866  43.385  1.00  0.00    -0.234 N 
ATOM     22  H22 UNL     1      58.794   8.953  44.367  1.00  0.00     0.174 HD
ATOM     23  H21 UNL     1      58.403   9.698  42.809  1.00  0.00     0.174 HD
ENDBRANCH  15  21
ENDBRANCH  10  11
ENDBRANCH   9  10
ENDBRANCH   8   9
ENDBRANCH   7   8
ENDBRANCH   6   7
ENDBRANCH   5   6
ENDBRANCH   4   5
ENDBRANCH   3   4
ENDBRANCH   2   3
ENDBRANCH   1   2
BRANCH   1  24
HETATM   24  C15 UNL     1      54.161   2.178  38.024  1.00  0.00     0.010 C 
BRANCH  24  25
HETATM   25  C16 UNL     1      54.976   2.922  39.002  1.00  0.00     0.103 C 
BRANCH  25  26
HETATM   26  C17 UNL     1      54.742   2.597  40.429  1.00  0.00     0.217 C 
HETATM   27  O3  UNL     1      54.385   1.442  40.800  1.00  0.00    -0.274 OA
HETATM   28  N4  UNL     1      54.909   3.564  41.453  1.00  0.00    -0.359 N 
ATOM     29  H4  UNL     1      55.201   4.508  41.201  1.00  0.00     0.162 HD
BRANCH  28  30
HETATM   30  C18 UNL     1      54.680   3.250  42.827  1.00  0.00     0.156 C 
BRANCH  30  31
HETATM   31  C19 UNL     1      53.461   3.949  43.386  1.00  0.00     0.166 C 
HETATM   32  O4  UNL     1      52.563   4.341  42.398  1.00  0.00    -0.372 OA
HETATM   33  C20 UNL     1      51.657   5.112  43.122  1.00  0.00     0.176 C 
HETATM   34  C22 UNL     1      52.425   5.902  44.136  1.00  0.00     0.175 C 
HETATM   35  C23 UNL     1      53.802   5.250  44.056  1.00  0.00     0.160 C 
BRANCH  33  36
HETATM   36  C21 UNL     1      50.823   5.994  42.219  1.00  0.00     0.198 C 
BRANCH  36  37
HETATM   37  O5  UNL     1      51.663   6.421  41.177  1.00  0.00    -0.398 OA
ATOM     38  H5  UNL     1      51.958   7.296  41.400  1.00  0.00     0.209 HD
ENDBRANCH  36  37
ENDBRANCH  33  36
BRANCH  34  39
HETATM   39  O6  UNL     1      52.467   7.257  43.892  1.00  0.00    -0.391 OA
ATOM     40  H6  UNL     1      52.168   7.797  44.615  1.00  0.00     0.210 HD
ENDBRANCH  34  39
BRANCH  35  41
HETATM   41  N5  UNL     1      54.322   5.074  45.366  1.00  0.00    -0.333 N 
HETATM   42  N6  UNL     1      53.766   5.611  46.332  1.00  0.00    -0.349 N 
ATOM     43  H62 UNL     1      52.934   6.178  46.171  1.00  0.00     0.176 HD
ATOM     44  H61 UNL     1      54.139   5.485  47.273  1.00  0.00     0.176 HD
ATOM     45  H5  UNL     1      55.155   4.504  45.510  1.00  0.00     0.180 HD
ENDBRANCH  35  41
ENDBRANCH  30  31
ENDBRANCH  28  30
ENDBRANCH  25  26
ENDBRANCH  24  25
ENDBRANCH   1  24
TORSDOF 20
ENDMDL
MODEL 2
REMARK VINA RESULT: -5.935206723      1.867      2.639
REMARK  20 active torsions:
REMARK  status: ('A' for Active; 'I' for Inactive)
REMARK    1  A    between atoms: C3_5  and  N2_6 
REMARK    2  A    between atoms: C5_13  and  O2_14 
REMARK    3  A    between atoms: O2_14  and  C6_15 
REMARK    4  A    between atoms: C6_15  and  C7_16 
REMARK    5  A    between atoms: C7_16  and  C8_17 
REMARK    6  A    between atoms: C8_17  and  C9_18 
REMARK    7  A    between atoms: C9_18  and  C10_19 
REMARK    8  A    between atoms: C10_19  and  C11_20 
REMARK    9  A    between atoms: C11_20  and  C12_21 
REMARK   10  A    between atoms: C12_21  and  C13_22 
REMARK   11  A    between atoms: C13_22  and  C14_23 
REMARK   12  A    between atoms: C14_23  and  C15_24 
REMARK   13  A    between atoms: C15_24  and  C16_25 
REMARK   14  A    between atoms: C16_25  and  C17_26 
REMARK       I    between atoms: C17_26  and  N4_28 
REMARK   15  A    between atoms: N4_28  and  C18_30 
REMARK   16  A    between atoms: C18_30  and  C19_31 
REMARK   17  A    between atoms: C20_33  and  C21_34 
REMARK   18  A    between atoms: C21_34  and  O5_35 
REMARK   19  A    between atoms: C22_37  and  O6_38 
REMARK   20  A    between atoms: C23_40  and  N5_41 
ROOT
HETATM    1  C14 UNL     1      54.534  -0.796  40.169  1.00  0.00     0.004 C 
ENDROOT
BRANCH   1   2
HETATM    2  C13 UNL     1      53.342  -0.997  39.249  1.00  0.00     0.027 C 
BRANCH   2   3
HETATM    3  C12 UNL     1      53.660  -1.378  37.872  1.00  0.00    -0.031 C 
BRANCH   3   4
HETATM    4  C11 UNL     1      54.777  -0.847  37.104  1.00  0.00    -0.031 C 
BRANCH   4   5
HETATM    5  C10 UNL     1      54.858   0.558  36.662  1.00  0.00     0.027 C 
BRANCH   5   6
HETATM    6  C9  UNL     1      55.562   1.467  37.577  1.00  0.00     0.004 C 
BRANCH   6   7
HETATM    7  C8  UNL     1      54.682   2.619  38.058  1.00  0.00     0.002 C 
BRANCH   7   8
HETATM    8  C7  UNL     1      54.807   2.844  39.554  1.00  0.00     0.027 C 
BRANCH   8   9
HETATM    9  C6  UNL     1      56.258   3.065  39.840  1.00  0.00     0.176 C 
BRANCH   9  10
HETATM   10  O2  UNL     1      56.587   3.778  40.974  1.00  0.00    -0.344 OA
BRANCH  10  11
HETATM   11  C5  UNL     1      57.579   4.721  41.079  1.00  0.00     0.160 A 
HETATM   12  C2  UNL     1      58.897   4.472  41.361  1.00  0.00     0.061 A 
HETATM   13  C1  UNL     1      59.369   3.089  41.616  1.00  0.00     0.072 C 
HETATM   14  N1  UNL     1      59.807   5.488  41.439  1.00  0.00    -0.193 N 
HETATM   15  C3  UNL     1      59.406   6.753  41.237  1.00  0.00     0.679 A 
ATOM     16  H1  UNL     1      60.785   5.287  41.650  1.00  0.00     0.184 HD
HETATM   17  N3  UNL     1      58.127   7.020  40.962  1.00  0.00    -0.154 N 
HETATM   18  C4  UNL     1      57.224   6.049  40.881  1.00  0.00     0.295 A 
ATOM     19  H3  UNL     1      57.838   7.987  40.812  1.00  0.00     0.187 HD
HETATM   20  O1  UNL     1      56.029   6.319  40.621  1.00  0.00    -0.265 OA
BRANCH  15  21
HETATM   21  N2  UNL     1      60.262   7.718  41.310  1.00  0.00    -0.234 N 
ATOM     22  H22 UNL     1      60.246   8.351  42.109  1.00  0.00     0.174 HD
ATOM     23  H21 UNL     1      60.950   7.842  40.567  1.00  0.00     0.174 HD
ENDBRANCH  15  21
ENDBRANCH  10  11
ENDBRANCH   9  10
ENDBRANCH   8   9
ENDBRANCH   7   8
ENDBRANCH   6   7
ENDBRANCH   5   6
ENDBRANCH   4   5
ENDBRANCH   3   4
ENDBRANCH   2   3
ENDBRANCH   1   2
BRANCH   1  24
HETATM   24  C15 UNL     1      54.147  -0.067  41.426  1.00  0.00     0.010 C 
BRANCH  24  25
HETATM   25  C16 UNL     1      55.240   0.461  42.264  1.00  0.00     0.103 C 
BRANCH  25  26
HETATM   26  C17 UNL     1      54.832   1.268  43.438  1.00  0.00     0.217 C 
HETATM   27  O3  UNL     1      55.494   1.261  44.514  1.00  0.00    -0.274 OA
HETATM   28  N4  UNL     1      53.677   2.091  43.414  1.00  0.00    -0.359 N 
ATOM     29  H4  UNL     1      53.113   2.131  42.565  1.00  0.00     0.162 HD
BRANCH  28  30
HETATM   30  C18 UNL     1      53.283   2.865  44.547  1.00  0.00     0.156 C 
BRANCH  30  31
HETATM   31  C19 UNL     1      52.675   4.194  44.158  1.00  0.00     0.166 C 
HETATM   32  O4  UNL     1      51.285   4.158  44.103  1.00  0.00    -0.372 OA
HETATM   33  C20 UNL     1      50.986   5.399  43.548  1.00  0.00     0.176 C 
HETATM   34  C22 UNL     1      52.013   5.700  42.500  1.00  0.00     0.175 C 
HETATM   35  C23 UNL     1      53.049   4.610  42.763  1.00  0.00     0.160 C 
BRANCH  33  36
HETATM   36  C21 UNL     1      49.577   5.443  42.998  1.00  0.00     0.198 C 
BRANCH  36  37
HETATM   37  O5  UNL     1      49.243   6.798  42.837  1.00  0.00    -0.398 OA
ATOM     38  H5  UNL     1      49.987   7.218  42.421  1.00  0.00     0.209 HD
ENDBRANCH  36  37
ENDBRANCH  33  36
BRANCH  34  39
HETATM   39  O6  UNL     1      51.537   5.675  41.208  1.00  0.00    -0.391 OA
ATOM     40  H6  UNL     1      52.195   5.493  40.548  1.00  0.00     0.210 HD
ENDBRANCH  34  39
BRANCH  35  41
HETATM   41  N5  UNL     1      54.353   5.165  42.685  1.00  0.00    -0.333 N 
HETATM   42  N6  UNL     1      54.746   5.953  43.555  1.00  0.00    -0.349 N 
ATOM     43  H62 UNL     1      54.119   6.194  44.322  1.00  0.00     0.176 HD
ATOM     44  H61 UNL     1      55.684   6.352  43.499  1.00  0.00     0.176 HD
ATOM     45  H5  UNL     1      54.968   4.914  41.911  1.00  0.00     0.180 HD
ENDBRANCH  35  41
ENDBRANCH  30  31
ENDBRANCH  28  30
ENDBRANCH  25  26
ENDBRANCH  24  25
ENDBRANCH   1  24
TORSDOF 20
ENDMDL
MODEL 3
REMARK VINA RESULT: -5.782268044      3.300      5.770
REMARK  20 active torsions:
REMARK  status: ('A' for Active; 'I' for Inactive)
REMARK    1  A    between atoms: C3_5  and  N2_6 
REMARK    2  A    between atoms: C5_13  and  O2_14 
REMARK    3  A    between atoms: O2_14  and  C6_15 
REMARK    4  A    between atoms: C6_15  and  C7_16 
REMARK    5  A    between atoms: C7_16  and  C8_17 
REMARK    6  A    between atoms: C8_17  and  C9_18 
REMARK    7  A    between atoms: C9_18  and  C10_19 
REMARK    8  A    between atoms: C10_19  and  C11_20 
REMARK    9  A    between atoms: C11_20  and  C12_21 
REMARK   10  A    between atoms: C12_21  and  C13_22 
REMARK   11  A    between atoms: C13_22  and  C14_23 
REMARK   12  A    between atoms: C14_23  and  C15_24 
REMARK   13  A    between atoms: C15_24  and  C16_25 
REMARK   14  A    between atoms: C16_25  and  C17_26 
REMARK       I    between atoms: C17_26  and  N4_28 
REMARK   15  A    between atoms: N4_28  and  C18_30 
REMARK   16  A    between atoms: C18_30  and  C19_31 
REMARK   17  A    between atoms: C20_33  and  C21_34 
REMARK   18  A    between atoms: C21_34  and  O5_35 
REMARK   19  A    between atoms: C22_37  and  O6_38 
REMARK   20  A    between atoms: C23_40  and  N5_41 
ROOT
HETATM    1  C14 UNL     1      53.486  -0.839  39.496  1.00  0.00     0.004 C 
ENDROOT
BRANCH   1   2
HETATM    2  C13 UNL     1      53.703  -1.480  38.137  1.00  0.00     0.027 C 
BRANCH   2   3
HETATM    3  C12 UNL     1      54.774  -0.900  37.324  1.00  0.00    -0.031 C 
BRANCH   3   4
HETATM    4  C11 UNL     1      54.671   0.356  36.596  1.00  0.00    -0.031 C 
BRANCH   4   5
HETATM    5  C10 UNL     1      55.534   1.520  36.869  1.00  0.00     0.027 C 
BRANCH   5   6
HETATM    6  C9  UNL     1      55.352   2.144  38.187  1.00  0.00     0.004 C 
BRANCH   6   7
HETATM    7  C8  UNL     1      56.641   2.177  39.007  1.00  0.00     0.002 C 
BRANCH   7   8
HETATM    8  C7  UNL     1      57.732   1.324  38.385  1.00  0.00     0.027 C 
BRANCH   8   9
HETATM    9  C6  UNL     1      59.000   2.111  38.472  1.00  0.00     0.176 C 
BRANCH   9  10
HETATM   10  O2  UNL     1      60.153   1.434  38.809  1.00  0.00    -0.344 OA
BRANCH  10  11
HETATM   11  C5  UNL     1      60.223   0.182  39.367  1.00  0.00     0.160 A 
HETATM   12  C2  UNL     1      59.925  -0.136  40.666  1.00  0.00     0.061 A 
HETATM   13  C1  UNL     1      59.508   0.915  41.627  1.00  0.00     0.072 C 
HETATM   14  N1  UNL     1      60.025  -1.421  41.122  1.00  0.00    -0.193 N 
HETATM   15  C3  UNL     1      60.424  -2.390  40.283  1.00  0.00     0.679 A 
ATOM     16  H1  UNL     1      59.800  -1.641  42.092  1.00  0.00     0.184 HD
HETATM   17  N3  UNL     1      60.721  -2.105  39.013  1.00  0.00    -0.154 N 
HETATM   18  C4  UNL     1      60.630  -0.863  38.548  1.00  0.00     0.295 A 
ATOM     19  H3  UNL     1      61.023  -2.853  38.388  1.00  0.00     0.187 HD
HETATM   20  O1  UNL     1      60.913  -0.615  37.353  1.00  0.00    -0.265 OA
BRANCH  15  21
HETATM   21  N2  UNL     1      60.520  -3.607  40.707  1.00  0.00    -0.234 N 
ATOM     22  H22 UNL     1      59.740  -4.032  41.208  1.00  0.00     0.174 HD
ATOM     23  H21 UNL     1      61.376  -4.136  40.540  1.00  0.00     0.174 HD
ENDBRANCH  15  21
ENDBRANCH  10  11
ENDBRANCH   9  10
ENDBRANCH   8   9
ENDBRANCH   7   8
ENDBRANCH   6   7
ENDBRANCH   5   6
ENDBRANCH   4   5
ENDBRANCH   3   4
ENDBRANCH   2   3
ENDBRANCH   1   2
BRANCH   1  24
HETATM   24  C15 UNL     1      54.790  -0.538  40.182  1.00  0.00     0.010 C 
BRANCH  24  25
HETATM   25  C16 UNL     1      54.746  -0.289  41.635  1.00  0.00     0.103 C 
BRANCH  25  26
HETATM   26  C17 UNL     1      54.915   1.120  42.062  1.00  0.00     0.217 C 
HETATM   27  O3  UNL     1      54.030   1.995  41.838  1.00  0.00    -0.274 OA
HETATM   28  N4  UNL     1      56.078   1.560  42.745  1.00  0.00    -0.359 N 
ATOM     29  H4  UNL     1      56.817   0.888  42.950  1.00  0.00     0.162 HD
BRANCH  28  30
HETATM   30  C18 UNL     1      56.241   2.919  43.152  1.00  0.00     0.156 C 
BRANCH  30  31
HETATM   31  C19 UNL     1      56.831   3.785  42.062  1.00  0.00     0.166 C 
HETATM   32  O4  UNL     1      58.071   4.314  42.405  1.00  0.00    -0.372 OA
HETATM   33  C20 UNL     1      58.304   5.203  41.358  1.00  0.00     0.176 C 
HETATM   34  C22 UNL     1      57.004   5.863  41.011  1.00  0.00     0.175 C 
HETATM   35  C23 UNL     1      56.009   5.015  41.798  1.00  0.00     0.160 C 
BRANCH  33  36
HETATM   36  C21 UNL     1      59.381   6.208  41.705  1.00  0.00     0.198 C 
BRANCH  36  37
HETATM   37  O5  UNL     1      59.542   7.038  40.583  1.00  0.00    -0.398 OA
ATOM     38  H5  UNL     1      60.461   7.275  40.544  1.00  0.00     0.209 HD
ENDBRANCH  36  37
ENDBRANCH  33  36
BRANCH  34  39
HETATM   39  O6  UNL     1      56.936   7.199  41.339  1.00  0.00    -0.391 OA
ATOM     40  H6  UNL     1      56.054   7.551  41.373  1.00  0.00     0.210 HD
ENDBRANCH  34  39
BRANCH  35  41
HETATM   41  N5  UNL     1      54.869   4.753  40.995  1.00  0.00    -0.333 N 
HETATM   42  N6  UNL     1      53.735   5.003  41.424  1.00  0.00    -0.349 N 
ATOM     43  H62 UNL     1      53.638   5.398  42.359  1.00  0.00     0.176 HD
ATOM     44  H61 UNL     1      52.915   4.814  40.847  1.00  0.00     0.176 HD
ATOM     45  H5  UNL     1      54.983   4.357  40.062  1.00  0.00     0.180 HD
ENDBRANCH  35  41
ENDBRANCH  30  31
ENDBRANCH  28  30
ENDBRANCH  25  26
ENDBRANCH  24  25
ENDBRANCH   1  24
TORSDOF 20
ENDMDL
MODEL 4
REMARK VINA RESULT: -5.636236145      2.239      5.737
REMARK  20 active torsions:
REMARK  status: ('A' for Active; 'I' for Inactive)
REMARK    1  A    between atoms: C3_5  and  N2_6 
REMARK    2  A    between atoms: C5_13  and  O2_14 
REMARK    3  A    between atoms: O2_14  and  C6_15 
REMARK    4  A    between atoms: C6_15  and  C7_16 
REMARK    5  A    between atoms: C7_16  and  C8_17 
REMARK    6  A    between atoms: C8_17  and  C9_18 
REMARK    7  A    between atoms: C9_18  and  C10_19 
REMARK    8  A    between atoms: C10_19  and  C11_20 
REMARK    9  A    between atoms: C11_20  and  C12_21 
REMARK   10  A    between atoms: C12_21  and  C13_22 
REMARK   11  A    between atoms: C13_22  and  C14_23 
REMARK   12  A    between atoms: C14_23  and  C15_24 
REMARK   13  A    between atoms: C15_24  and  C16_25 
REMARK   14  A    between atoms: C16_25  and  C17_26 
REMARK       I    between atoms: C17_26  and  N4_28 
REMARK   15  A    between atoms: N4_28  and  C18_30 
REMARK   16  A    between atoms: C18_30  and  C19_31 
REMARK   17  A    between atoms: C20_33  and  C21_34 
REMARK   18  A    between atoms: C21_34  and  O5_35 
REMARK   19  A    between atoms: C22_37  and  O6_38 
REMARK   20  A    between atoms: C23_40  and  N5_41 
ROOT
HETATM    1  C14 UNL     1      54.783  -0.691  36.929  1.00  0.00     0.004 C 
ENDROOT
BRANCH   1   2
HETATM    2  C13 UNL     1      54.021  -1.180  38.148  1.00  0.00     0.027 C 
BRANCH   2   3
HETATM    3  C12 UNL     1      54.666  -0.939  39.440  1.00  0.00    -0.031 C 
BRANCH   3   4
HETATM    4  C11 UNL     1      53.981  -0.453  40.629  1.00  0.00    -0.031 C 
BRANCH   4   5
HETATM    5  C10 UNL     1      54.674   0.220  41.742  1.00  0.00     0.027 C 
BRANCH   5   6
HETATM    6  C9  UNL     1      53.931   0.271  43.009  1.00  0.00     0.004 C 
BRANCH   6   7
HETATM    7  C8  UNL     1      53.919   1.667  43.631  1.00  0.00     0.002 C 
BRANCH   7   8
HETATM    8  C7  UNL     1      55.124   2.487  43.208  1.00  0.00     0.027 C 
BRANCH   8   9
HETATM    9  C6  UNL     1      55.064   3.772  43.970  1.00  0.00     0.176 C 
BRANCH   9  10
HETATM   10  O2  UNL     1      54.639   4.898  43.296  1.00  0.00    -0.344 OA
BRANCH  10  11
HETATM   11  C5  UNL     1      53.341   5.330  43.179  1.00  0.00     0.160 A 
HETATM   12  C2  UNL     1      52.619   5.977  44.147  1.00  0.00     0.061 A 
HETATM   13  C1  UNL     1      53.213   6.248  45.480  1.00  0.00     0.072 C 
HETATM   14  N1  UNL     1      51.329   6.368  43.926  1.00  0.00    -0.193 N 
HETATM   15  C3  UNL     1      50.756   6.115  42.738  1.00  0.00     0.679 A 
ATOM     16  H1  UNL     1      50.805   6.849  44.657  1.00  0.00     0.184 HD
HETATM   17  N3  UNL     1      51.439   5.486  41.779  1.00  0.00    -0.154 N 
HETATM   18  C4  UNL     1      52.695   5.096  41.972  1.00  0.00     0.295 A 
ATOM     19  H3  UNL     1      50.989   5.300  40.882  1.00  0.00     0.187 HD
HETATM   20  O1  UNL     1      53.319   4.507  41.060  1.00  0.00    -0.265 OA
BRANCH  15  21
HETATM   21  N2  UNL     1      49.536   6.483  42.522  1.00  0.00    -0.234 N 
ATOM     22  H22 UNL     1      48.766   5.928  42.895  1.00  0.00     0.174 HD
ATOM     23  H21 UNL     1      49.350   7.326  41.979  1.00  0.00     0.174 HD
ENDBRANCH  15  21
ENDBRANCH  10  11
ENDBRANCH   9  10
ENDBRANCH   8   9
ENDBRANCH   7   8
ENDBRANCH   6   7
ENDBRANCH   5   6
ENDBRANCH   4   5
ENDBRANCH   3   4
ENDBRANCH   2   3
ENDBRANCH   1   2
BRANCH   1  24
HETATM   24  C15 UNL     1      54.307   0.666  36.486  1.00  0.00     0.010 C 
BRANCH  24  25
HETATM   25  C16 UNL     1      55.219   1.804  36.702  1.00  0.00     0.103 C 
BRANCH  25  26
HETATM   26  C17 UNL     1      55.638   2.049  38.102  1.00  0.00     0.217 C 
HETATM   27  O3  UNL     1      54.861   2.578  38.948  1.00  0.00    -0.274 OA
HETATM   28  N4  UNL     1      56.932   1.700  38.567  1.00  0.00    -0.359 N 
ATOM     29  H4  UNL     1      57.592   1.267  37.921  1.00  0.00     0.162 HD
BRANCH  28  30
HETATM   30  C18 UNL     1      57.336   1.940  39.916  1.00  0.00     0.156 C 
BRANCH  30  31
HETATM   31  C19 UNL     1      58.028   3.273  40.086  1.00  0.00     0.166 C 
HETATM   32  O4  UNL     1      59.287   3.158  40.666  1.00  0.00    -0.372 OA
HETATM   33  C20 UNL     1      59.623   4.490  40.893  1.00  0.00     0.176 C 
HETATM   34  C22 UNL     1      58.388   5.212  41.337  1.00  0.00     0.175 C 
HETATM   35  C23 UNL     1      57.306   4.177  41.045  1.00  0.00     0.160 C 
BRANCH  33  36
HETATM   36  C21 UNL     1      60.753   4.622  41.891  1.00  0.00     0.198 C 
BRANCH  36  37
HETATM   37  O5  UNL     1      60.550   3.637  42.871  1.00  0.00    -0.398 OA
ATOM     38  H5  UNL     1      60.204   4.078  43.638  1.00  0.00     0.209 HD
ENDBRANCH  36  37
ENDBRANCH  33  36
BRANCH  34  39
HETATM   39  O6  UNL     1      58.400   5.606  42.657  1.00  0.00    -0.391 OA
ATOM     40  H6  UNL     1      58.157   4.926  43.274  1.00  0.00     0.210 HD
ENDBRANCH  34  39
BRANCH  35  41
HETATM   41  N5  UNL     1      56.182   4.816  40.458  1.00  0.00    -0.333 N 
HETATM   42  N6  UNL     1      55.962   6.014  40.680  1.00  0.00    -0.349 N 
ATOM     43  H62 UNL     1      56.598   6.528  41.289  1.00  0.00     0.176 HD
ATOM     44  H61 UNL     1      55.155   6.473  40.258  1.00  0.00     0.176 HD
ATOM     45  H5  UNL     1      55.555   4.288  39.851  1.00  0.00     0.180 HD
ENDBRANCH  35  41
ENDBRANCH  30  31
ENDBRANCH  28  30
ENDBRANCH  25  26
ENDBRANCH  24  25
ENDBRANCH   1  24
TORSDOF 20
ENDMDL
MODEL 5
REMARK VINA RESULT: -5.630114162      3.968      5.918
REMARK  20 active torsions:
REMARK  status: ('A' for Active; 'I' for Inactive)
REMARK    1  A    between atoms: C3_5  and  N2_6 
REMARK    2  A    between atoms: C5_13  and  O2_14 
REMARK    3  A    between atoms: O2_14  and  C6_15 
REMARK    4  A    between atoms: C6_15  and  C7_16 
REMARK    5  A    between atoms: C7_16  and  C8_17 
REMARK    6  A    between atoms: C8_17  and  C9_18 
REMARK    7  A    between atoms: C9_18  and  C10_19 
REMARK    8  A    between atoms: C10_19  and  C11_20 
REMARK    9  A    between atoms: C11_20  and  C12_21 
REMARK   10  A    between atoms: C12_21  and  C13_22 
REMARK   11  A    between atoms: C13_22  and  C14_23 
REMARK   12  A    between atoms: C14_23  and  C15_24 
REMARK   13  A    between atoms: C15_24  and  C16_25 
REMARK   14  A    between atoms: C16_25  and  C17_26 
REMARK       I    between atoms: C17_26  and  N4_28 
REMARK   15  A    between atoms: N4_28  and  C18_30 
REMARK   16  A    between atoms: C18_30  and  C19_31 
REMARK   17  A    between atoms: C20_33  and  C21_34 
REMARK   18  A    between atoms: C21_34  and  O5_35 
REMARK   19  A    between atoms: C22_37  and  O6_38 
REMARK   20  A    between atoms: C23_40  and  N5_41 
ROOT
HETATM    1  C14 UNL     1      53.403  -0.961  38.999  1.00  0.00     0.004 C 
ENDROOT
BRANCH   1   2
HETATM    2  C13 UNL     1      54.634  -1.223  38.150  1.00  0.00     0.027 C 
BRANCH   2   3
HETATM    3  C12 UNL     1      54.671  -0.541  36.855  1.00  0.00    -0.031 C 
BRANCH   3   4
HETATM    4  C11 UNL     1      54.791   0.899  36.682  1.00  0.00    -0.031 C 
BRANCH   4   5
HETATM    5  C10 UNL     1      55.607   1.753  37.564  1.00  0.00     0.027 C 
BRANCH   5   6
HETATM    6  C9  UNL     1      57.018   1.362  37.691  1.00  0.00     0.004 C 
BRANCH   6   7
HETATM    7  C8  UNL     1      57.747   2.130  38.792  1.00  0.00     0.002 C 
BRANCH   7   8
HETATM    8  C7  UNL     1      59.247   2.163  38.564  1.00  0.00     0.027 C 
BRANCH   8   9
HETATM    9  C6  UNL     1      59.870   1.343  39.648  1.00  0.00     0.176 C 
BRANCH   9  10
HETATM   10  O2  UNL     1      61.053   0.695  39.363  1.00  0.00    -0.344 OA
BRANCH  10  11
HETATM   11  C5  UNL     1      61.824   0.872  38.241  1.00  0.00     0.160 A 
HETATM   12  C2  UNL     1      62.697   1.905  38.020  1.00  0.00     0.061 A 
HETATM   13  C1  UNL     1      62.862   2.984  39.025  1.00  0.00     0.072 C 
HETATM   14  N1  UNL     1      63.421   1.986  36.864  1.00  0.00    -0.193 N 
HETATM   15  C3  UNL     1      63.274   1.038  35.925  1.00  0.00     0.679 A 
ATOM     16  H1  UNL     1      64.067   2.761  36.715  1.00  0.00     0.184 HD
HETATM   17  N3  UNL     1      62.429   0.022  36.116  1.00  0.00    -0.154 N 
HETATM   18  C4  UNL     1      61.715  -0.077  37.233  1.00  0.00     0.295 A 
ATOM     19  H3  UNL     1      62.329  -0.691  35.393  1.00  0.00     0.187 HD
HETATM   20  O1  UNL     1      60.928  -1.037  37.394  1.00  0.00    -0.265 OA
BRANCH  15  21
HETATM   21  N2  UNL     1      63.956   1.108  34.830  1.00  0.00    -0.234 N 
ATOM     22  H22 UNL     1      64.227   2.019  34.459  1.00  0.00     0.174 HD
ATOM     23  H21 UNL     1      64.220   0.252  34.341  1.00  0.00     0.174 HD
ENDBRANCH  15  21
ENDBRANCH  10  11
ENDBRANCH   9  10
ENDBRANCH   8   9
ENDBRANCH   7   8
ENDBRANCH   6   7
ENDBRANCH   5   6
ENDBRANCH   4   5
ENDBRANCH   3   4
ENDBRANCH   2   3
ENDBRANCH   1   2
BRANCH   1  24
HETATM   24  C15 UNL     1      53.771  -0.581  40.407  1.00  0.00     0.010 C 
BRANCH  24  25
HETATM   25  C16 UNL     1      55.149  -0.113  40.641  1.00  0.00     0.103 C 
BRANCH  25  26
HETATM   26  C17 UNL     1      55.288   1.194  41.328  1.00  0.00     0.217 C 
HETATM   27  O3  UNL     1      54.382   2.074  41.274  1.00  0.00    -0.274 OA
HETATM   28  N4  UNL     1      56.443   1.522  42.082  1.00  0.00    -0.359 N 
ATOM     29  H4  UNL     1      57.198   0.841  42.157  1.00  0.00     0.162 HD
BRANCH  28  30
HETATM   30  C18 UNL     1      56.576   2.782  42.741  1.00  0.00     0.156 C 
BRANCH  30  31
HETATM   31  C19 UNL     1      57.085   3.867  41.819  1.00  0.00     0.166 C 
HETATM   32  O4  UNL     1      58.344   4.338  42.182  1.00  0.00    -0.372 OA
HETATM   33  C20 UNL     1      58.499   5.430  41.331  1.00  0.00     0.176 C 
HETATM   34  C22 UNL     1      57.175   6.122  41.216  1.00  0.00     0.175 C 
HETATM   35  C23 UNL     1      56.241   5.110  41.873  1.00  0.00     0.160 C 
BRANCH  33  36
HETATM   36  C21 UNL     1      59.593   6.361  41.807  1.00  0.00     0.198 C 
BRANCH  36  37
HETATM   37  O5  UNL     1      59.757   7.340  40.813  1.00  0.00    -0.398 OA
ATOM     38  H5  UNL     1      60.370   7.980  41.154  1.00  0.00     0.209 HD
ENDBRANCH  36  37
ENDBRANCH  33  36
BRANCH  34  39
HETATM   39  O6  UNL     1      57.122   7.359  41.820  1.00  0.00    -0.391 OA
ATOM     40  H6  UNL     1      56.318   7.839  41.664  1.00  0.00     0.210 HD
ENDBRANCH  34  39
BRANCH  35  41
HETATM   41  N5  UNL     1      55.049   4.998  41.110  1.00  0.00    -0.333 N 
HETATM   42  N6  UNL     1      53.946   5.059  41.668  1.00  0.00    -0.349 N 
ATOM     43  H62 UNL     1      53.911   5.191  42.679  1.00  0.00     0.176 HD
ATOM     44  H61 UNL     1      53.089   4.979  41.120  1.00  0.00     0.176 HD
ATOM     45  H5  UNL     1      55.102   4.867  40.100  1.00  0.00     0.180 HD
ENDBRANCH  35  41
ENDBRANCH  30  31
ENDBRANCH  28  30
ENDBRANCH  25  26
ENDBRANCH  24  25
ENDBRANCH   1  24
TORSDOF 20
ENDMDL
