MODEL 1
REMARK VINA RESULT: -6.556312598      0.000      0.000
REMARK  18 active torsions:
REMARK  status: ('A' for Active; 'I' for Inactive)
REMARK    1  A    between atoms: C2_2  and  C3_4 
REMARK    2  A    between atoms: C3_4  and  C4_5 
REMARK    3  A    between atoms: C3_4  and  N2_9 
REMARK    4  A    between atoms: C4_5  and  C5_6 
REMARK    5  A    between atoms: N2_9  and  C6_12 
REMARK    6  A    between atoms: C6_12  and  C8_14 
REMARK    7  A    between atoms: C8_14  and  N3_15 
REMARK    8  A    between atoms: C8_14  and  C19_38 
REMARK    9  A    between atoms: N3_15  and  C9_17 
REMARK   10  A    between atoms: C9_17  and  C10_18 
REMARK   11  A    between atoms: C9_17  and  C11_20 
REMARK   12  A    between atoms: C11_20  and  C12_22 
REMARK       I    between atoms: C12_22  and  N4_24 
REMARK   13  A    between atoms: N4_24  and  C13_26 
REMARK   14  A    between atoms: C13_26  and  C14_27 
REMARK   15  A    between atoms: C13_26  and  C18_31 
REMARK   16  A    between atoms: C14_27  and  C15_28 
REMARK   17  A    between atoms: C18_31  and  N5_32 
REMARK   18  A    between atoms: C18_31  and  O6_36 
ROOT
HETATM    1  N3  UNL     1      56.310   3.314  39.876  1.00  0.00    -0.399 N 
ATOM      2  H3  UNL     1      56.086   3.153  38.894  1.00  0.00     0.154 HD
ENDROOT
BRANCH   1   3
HETATM    3  C8  UNL     1      57.346   2.500  40.237  1.00  0.00     0.112 C 
BRANCH   3   4
HETATM    4  C6  UNL     1      57.123   0.983  40.135  1.00  0.00     0.205 C 
HETATM    5  C7  UNL     1      57.403   0.295  41.485  1.00  0.00     0.042 C 
BRANCH   4   6
HETATM    6  N2  UNL     1      55.763   0.626  39.811  1.00  0.00    -0.058 N 
ATOM      7  H22 UNL     1      55.116   1.380  40.040  1.00  0.00     0.278 HD
ATOM      8  H21 UNL     1      55.406  -0.089  40.445  1.00  0.00     0.278 HD
BRANCH   6   9
HETATM    9  C3  UNL     1      55.629   0.215  38.416  1.00  0.00     0.263 C 
BRANCH   9  10
HETATM   10  C2  UNL     1      54.719   1.097  37.636  1.00  0.00     0.154 C 
HETATM   11  C1  UNL     1      54.460   1.011  36.188  1.00  0.00     0.093 C 
HETATM   12  O1  UNL     1      54.114   1.992  38.238  1.00  0.00    -0.296 OA
ENDBRANCH   9  10
BRANCH   9  13
HETATM   13  C4  UNL     1      54.906  -1.138  38.500  1.00  0.00     0.140 C 
BRANCH  13  14
HETATM   14  C5  UNL     1      53.585  -1.045  39.081  1.00  0.00     0.233 C 
HETATM   15  N1  UNL     1      53.407  -0.681  40.454  1.00  0.00    -0.062 NA
HETATM   16  O2  UNL     1      52.515  -1.275  38.430  1.00  0.00    -0.277 OA
ENDBRANCH  13  14
ENDBRANCH   9  13
ENDBRANCH   6   9
ENDBRANCH   4   6
ENDBRANCH   3   4
BRANCH   3  17
HETATM   17  C19 UNL     1      58.676   2.784  39.552  1.00  0.00     0.010 C 
HETATM   18  C20 UNL     1      59.894   2.436  40.356  1.00  0.00     0.007 C 
HETATM   19  C21 UNL     1      61.066   3.133  39.624  1.00  0.00     0.000 C 
HETATM   20  C22 UNL     1      61.260   2.540  38.267  1.00  0.00     0.000 C 
HETATM   21  C23 UNL     1      60.278   1.428  38.117  1.00  0.00     0.000 C 
HETATM   22  C24 UNL     1      58.823   1.872  38.344  1.00  0.00     0.007 C 
ENDBRANCH   3  17
ENDBRANCH   1   3
BRANCH   1  23
HETATM   23  C9  UNL     1      55.481   4.257  40.370  1.00  0.00     0.219 C 
BRANCH  23  24
HETATM   24  C10 UNL     1      56.286   5.319  41.094  1.00  0.00     0.264 C 
HETATM   25  O3  UNL     1      56.242   6.459  40.690  1.00  0.00    -0.304 OA
ENDBRANCH  23  24
BRANCH  23  26
HETATM   26  C11 UNL     1      54.415   3.890  41.341  1.00  0.00     0.245 C 
HETATM   27  O4  UNL     1      54.238   2.664  41.673  1.00  0.00    -0.284 OA
BRANCH  26  28
HETATM   28  C12 UNL     1      53.489   4.767  42.004  1.00  0.00     0.290 C 
HETATM   29  O5  UNL     1      52.651   5.448  41.375  1.00  0.00    -0.264 OA
HETATM   30  N4  UNL     1      53.482   4.896  43.462  1.00  0.00    -0.346 N 
ATOM     31  H4  UNL     1      54.134   4.347  44.023  1.00  0.00     0.163 HD
BRANCH  30  32
HETATM   32  C13 UNL     1      52.566   5.789  44.104  1.00  0.00     0.141 C 
BRANCH  32  33
HETATM   33  C14 UNL     1      51.525   5.080  44.928  1.00  0.00     0.033 C 
BRANCH  33  34
HETATM   34  C15 UNL     1      50.387   4.451  44.239  1.00  0.00    -0.021 C 
HETATM   35  C16 UNL     1      49.309   3.831  45.057  1.00  0.00     0.009 C 
HETATM   36  C17 UNL     1      49.724   5.551  43.385  1.00  0.00     0.009 C 
ENDBRANCH  33  34
ENDBRANCH  32  33
BRANCH  32  37
HETATM   37  C18 UNL     1      53.135   6.946  44.812  1.00  0.00     0.339 C 
BRANCH  37  38
HETATM   38  N5  UNL     1      54.579   7.051  44.706  1.00  0.00    -0.051 N 
ATOM     39  H53 UNL     1      54.991   7.264  45.614  1.00  0.00     0.277 HD
ATOM     40  H52 UNL     1      54.994   6.134  44.538  1.00  0.00     0.277 HD
ATOM     41  H51 UNL     1      54.895   7.721  44.004  1.00  0.00     0.277 HD
ENDBRANCH  37  38
BRANCH  37  42
HETATM   42  O6  UNL     1      52.550   8.123  44.321  1.00  0.00    -0.368 OA
ATOM     43  H6  UNL     1      51.823   8.368  44.881  1.00  0.00     0.212 HD
ENDBRANCH  37  42
ENDBRANCH  32  37
ENDBRANCH  30  32
ENDBRANCH  26  28
ENDBRANCH  23  26
ENDBRANCH   1  23
TORSDOF 18
ENDMDL
MODEL 2
REMARK VINA RESULT: -6.454697344      1.588      2.520
REMARK  18 active torsions:
REMARK  status: ('A' for Active; 'I' for Inactive)
REMARK    1  A    between atoms: C2_2  and  C3_4 
REMARK    2  A    between atoms: C3_4  and  C4_5 
REMARK    3  A    between atoms: C3_4  and  N2_9 
REMARK    4  A    between atoms: C4_5  and  C5_6 
REMARK    5  A    between atoms: N2_9  and  C6_12 
REMARK    6  A    between atoms: C6_12  and  C8_14 
REMARK    7  A    between atoms: C8_14  and  N3_15 
REMARK    8  A    between atoms: C8_14  and  C19_38 
REMARK    9  A    between atoms: N3_15  and  C9_17 
REMARK   10  A    between atoms: C9_17  and  C10_18 
REMARK   11  A    between atoms: C9_17  and  C11_20 
REMARK   12  A    between atoms: C11_20  and  C12_22 
REMARK       I    between atoms: C12_22  and  N4_24 
REMARK   13  A    between atoms: N4_24  and  C13_26 
REMARK   14  A    between atoms: C13_26  and  C14_27 
REMARK   15  A    between atoms: C13_26  and  C18_31 
REMARK   16  A    between atoms: C14_27  and  C15_28 
REMARK   17  A    between atoms: C18_31  and  N5_32 
REMARK   18  A    between atoms: C18_31  and  O6_36 
ROOT
HETATM    1  N3  UNL     1      56.438   3.128  39.604  1.00  0.00    -0.399 N 
ATOM      2  H3  UNL     1      56.854   3.670  38.846  1.00  0.00     0.154 HD
ENDROOT
BRANCH   1   3
HETATM    3  C8  UNL     1      56.761   1.811  39.442  1.00  0.00     0.112 C 
BRANCH   3   4
HETATM    4  C6  UNL     1      56.058   1.044  38.309  1.00  0.00     0.205 C 
HETATM    5  C7  UNL     1      56.343  -0.467  38.411  1.00  0.00     0.042 C 
BRANCH   4   6
HETATM    6  N2  UNL     1      54.621   1.155  38.350  1.00  0.00    -0.058 N 
ATOM      7  H22 UNL     1      54.325   2.127  38.441  1.00  0.00     0.278 HD
ATOM      8  H21 UNL     1      54.245   0.792  39.226  1.00  0.00     0.278 HD
BRANCH   6   9
HETATM    9  C3  UNL     1      53.996   0.515  37.197  1.00  0.00     0.263 C 
BRANCH   9  10
HETATM   10  C2  UNL     1      53.664   1.474  36.109  1.00  0.00     0.154 C 
HETATM   11  C1  UNL     1      52.320   1.979  35.779  1.00  0.00     0.093 C 
HETATM   12  O1  UNL     1      54.586   1.899  35.402  1.00  0.00    -0.296 OA
ENDBRANCH   9  10
BRANCH   9  13
HETATM   13  C4  UNL     1      52.640   0.032  37.735  1.00  0.00     0.140 C 
BRANCH  13  14
HETATM   14  C5  UNL     1      52.757  -1.046  38.692  1.00  0.00     0.233 C 
HETATM   15  N1  UNL     1      53.216  -0.802  40.026  1.00  0.00    -0.062 NA
HETATM   16  O2  UNL     1      52.468  -2.257  38.423  1.00  0.00    -0.277 OA
ENDBRANCH  13  14
ENDBRANCH   9  13
ENDBRANCH   6   9
ENDBRANCH   4   6
ENDBRANCH   3   4
BRANCH   3  17
HETATM   17  C19 UNL     1      58.247   1.509  39.305  1.00  0.00     0.010 C 
HETATM   18  C20 UNL     1      58.908   2.095  38.093  1.00  0.00     0.007 C 
HETATM   19  C21 UNL     1      60.269   1.366  37.990  1.00  0.00     0.000 C 
HETATM   20  C22 UNL     1      61.133   1.706  39.161  1.00  0.00     0.000 C 
HETATM   21  C23 UNL     1      60.388   2.690  39.998  1.00  0.00     0.000 C 
HETATM   22  C24 UNL     1      59.004   2.185  40.437  1.00  0.00     0.007 C 
ENDBRANCH   3  17
ENDBRANCH   1   3
BRANCH   1  23
HETATM   23  C9  UNL     1      55.759   3.960  40.420  1.00  0.00     0.219 C 
BRANCH  23  24
HETATM   24  C10 UNL     1      56.578   5.211  40.676  1.00  0.00     0.264 C 
HETATM   25  O3  UNL     1      56.019   6.284  40.667  1.00  0.00    -0.304 OA
ENDBRANCH  23  24
BRANCH  23  26
HETATM   26  C11 UNL     1      55.350   3.515  41.780  1.00  0.00     0.245 C 
HETATM   27  O4  UNL     1      56.172   2.870  42.523  1.00  0.00    -0.284 OA
BRANCH  26  28
HETATM   28  C12 UNL     1      54.080   3.711  42.426  1.00  0.00     0.290 C 
HETATM   29  O5  UNL     1      53.483   2.785  43.015  1.00  0.00    -0.264 OA
HETATM   30  N4  UNL     1      53.428   5.021  42.426  1.00  0.00    -0.346 N 
ATOM     31  H4  UNL     1      53.882   5.815  41.975  1.00  0.00     0.163 HD
BRANCH  30  32
HETATM   32  C13 UNL     1      52.154   5.194  43.056  1.00  0.00     0.141 C 
BRANCH  32  33
HETATM   33  C14 UNL     1      52.244   5.855  44.406  1.00  0.00     0.033 C 
BRANCH  33  34
HETATM   34  C15 UNL     1      53.424   6.680  44.710  1.00  0.00    -0.021 C 
HETATM   35  C16 UNL     1      53.222   8.107  45.086  1.00  0.00     0.009 C 
HETATM   36  C17 UNL     1      54.143   6.004  45.895  1.00  0.00     0.009 C 
ENDBRANCH  33  34
ENDBRANCH  32  33
BRANCH  32  37
HETATM   37  C18 UNL     1      51.067   5.754  42.239  1.00  0.00     0.339 C 
BRANCH  37  38
HETATM   38  N5  UNL     1      50.003   6.369  43.014  1.00  0.00    -0.051 N 
ATOM     39  H53 UNL     1      49.964   5.966  43.951  1.00  0.00     0.277 HD
ATOM     40  H52 UNL     1      50.244   7.332  43.250  1.00  0.00     0.277 HD
ATOM     41  H51 UNL     1      49.087   6.327  42.567  1.00  0.00     0.277 HD
ENDBRANCH  37  38
BRANCH  37  42
HETATM   42  O6  UNL     1      51.596   6.701  41.351  1.00  0.00    -0.368 OA
ATOM     43  H6  UNL     1      51.344   6.473  40.464  1.00  0.00     0.212 HD
ENDBRANCH  37  42
ENDBRANCH  32  37
ENDBRANCH  30  32
ENDBRANCH  26  28
ENDBRANCH  23  26
ENDBRANCH   1  23
TORSDOF 18
ENDMDL
MODEL 3
REMARK VINA RESULT: -6.445910700      3.234      8.804
REMARK  18 active torsions:
REMARK  status: ('A' for Active; 'I' for Inactive)
REMARK    1  A    between atoms: C2_2  and  C3_4 
REMARK    2  A    between atoms: C3_4  and  C4_5 
REMARK    3  A    between atoms: C3_4  and  N2_9 
REMARK    4  A    between atoms: C4_5  and  C5_6 
REMARK    5  A    between atoms: N2_9  and  C6_12 
REMARK    6  A    between atoms: C6_12  and  C8_14 
REMARK    7  A    between atoms: C8_14  and  N3_15 
REMARK    8  A    between atoms: C8_14  and  C19_38 
REMARK    9  A    between atoms: N3_15  and  C9_17 
REMARK   10  A    between atoms: C9_17  and  C10_18 
REMARK   11  A    between atoms: C9_17  and  C11_20 
REMARK   12  A    between atoms: C11_20  and  C12_22 
REMARK       I    between atoms: C12_22  and  N4_24 
REMARK   13  A    between atoms: N4_24  and  C13_26 
REMARK   14  A    between atoms: C13_26  and  C14_27 
REMARK   15  A    between atoms: C13_26  and  C18_31 
REMARK   16  A    between atoms: C14_27  and  C15_28 
REMARK   17  A    between atoms: C18_31  and  N5_32 
REMARK   18  A    between atoms: C18_31  and  O6_36 
ROOT
HETATM    1  N3  UNL     1      57.148   1.623  40.648  1.00  0.00    -0.399 N 
ATOM      2  H3  UNL     1      57.099   2.547  40.221  1.00  0.00     0.154 HD
ENDROOT
BRANCH   1   3
HETATM    3  C8  UNL     1      55.897   1.074  40.669  1.00  0.00     0.112 C 
BRANCH   3   4
HETATM    4  C6  UNL     1      54.823   1.791  41.503  1.00  0.00     0.205 C 
HETATM    5  C7  UNL     1      55.011   1.502  43.005  1.00  0.00     0.042 C 
BRANCH   4   6
HETATM    6  N2  UNL     1      54.878   3.228  41.392  1.00  0.00    -0.058 N 
ATOM      7  H22 UNL     1      54.381   3.556  40.564  1.00  0.00     0.278 HD
ATOM      8  H21 UNL     1      55.816   3.546  41.151  1.00  0.00     0.278 HD
BRANCH   6   9
HETATM    9  C3  UNL     1      54.388   3.884  42.601  1.00  0.00     0.263 C 
BRANCH   9  10
HETATM   10  C2  UNL     1      53.084   4.571  42.401  1.00  0.00     0.154 C 
HETATM   11  C1  UNL     1      52.088   4.863  43.448  1.00  0.00     0.093 C 
HETATM   12  O1  UNL     1      52.786   4.940  41.259  1.00  0.00    -0.296 OA
ENDBRANCH   9  10
BRANCH   9  13
HETATM   13  C4  UNL     1      55.404   5.010  42.844  1.00  0.00     0.140 C 
BRANCH  13  14
HETATM   14  C5  UNL     1      56.315   5.208  41.739  1.00  0.00     0.233 C 
HETATM   15  N1  UNL     1      55.960   6.042  40.631  1.00  0.00    -0.062 NA
HETATM   16  O2  UNL     1      57.466   4.666  41.673  1.00  0.00    -0.277 OA
ENDBRANCH  13  14
ENDBRANCH   9  13
ENDBRANCH   6   9
ENDBRANCH   4   6
ENDBRANCH   3   4
BRANCH   3  17
HETATM   17  C19 UNL     1      55.272   0.807  39.306  1.00  0.00     0.010 C 
HETATM   18  C20 UNL     1      56.151   1.113  38.130  1.00  0.00     0.007 C 
HETATM   19  C21 UNL     1      55.198   1.113  36.911  1.00  0.00     0.000 C 
HETATM   20  C22 UNL     1      54.637  -0.254  36.687  1.00  0.00     0.000 C 
HETATM   21  C23 UNL     1      55.250  -1.163  37.699  1.00  0.00     0.000 C 
HETATM   22  C24 UNL     1      55.036  -0.687  39.146  1.00  0.00     0.007 C 
ENDBRANCH   3  17
ENDBRANCH   1   3
BRANCH   1  23
HETATM   23  C9  UNL     1      58.424   1.363  40.998  1.00  0.00     0.219 C 
BRANCH  23  24
HETATM   24  C10 UNL     1      59.365   2.241  40.196  1.00  0.00     0.264 C 
HETATM   25  O3  UNL     1      58.930   2.837  39.237  1.00  0.00    -0.304 OA
ENDBRANCH  23  24
BRANCH  23  26
HETATM   26  C11 UNL     1      58.987  -0.005  40.839  1.00  0.00     0.245 C 
HETATM   27  O4  UNL     1      59.118  -0.773  41.858  1.00  0.00    -0.284 OA
BRANCH  26  28
HETATM   28  C12 UNL     1      59.442  -0.634  39.630  1.00  0.00     0.290 C 
HETATM   29  O5  UNL     1      58.651  -1.116  38.791  1.00  0.00    -0.264 OA
HETATM   30  N4  UNL     1      60.870  -0.734  39.322  1.00  0.00    -0.346 N 
ATOM     31  H4  UNL     1      61.557  -0.340  39.964  1.00  0.00     0.163 HD
BRANCH  30  32
HETATM   32  C13 UNL     1      61.307  -1.383  38.122  1.00  0.00     0.141 C 
BRANCH  32  33
HETATM   33  C14 UNL     1      62.375  -0.616  37.388  1.00  0.00     0.033 C 
BRANCH  33  34
HETATM   34  C15 UNL     1      61.966   0.406  36.413  1.00  0.00    -0.021 C 
HETATM   35  C16 UNL     1      61.243   1.613  36.900  1.00  0.00     0.009 C 
HETATM   36  C17 UNL     1      63.256   0.905  35.728  1.00  0.00     0.009 C 
ENDBRANCH  33  34
ENDBRANCH  32  33
BRANCH  32  37
HETATM   37  C18 UNL     1      61.617  -2.818  38.204  1.00  0.00     0.339 C 
BRANCH  37  38
HETATM   38  N5  UNL     1      62.148  -3.234  39.490  1.00  0.00    -0.051 N 
ATOM     39  H53 UNL     1      62.643  -2.464  39.940  1.00  0.00     0.277 HD
ATOM     40  H52 UNL     1      61.393  -3.370  40.162  1.00  0.00     0.277 HD
ATOM     41  H51 UNL     1      62.741  -4.063  39.445  1.00  0.00     0.277 HD
ENDBRANCH  37  38
BRANCH  37  42
HETATM   42  O6  UNL     1      60.459  -3.558  37.923  1.00  0.00    -0.368 OA
ATOM     43  H6  UNL     1      60.706  -4.440  37.670  1.00  0.00     0.212 HD
ENDBRANCH  37  42
ENDBRANCH  32  37
ENDBRANCH  30  32
ENDBRANCH  26  28
ENDBRANCH  23  26
ENDBRANCH   1  23
TORSDOF 18
ENDMDL
MODEL 4
REMARK VINA RESULT: -6.435199122      2.127      3.816
REMARK  18 active torsions:
REMARK  status: ('A' for Active; 'I' for Inactive)
REMARK    1  A    between atoms: C2_2  and  C3_4 
REMARK    2  A    between atoms: C3_4  and  C4_5 
REMARK    3  A    between atoms: C3_4  and  N2_9 
REMARK    4  A    between atoms: C4_5  and  C5_6 
REMARK    5  A    between atoms: N2_9  and  C6_12 
REMARK    6  A    between atoms: C6_12  and  C8_14 
REMARK    7  A    between atoms: C8_14  and  N3_15 
REMARK    8  A    between atoms: C8_14  and  C19_38 
REMARK    9  A    between atoms: N3_15  and  C9_17 
REMARK   10  A    between atoms: C9_17  and  C10_18 
REMARK   11  A    between atoms: C9_17  and  C11_20 
REMARK   12  A    between atoms: C11_20  and  C12_22 
REMARK       I    between atoms: C12_22  and  N4_24 
REMARK   13  A    between atoms: N4_24  and  C13_26 
REMARK   14  A    between atoms: C13_26  and  C14_27 
REMARK   15  A    between atoms: C13_26  and  C18_31 
REMARK   16  A    between atoms: C14_27  and  C15_28 
REMARK   17  A    between atoms: C18_31  and  N5_32 
REMARK   18  A    between atoms: C18_31  and  O6_36 
ROOT
HETATM    1  N3  UNL     1      57.097   2.511  40.864  1.00  0.00    -0.399 N 
ATOM      2  H3  UNL     1      57.451   2.514  41.821  1.00  0.00     0.154 HD
ENDROOT
BRANCH   1   3
HETATM    3  C8  UNL     1      56.756   1.234  40.518  1.00  0.00     0.112 C 
BRANCH   3   4
HETATM    4  C6  UNL     1      57.557   0.570  39.386  1.00  0.00     0.205 C 
HETATM    5  C7  UNL     1      58.742  -0.235  39.953  1.00  0.00     0.042 C 
BRANCH   4   6
HETATM    6  N2  UNL     1      56.789  -0.384  38.626  1.00  0.00    -0.058 N 
ATOM      7  H22 UNL     1      56.790  -1.302  39.071  1.00  0.00     0.278 HD
ATOM      8  H21 UNL     1      57.259  -0.629  37.755  1.00  0.00     0.278 HD
BRANCH   6   9
HETATM    9  C3  UNL     1      55.428   0.087  38.383  1.00  0.00     0.263 C 
BRANCH   9  10
HETATM   10  C2  UNL     1      54.474  -1.017  38.092  1.00  0.00     0.154 C 
HETATM   11  C1  UNL     1      53.206  -1.275  38.797  1.00  0.00     0.093 C 
HETATM   12  O1  UNL     1      54.751  -1.804  37.179  1.00  0.00    -0.296 OA
ENDBRANCH   9  10
BRANCH   9  13
HETATM   13  C4  UNL     1      55.543   0.877  37.070  1.00  0.00     0.140 C 
BRANCH  13  14
HETATM   14  C5  UNL     1      54.347   1.623  36.745  1.00  0.00     0.233 C 
HETATM   15  N1  UNL     1      53.884   1.723  35.395  1.00  0.00    -0.062 NA
HETATM   16  O2  UNL     1      53.642   2.229  37.615  1.00  0.00    -0.277 OA
ENDBRANCH  13  14
ENDBRANCH   9  13
ENDBRANCH   6   9
ENDBRANCH   4   6
ENDBRANCH   3   4
BRANCH   3  17
HETATM   17  C19 UNL     1      56.717   0.229  41.661  1.00  0.00     0.010 C 
HETATM   18  C20 UNL     1      57.058   0.786  43.012  1.00  0.00     0.007 C 
HETATM   19  C21 UNL     1      57.303  -0.455  43.903  1.00  0.00     0.000 C 
HETATM   20  C22 UNL     1      56.041  -1.238  44.064  1.00  0.00     0.000 C 
HETATM   21  C23 UNL     1      54.960  -0.503  43.346  1.00  0.00     0.000 C 
HETATM   22  C24 UNL     1      55.287  -0.245  41.866  1.00  0.00     0.007 C 
ENDBRANCH   3  17
ENDBRANCH   1   3
BRANCH   1  23
HETATM   23  C9  UNL     1      57.127   3.769  40.377  1.00  0.00     0.219 C 
BRANCH  23  24
HETATM   24  C10 UNL     1      58.366   4.484  40.880  1.00  0.00     0.264 C 
HETATM   25  O3  UNL     1      59.325   3.825  41.213  1.00  0.00    -0.304 OA
ENDBRANCH  23  24
BRANCH  23  26
HETATM   26  C11 UNL     1      56.020   4.719  40.672  1.00  0.00     0.245 C 
HETATM   27  O4  UNL     1      56.198   5.981  40.529  1.00  0.00    -0.284 OA
BRANCH  26  28
HETATM   28  C12 UNL     1      54.693   4.410  41.128  1.00  0.00     0.290 C 
HETATM   29  O5  UNL     1      53.984   3.541  40.576  1.00  0.00    -0.264 OA
HETATM   30  N4  UNL     1      54.109   5.103  42.277  1.00  0.00    -0.346 N 
ATOM     31  H4  UNL     1      54.653   5.808  42.775  1.00  0.00     0.163 HD
BRANCH  30  32
HETATM   32  C13 UNL     1      52.777   4.798  42.705  1.00  0.00     0.141 C 
BRANCH  32  33
HETATM   33  C14 UNL     1      52.729   4.098  44.037  1.00  0.00     0.033 C 
BRANCH  33  34
HETATM   34  C15 UNL     1      53.437   2.818  44.189  1.00  0.00    -0.021 C 
HETATM   35  C16 UNL     1      54.656   2.771  45.042  1.00  0.00     0.009 C 
HETATM   36  C17 UNL     1      52.428   1.823  44.798  1.00  0.00     0.009 C 
ENDBRANCH  33  34
ENDBRANCH  32  33
BRANCH  32  37
HETATM   37  C18 UNL     1      51.774   5.869  42.608  1.00  0.00     0.339 C 
BRANCH  37  38
HETATM   38  N5  UNL     1      52.005   6.977  43.517  1.00  0.00    -0.051 N 
ATOM     39  H53 UNL     1      51.383   6.915  44.323  1.00  0.00     0.277 HD
ATOM     40  H52 UNL     1      52.905   6.875  43.985  1.00  0.00     0.277 HD
ATOM     41  H51 UNL     1      51.931   7.895  43.078  1.00  0.00     0.277 HD
ENDBRANCH  37  38
BRANCH  37  42
HETATM   42  O6  UNL     1      51.738   6.352  41.292  1.00  0.00    -0.368 OA
ATOM     43  H6  UNL     1      52.450   6.967  41.165  1.00  0.00     0.212 HD
ENDBRANCH  37  42
ENDBRANCH  32  37
ENDBRANCH  30  32
ENDBRANCH  26  28
ENDBRANCH  23  26
ENDBRANCH   1  23
TORSDOF 18
ENDMDL
MODEL 5
REMARK VINA RESULT: -6.416625181      1.630      2.230
REMARK  18 active torsions:
REMARK  status: ('A' for Active; 'I' for Inactive)
REMARK    1  A    between atoms: C2_2  and  C3_4 
REMARK    2  A    between atoms: C3_4  and  C4_5 
REMARK    3  A    between atoms: C3_4  and  N2_9 
REMARK    4  A    between atoms: C4_5  and  C5_6 
REMARK    5  A    between atoms: N2_9  and  C6_12 
REMARK    6  A    between atoms: C6_12  and  C8_14 
REMARK    7  A    between atoms: C8_14  and  N3_15 
REMARK    8  A    between atoms: C8_14  and  C19_38 
REMARK    9  A    between atoms: N3_15  and  C9_17 
REMARK   10  A    between atoms: C9_17  and  C10_18 
REMARK   11  A    between atoms: C9_17  and  C11_20 
REMARK   12  A    between atoms: C11_20  and  C12_22 
REMARK       I    between atoms: C12_22  and  N4_24 
REMARK   13  A    between atoms: N4_24  and  C13_26 
REMARK   14  A    between atoms: C13_26  and  C14_27 
REMARK   15  A    between atoms: C13_26  and  C18_31 
REMARK   16  A    between atoms: C14_27  and  C15_28 
REMARK   17  A    between atoms: C18_31  and  N5_32 
REMARK   18  A    between atoms: C18_31  and  O6_36 
ROOT
HETATM    1  N3  UNL     1      57.381   2.890  41.123  1.00  0.00    -0.399 N 
ATOM      2  H3  UNL     1      56.973   2.783  42.051  1.00  0.00     0.154 HD
ENDROOT
BRANCH   1   3
HETATM    3  C8  UNL     1      57.859   1.682  40.702  1.00  0.00     0.112 C 
BRANCH   3   4
HETATM    4  C6  UNL     1      56.835   0.562  40.454  1.00  0.00     0.205 C 
HETATM    5  C7  UNL     1      56.340  -0.034  41.786  1.00  0.00     0.042 C 
BRANCH   4   6
HETATM    6  N2  UNL     1      55.642   1.018  39.784  1.00  0.00    -0.058 N 
ATOM      7  H22 UNL     1      55.528   2.028  39.873  1.00  0.00     0.278 HD
ATOM      8  H21 UNL     1      54.801   0.719  40.279  1.00  0.00     0.278 HD
BRANCH   6   9
HETATM    9  C3  UNL     1      55.612   0.601  38.386  1.00  0.00     0.263 C 
BRANCH   9  10
HETATM   10  C2  UNL     1      54.677   1.408  37.557  1.00  0.00     0.154 C 
HETATM   11  C1  UNL     1      54.461   1.267  36.106  1.00  0.00     0.093 C 
HETATM   12  O1  UNL     1      54.009   2.286  38.117  1.00  0.00    -0.296 OA
ENDBRANCH   9  10
BRANCH   9  13
HETATM   13  C4  UNL     1      54.995  -0.806  38.435  1.00  0.00     0.140 C 
BRANCH  13  14
HETATM   14  C5  UNL     1      53.617  -0.810  38.874  1.00  0.00     0.233 C 
HETATM   15  N1  UNL     1      53.281  -0.603  40.250  1.00  0.00    -0.062 NA
HETATM   16  O2  UNL     1      52.632  -0.995  38.089  1.00  0.00    -0.277 OA
ENDBRANCH  13  14
ENDBRANCH   9  13
ENDBRANCH   6   9
ENDBRANCH   4   6
ENDBRANCH   3   4
BRANCH   3  17
HETATM   17  C19 UNL     1      58.757   1.720  39.473  1.00  0.00     0.010 C 
HETATM   18  C20 UNL     1      60.129   2.282  39.702  1.00  0.00     0.007 C 
HETATM   19  C21 UNL     1      60.692   2.547  38.286  1.00  0.00     0.000 C 
HETATM   20  C22 UNL     1      60.869   1.262  37.545  1.00  0.00     0.000 C 
HETATM   21  C23 UNL     1      60.490   0.155  38.469  1.00  0.00     0.000 C 
HETATM   22  C24 UNL     1      59.067   0.298  39.032  1.00  0.00     0.007 C 
ENDBRANCH   3  17
ENDBRANCH   1   3
BRANCH   1  23
HETATM   23  C9  UNL     1      57.261   4.176  40.733  1.00  0.00     0.219 C 
BRANCH  23  24
HETATM   24  C10 UNL     1      58.240   5.040  41.505  1.00  0.00     0.264 C 
HETATM   25  O3  UNL     1      59.219   5.462  40.933  1.00  0.00    -0.304 OA
ENDBRANCH  23  24
BRANCH  23  26
HETATM   26  C11 UNL     1      55.963   4.890  40.876  1.00  0.00     0.245 C 
HETATM   27  O4  UNL     1      55.842   6.097  40.460  1.00  0.00    -0.284 OA
BRANCH  26  28
HETATM   28  C12 UNL     1      54.745   4.395  41.456  1.00  0.00     0.290 C 
HETATM   29  O5  UNL     1      54.249   3.297  41.125  1.00  0.00    -0.264 OA
HETATM   30  N4  UNL     1      54.028   5.162  42.475  1.00  0.00    -0.346 N 
ATOM     31  H4  UNL     1      54.401   6.056  42.795  1.00  0.00     0.163 HD
BRANCH  30  32
HETATM   32  C13 UNL     1      52.804   4.663  43.027  1.00  0.00     0.141 C 
BRANCH  32  33
HETATM   33  C14 UNL     1      52.998   3.916  44.320  1.00  0.00     0.033 C 
BRANCH  33  34
HETATM   34  C15 UNL     1      53.074   2.448  44.283  1.00  0.00    -0.021 C 
HETATM   35  C16 UNL     1      54.340   1.786  44.701  1.00  0.00     0.009 C 
HETATM   36  C17 UNL     1      51.966   1.923  45.220  1.00  0.00     0.009 C 
ENDBRANCH  33  34
ENDBRANCH  32  33
BRANCH  32  37
HETATM   37  C18 UNL     1      51.664   5.590  43.091  1.00  0.00     0.339 C 
BRANCH  37  38
HETATM   38  N5  UNL     1      51.582   6.502  41.965  1.00  0.00    -0.051 N 
ATOM     39  H53 UNL     1      52.052   7.381  42.180  1.00  0.00     0.277 HD
ATOM     40  H52 UNL     1      52.168   6.176  41.196  1.00  0.00     0.277 HD
ATOM     41  H51 UNL     1      50.630   6.675  41.641  1.00  0.00     0.277 HD
ENDBRANCH  37  38
BRANCH  37  42
HETATM   42  O6  UNL     1      50.474   4.854  43.177  1.00  0.00    -0.368 OA
ATOM     43  H6  UNL     1      49.986   5.136  43.941  1.00  0.00     0.212 HD
ENDBRANCH  37  42
ENDBRANCH  32  37
ENDBRANCH  30  32
ENDBRANCH  26  28
ENDBRANCH  23  26
ENDBRANCH   1  23
TORSDOF 18
ENDMDL
