MODEL 1
REMARK VINA RESULT: -5.926857165      0.000      0.000
REMARK  21 active torsions:
REMARK  status: ('A' for Active; 'I' for Inactive)
REMARK    1  A    between atoms: O1_2  and  C2_3 
REMARK    2  A    between atoms: C2_3  and  O2_4 
REMARK    3  A    between atoms: O2_4  and  C3_5 
REMARK    4  A    between atoms: C3_5  and  C4_6 
REMARK    5  A    between atoms: C4_6  and  N1_7 
REMARK    6  A    between atoms: C8_12  and  N2_13 
REMARK    7  A    between atoms: N2_13  and  C9_15 
REMARK    8  A    between atoms: C9_15  and  O3_16 
REMARK    9  A    between atoms: C9_15  and  C10_18 
REMARK   10  A    between atoms: N3_21  and  C12_22 
REMARK   11  A    between atoms: C12_22  and  C13_23 
REMARK   12  A    between atoms: C12_22  and  C20_44 
REMARK   13  A    between atoms: C13_23  and  O5_24 
REMARK   14  A    between atoms: C13_23  and  N4_26 
REMARK   15  A    between atoms: N4_26  and  C14_28 
REMARK   16  A    between atoms: C14_28  and  C15_29 
REMARK   17  A    between atoms: C15_29  and  N5_30 
REMARK   18  A    between atoms: C15_29  and  C16_34 
REMARK   19  A    between atoms: C16_34  and  C17_35 
REMARK   20  A    between atoms: C17_35  and  C18_36 
REMARK   21  A    between atoms: C18_36  and  N6_37 
REMARK       I    between atoms: N6_37  and  C19_39 
ROOT
HETATM    1  C12 UNL     1      55.985   2.989  40.712  1.00  0.00     0.163 C 
ENDROOT
BRANCH   1   2
HETATM    2  N3  UNL     1      56.013   1.638  40.122  1.00  0.00    -0.353 N 
HETATM    3  C5  UNL     1      55.203   1.240  39.034  1.00  0.00     0.076 C 
HETATM    4  N1  UNL     1      54.562   2.120  38.337  1.00  0.00    -0.378 N 
HETATM    5  C6  UNL     1      55.106  -0.217  38.750  1.00  0.00     0.081 C 
ATOM      6  H1  UNL     1      54.639   3.115  38.546  1.00  0.00     0.160 HD
HETATM    7  C7  UNL     1      56.458  -0.877  38.656  1.00  0.00     0.061 C 
HETATM    8  C8  UNL     1      57.505  -0.178  39.511  1.00  0.00     0.003 C 
HETATM    9  C11 UNL     1      56.911   0.584  40.652  1.00  0.00     0.177 C 
BRANCH   4  10
HETATM   10  C4  UNL     1      53.735   1.645  37.252  1.00  0.00     0.147 C 
BRANCH  10  11
HETATM   11  C3  UNL     1      54.393   1.834  35.907  1.00  0.00     0.190 C 
BRANCH  11  12
HETATM   12  O2  UNL     1      53.471   2.116  34.928  1.00  0.00    -0.365 OA
BRANCH  12  13
HETATM   13  C2  UNL     1      52.162   2.062  35.329  1.00  0.00     0.337 C 
BRANCH  13  14
HETATM   14  O1  UNL     1      51.233   2.234  34.315  1.00  0.00    -0.372 OA
HETATM   15  C1  UNL     1      50.281   3.181  34.650  1.00  0.00     0.204 C 
ENDBRANCH  13  14
ENDBRANCH  12  13
ENDBRANCH  11  12
ENDBRANCH  10  11
ENDBRANCH   4  10
BRANCH   8  16
HETATM   16  N2  UNL     1      58.648  -0.894  39.801  1.00  0.00    -0.364 N 
ATOM     17  H2  UNL     1      58.577  -1.619  40.514  1.00  0.00     0.162 HD
BRANCH  16  18
HETATM   18  C9  UNL     1      59.893  -0.708  39.200  1.00  0.00     0.280 C 
BRANCH  18  19
HETATM   19  O3  UNL     1      60.181  -1.778  38.285  1.00  0.00    -0.370 OA
ATOM     20  H3  UNL     1      60.370  -1.439  37.418  1.00  0.00     0.212 HD
ENDBRANCH  18  19
BRANCH  18  21
HETATM   21  C10 UNL     1      60.036   0.527  38.419  1.00  0.00     0.284 C 
HETATM   22  O4  UNL     1      61.047   0.682  37.696  1.00  0.00    -0.302 OA
ENDBRANCH  18  21
ENDBRANCH  16  18
ENDBRANCH   8  16
ENDBRANCH   1   2
BRANCH   1  23
HETATM   23  C13 UNL     1      54.761   3.186  41.469  1.00  0.00     0.135 C 
BRANCH  23  24
HETATM   24  O5  UNL     1      53.906   4.015  40.911  1.00  0.00    -0.348 OA
ATOM     25  H5  UNL     1      54.310   4.716  40.412  1.00  0.00     0.219 HD
ENDBRANCH  23  24
BRANCH  23  26
HETATM   26  N4  UNL     1      54.294   2.675  42.678  1.00  0.00    -0.371 N 
ATOM     27  H4  UNL     1      54.501   1.701  42.898  1.00  0.00     0.161 HD
BRANCH  26  28
HETATM   28  C14 UNL     1      53.528   3.450  43.646  1.00  0.00     0.154 C 
BRANCH  28  29
HETATM   29  C15 UNL     1      54.351   4.399  44.453  1.00  0.00     0.201 C 
BRANCH  29  30
HETATM   30  N5  UNL     1      55.241   3.558  45.280  1.00  0.00    -0.073 N 
ATOM     31  H53 UNL     1      54.964   2.577  45.310  1.00  0.00     0.274 HD
ATOM     32  H52 UNL     1      56.163   3.412  44.868  1.00  0.00     0.274 HD
ATOM     33  H51 UNL     1      55.270   4.002  46.197  1.00  0.00     0.274 HD
ENDBRANCH  29  30
BRANCH  29  34
HETATM   34  C16 UNL     1      53.534   5.203  45.441  1.00  0.00     0.036 C 
BRANCH  34  35
HETATM   35  C17 UNL     1      52.070   5.015  45.204  1.00  0.00     0.022 C 
BRANCH  35  36
HETATM   36  C18 UNL     1      51.405   6.316  44.764  1.00  0.00     0.122 C 
BRANCH  36  37
HETATM   37  N6  UNL     1      51.787   6.729  43.451  1.00  0.00    -0.365 N 
HETATM   38  C19 UNL     1      51.099   6.312  42.284  1.00  0.00     0.181 C 
HETATM   39  N7  UNL     1      49.820   6.281  42.277  1.00  0.00    -0.374 N 
HETATM   40  N8  UNL     1      51.879   5.938  41.143  1.00  0.00    -0.064 NA
ATOM     41  H72 UNL     1      49.265   6.548  43.090  1.00  0.00     0.158 HD
ATOM     42  H71 UNL     1      49.326   5.981  41.437  1.00  0.00     0.158 HD
ATOM     43  H6  UNL     1      52.589   7.351  43.349  1.00  0.00     0.162 HD
ENDBRANCH  36  37
ENDBRANCH  35  36
ENDBRANCH  34  35
ENDBRANCH  29  34
ENDBRANCH  28  29
ENDBRANCH  26  28
ENDBRANCH  23  26
ENDBRANCH   1  23
BRANCH   1  44
HETATM   44  C20 UNL     1      57.300   3.246  41.381  1.00  0.00     0.008 C 
HETATM   45  C21 UNL     1      57.270   4.401  42.329  1.00  0.00     0.012 C 
HETATM   46  C22 UNL     1      58.315   3.589  40.302  1.00  0.00     0.012 C 
ENDBRANCH   1  44
TORSDOF 21
ENDMDL
MODEL 2
REMARK VINA RESULT: -5.583206474      1.484      2.280
REMARK  21 active torsions:
REMARK  status: ('A' for Active; 'I' for Inactive)
REMARK    1  A    between atoms: O1_2  and  C2_3 
REMARK    2  A    between atoms: C2_3  and  O2_4 
REMARK    3  A    between atoms: O2_4  and  C3_5 
REMARK    4  A    between atoms: C3_5  and  C4_6 
REMARK    5  A    between atoms: C4_6  and  N1_7 
REMARK    6  A    between atoms: C8_12  and  N2_13 
REMARK    7  A    between atoms: N2_13  and  C9_15 
REMARK    8  A    between atoms: C9_15  and  O3_16 
REMARK    9  A    between atoms: C9_15  and  C10_18 
REMARK   10  A    between atoms: N3_21  and  C12_22 
REMARK   11  A    between atoms: C12_22  and  C13_23 
REMARK   12  A    between atoms: C12_22  and  C20_44 
REMARK   13  A    between atoms: C13_23  and  O5_24 
REMARK   14  A    between atoms: C13_23  and  N4_26 
REMARK   15  A    between atoms: N4_26  and  C14_28 
REMARK   16  A    between atoms: C14_28  and  C15_29 
REMARK   17  A    between atoms: C15_29  and  N5_30 
REMARK   18  A    between atoms: C15_29  and  C16_34 
REMARK   19  A    between atoms: C16_34  and  C17_35 
REMARK   20  A    between atoms: C17_35  and  C18_36 
REMARK   21  A    between atoms: C18_36  and  N6_37 
REMARK       I    between atoms: N6_37  and  C19_39 
ROOT
HETATM    1  C12 UNL     1      56.081   3.509  40.447  1.00  0.00     0.163 C 
ENDROOT
BRANCH   1   2
HETATM    2  N3  UNL     1      56.258   2.111  40.013  1.00  0.00    -0.353 N 
HETATM    3  C5  UNL     1      55.426   1.472  39.065  1.00  0.00     0.076 C 
HETATM    4  N1  UNL     1      54.606   2.162  38.342  1.00  0.00    -0.378 N 
HETATM    5  C6  UNL     1      55.522  -0.008  38.958  1.00  0.00     0.081 C 
ATOM      6  H1  UNL     1      54.552   3.176  38.428  1.00  0.00     0.160 HD
HETATM    7  C7  UNL     1      56.944  -0.484  38.802  1.00  0.00     0.061 C 
HETATM    8  C8  UNL     1      57.944   0.453  39.463  1.00  0.00     0.003 C 
HETATM    9  C11 UNL     1      57.343   1.264  40.564  1.00  0.00     0.177 C 
BRANCH   4  10
HETATM   10  C4  UNL     1      53.769   1.446  37.407  1.00  0.00     0.147 C 
BRANCH  10  11
HETATM   11  C3  UNL     1      54.141   1.731  35.973  1.00  0.00     0.190 C 
BRANCH  11  12
HETATM   12  O2  UNL     1      53.036   2.036  35.215  1.00  0.00    -0.365 OA
BRANCH  12  13
HETATM   13  C2  UNL     1      51.831   1.789  35.818  1.00  0.00     0.337 C 
BRANCH  13  14
HETATM   14  O1  UNL     1      50.843   2.725  35.556  1.00  0.00    -0.372 OA
HETATM   15  C1  UNL     1      50.151   2.426  34.396  1.00  0.00     0.204 C 
ENDBRANCH  13  14
ENDBRANCH  12  13
ENDBRANCH  11  12
ENDBRANCH  10  11
ENDBRANCH   4  10
BRANCH   8  16
HETATM   16  N2  UNL     1      59.201  -0.058  39.713  1.00  0.00    -0.364 N 
ATOM     17  H2  UNL     1      59.874   0.558  40.170  1.00  0.00     0.162 HD
BRANCH  16  18
HETATM   18  C9  UNL     1      59.629  -1.346  39.394  1.00  0.00     0.280 C 
BRANCH  18  19
HETATM   19  O3  UNL     1      60.356  -1.349  38.155  1.00  0.00    -0.370 OA
ATOM     20  H3  UNL     1      60.759  -0.503  37.999  1.00  0.00     0.212 HD
ENDBRANCH  18  19
BRANCH  18  21
HETATM   21  C10 UNL     1      60.523  -1.973  40.376  1.00  0.00     0.284 C 
HETATM   22  O4  UNL     1      60.447  -3.207  40.576  1.00  0.00    -0.302 OA
ENDBRANCH  18  21
ENDBRANCH  16  18
ENDBRANCH   8  16
ENDBRANCH   1   2
BRANCH   1  23
HETATM   23  C13 UNL     1      54.803   3.673  41.118  1.00  0.00     0.135 C 
BRANCH  23  24
HETATM   24  O5  UNL     1      54.288   2.555  41.583  1.00  0.00    -0.348 OA
ATOM     25  H5  UNL     1      53.500   2.673  42.099  1.00  0.00     0.219 HD
ENDBRANCH  23  24
BRANCH  23  26
HETATM   26  N4  UNL     1      53.997   4.778  41.379  1.00  0.00    -0.371 N 
ATOM     27  H4  UNL     1      53.903   5.485  40.650  1.00  0.00     0.161 HD
BRANCH  26  28
HETATM   28  C14 UNL     1      53.281   4.985  42.632  1.00  0.00     0.154 C 
BRANCH  28  29
HETATM   29  C15 UNL     1      51.815   5.208  42.465  1.00  0.00     0.201 C 
BRANCH  29  30
HETATM   30  N5  UNL     1      51.643   6.669  42.328  1.00  0.00    -0.073 N 
ATOM     31  H53 UNL     1      51.916   7.192  43.160  1.00  0.00     0.274 HD
ATOM     32  H52 UNL     1      52.310   7.100  41.689  1.00  0.00     0.274 HD
ATOM     33  H51 UNL     1      50.669   6.810  42.058  1.00  0.00     0.274 HD
ENDBRANCH  29  30
BRANCH  29  34
HETATM   34  C16 UNL     1      51.012   4.826  43.689  1.00  0.00     0.036 C 
BRANCH  34  35
HETATM   35  C17 UNL     1      50.329   6.019  44.276  1.00  0.00     0.022 C 
BRANCH  35  36
HETATM   36  C18 UNL     1      50.797   6.284  45.704  1.00  0.00     0.122 C 
BRANCH  36  37
HETATM   37  N6  UNL     1      52.161   6.701  45.783  1.00  0.00    -0.365 N 
HETATM   38  C19 UNL     1      52.595   7.988  45.375  1.00  0.00     0.181 C 
HETATM   39  N7  UNL     1      51.901   9.018  45.678  1.00  0.00    -0.374 N 
HETATM   40  N8  UNL     1      53.814   8.079  44.629  1.00  0.00    -0.064 NA
ATOM     41  H72 UNL     1      51.033   8.953  46.210  1.00  0.00     0.158 HD
ATOM     42  H71 UNL     1      52.214   9.943  45.385  1.00  0.00     0.158 HD
ATOM     43  H6  UNL     1      52.851   6.046  46.148  1.00  0.00     0.162 HD
ENDBRANCH  36  37
ENDBRANCH  35  36
ENDBRANCH  34  35
ENDBRANCH  29  34
ENDBRANCH  28  29
ENDBRANCH  26  28
ENDBRANCH  23  26
ENDBRANCH   1  23
BRANCH   1  44
HETATM   44  C20 UNL     1      57.328   3.954  41.145  1.00  0.00     0.008 C 
HETATM   45  C21 UNL     1      57.235   3.882  42.635  1.00  0.00     0.012 C 
HETATM   46  C22 UNL     1      57.567   5.414  40.791  1.00  0.00     0.012 C 
ENDBRANCH   1  44
TORSDOF 21
ENDMDL
MODEL 3
REMARK VINA RESULT: -5.467014643      2.702      6.034
REMARK  21 active torsions:
REMARK  status: ('A' for Active; 'I' for Inactive)
REMARK    1  A    between atoms: O1_2  and  C2_3 
REMARK    2  A    between atoms: C2_3  and  O2_4 
REMARK    3  A    between atoms: O2_4  and  C3_5 
REMARK    4  A    between atoms: C3_5  and  C4_6 
REMARK    5  A    between atoms: C4_6  and  N1_7 
REMARK    6  A    between atoms: C8_12  and  N2_13 
REMARK    7  A    between atoms: N2_13  and  C9_15 
REMARK    8  A    between atoms: C9_15  and  O3_16 
REMARK    9  A    between atoms: C9_15  and  C10_18 
REMARK   10  A    between atoms: N3_21  and  C12_22 
REMARK   11  A    between atoms: C12_22  and  C13_23 
REMARK   12  A    between atoms: C12_22  and  C20_44 
REMARK   13  A    between atoms: C13_23  and  O5_24 
REMARK   14  A    between atoms: C13_23  and  N4_26 
REMARK   15  A    between atoms: N4_26  and  C14_28 
REMARK   16  A    between atoms: C14_28  and  C15_29 
REMARK   17  A    between atoms: C15_29  and  N5_30 
REMARK   18  A    between atoms: C15_29  and  C16_34 
REMARK   19  A    between atoms: C16_34  and  C17_35 
REMARK   20  A    between atoms: C17_35  and  C18_36 
REMARK   21  A    between atoms: C18_36  and  N6_37 
REMARK       I    between atoms: N6_37  and  C19_39 
ROOT
HETATM    1  C12 UNL     1      57.420   0.501  41.221  1.00  0.00     0.163 C 
ENDROOT
BRANCH   1   2
HETATM    2  N3  UNL     1      56.577   1.342  40.350  1.00  0.00    -0.353 N 
HETATM    3  C5  UNL     1      55.847   0.843  39.247  1.00  0.00     0.076 C 
HETATM    4  N1  UNL     1      55.686  -0.429  39.088  1.00  0.00    -0.378 N 
HETATM    5  C6  UNL     1      55.302   1.837  38.283  1.00  0.00     0.081 C 
ATOM      6  H1  UNL     1      56.067  -1.097  39.758  1.00  0.00     0.160 HD
HETATM    7  C7  UNL     1      54.526   2.935  38.964  1.00  0.00     0.061 C 
HETATM    8  C8  UNL     1      55.023   3.207  40.376  1.00  0.00     0.003 C 
HETATM    9  C11 UNL     1      56.447   2.800  40.580  1.00  0.00     0.177 C 
BRANCH   4  10
HETATM   10  C4  UNL     1      54.948  -0.873  37.928  1.00  0.00     0.147 C 
BRANCH  10  11
HETATM   11  C3  UNL     1      53.560  -1.349  38.283  1.00  0.00     0.190 C 
BRANCH  11  12
HETATM   12  O2  UNL     1      52.628  -0.351  38.128  1.00  0.00    -0.365 OA
BRANCH  12  13
HETATM   13  C2  UNL     1      52.723   0.357  36.959  1.00  0.00     0.337 C 
BRANCH  13  14
HETATM   14  O1  UNL     1      51.546   0.960  36.544  1.00  0.00    -0.372 OA
HETATM   15  C1  UNL     1      51.788   2.009  35.676  1.00  0.00     0.204 C 
ENDBRANCH  13  14
ENDBRANCH  12  13
ENDBRANCH  11  12
ENDBRANCH  10  11
ENDBRANCH   4  10
BRANCH   8  16
HETATM   16  N2  UNL     1      54.658   4.412  40.940  1.00  0.00    -0.364 N 
ATOM     17  H2  UNL     1      54.870   5.259  40.413  1.00  0.00     0.162 HD
BRANCH  16  18
HETATM   18  C9  UNL     1      54.023   4.568  42.172  1.00  0.00     0.280 C 
BRANCH  18  19
HETATM   19  O3  UNL     1      54.717   5.529  42.984  1.00  0.00    -0.370 OA
ATOM     20  H3  UNL     1      55.012   6.264  42.459  1.00  0.00     0.212 HD
ENDBRANCH  18  19
BRANCH  18  21
HETATM   21  C10 UNL     1      52.633   5.038  42.108  1.00  0.00     0.284 C 
HETATM   22  O4  UNL     1      52.320   5.917  41.272  1.00  0.00    -0.302 OA
ENDBRANCH  18  21
ENDBRANCH  16  18
ENDBRANCH   8  16
ENDBRANCH   1   2
BRANCH   1  23
HETATM   23  C13 UNL     1      58.696   0.230  40.583  1.00  0.00     0.135 C 
BRANCH  23  24
HETATM   24  O5  UNL     1      58.767  -0.943  39.991  1.00  0.00    -0.348 OA
ATOM     25  H5  UNL     1      59.433  -1.520  40.346  1.00  0.00     0.219 HD
ENDBRANCH  23  24
BRANCH  23  26
HETATM   26  N4  UNL     1      59.876   0.959  40.462  1.00  0.00    -0.371 N 
ATOM     27  H4  UNL     1      60.687   0.650  40.999  1.00  0.00     0.161 HD
BRANCH  26  28
HETATM   28  C14 UNL     1      60.022   2.136  39.616  1.00  0.00     0.154 C 
BRANCH  28  29
HETATM   29  C15 UNL     1      60.668   3.298  40.295  1.00  0.00     0.201 C 
BRANCH  29  30
HETATM   30  N5  UNL     1      61.518   2.722  41.357  1.00  0.00    -0.073 N 
ATOM     31  H53 UNL     1      61.685   3.358  42.137  1.00  0.00     0.274 HD
ATOM     32  H52 UNL     1      61.057   1.988  41.896  1.00  0.00     0.274 HD
ATOM     33  H51 UNL     1      62.371   2.412  40.893  1.00  0.00     0.274 HD
ENDBRANCH  29  30
BRANCH  29  34
HETATM   34  C16 UNL     1      59.680   4.189  41.017  1.00  0.00     0.036 C 
BRANCH  34  35
HETATM   35  C17 UNL     1      60.291   4.782  42.245  1.00  0.00     0.022 C 
BRANCH  35  36
HETATM   36  C18 UNL     1      59.876   6.239  42.428  1.00  0.00     0.122 C 
BRANCH  36  37
HETATM   37  N6  UNL     1      58.965   6.695  41.426  1.00  0.00    -0.365 N 
HETATM   38  C19 UNL     1      57.599   6.965  41.696  1.00  0.00     0.181 C 
HETATM   39  N7  UNL     1      57.274   7.585  42.767  1.00  0.00    -0.374 N 
HETATM   40  N8  UNL     1      56.627   6.527  40.741  1.00  0.00    -0.064 NA
ATOM     41  H72 UNL     1      57.967   7.898  43.447  1.00  0.00     0.158 HD
ATOM     42  H71 UNL     1      56.292   7.779  42.961  1.00  0.00     0.158 HD
ATOM     43  H6  UNL     1      59.311   6.833  40.477  1.00  0.00     0.162 HD
ENDBRANCH  36  37
ENDBRANCH  35  36
ENDBRANCH  34  35
ENDBRANCH  29  34
ENDBRANCH  28  29
ENDBRANCH  26  28
ENDBRANCH  23  26
ENDBRANCH   1  23
BRANCH   1  44
HETATM   44  C20 UNL     1      57.410   1.082  42.601  1.00  0.00     0.008 C 
HETATM   45  C21 UNL     1      58.608   0.710  43.413  1.00  0.00     0.012 C 
HETATM   46  C22 UNL     1      56.195   0.530  43.333  1.00  0.00     0.012 C 
ENDBRANCH   1  44
TORSDOF 21
ENDMDL
MODEL 4
REMARK VINA RESULT: -5.366144791      1.619      2.905
REMARK  21 active torsions:
REMARK  status: ('A' for Active; 'I' for Inactive)
REMARK    1  A    between atoms: O1_2  and  C2_3 
REMARK    2  A    between atoms: C2_3  and  O2_4 
REMARK    3  A    between atoms: O2_4  and  C3_5 
REMARK    4  A    between atoms: C3_5  and  C4_6 
REMARK    5  A    between atoms: C4_6  and  N1_7 
REMARK    6  A    between atoms: C8_12  and  N2_13 
REMARK    7  A    between atoms: N2_13  and  C9_15 
REMARK    8  A    between atoms: C9_15  and  O3_16 
REMARK    9  A    between atoms: C9_15  and  C10_18 
REMARK   10  A    between atoms: N3_21  and  C12_22 
REMARK   11  A    between atoms: C12_22  and  C13_23 
REMARK   12  A    between atoms: C12_22  and  C20_44 
REMARK   13  A    between atoms: C13_23  and  O5_24 
REMARK   14  A    between atoms: C13_23  and  N4_26 
REMARK   15  A    between atoms: N4_26  and  C14_28 
REMARK   16  A    between atoms: C14_28  and  C15_29 
REMARK   17  A    between atoms: C15_29  and  N5_30 
REMARK   18  A    between atoms: C15_29  and  C16_34 
REMARK   19  A    between atoms: C16_34  and  C17_35 
REMARK   20  A    between atoms: C17_35  and  C18_36 
REMARK   21  A    between atoms: C18_36  and  N6_37 
REMARK       I    between atoms: N6_37  and  C19_39 
ROOT
HETATM    1  C12 UNL     1      56.015   3.130  40.180  1.00  0.00     0.163 C 
ENDROOT
BRANCH   1   2
HETATM    2  N3  UNL     1      56.147   1.740  39.704  1.00  0.00    -0.353 N 
HETATM    3  C5  UNL     1      55.577   1.267  38.500  1.00  0.00     0.076 C 
HETATM    4  N1  UNL     1      55.111   2.095  37.624  1.00  0.00    -0.378 N 
HETATM    5  C6  UNL     1      55.521  -0.207  38.303  1.00  0.00     0.081 C 
ATOM      6  H1  UNL     1      55.156   3.103  37.775  1.00  0.00     0.160 HD
HETATM    7  C7  UNL     1      56.853  -0.871  38.542  1.00  0.00     0.061 C 
HETATM    8  C8  UNL     1      57.707  -0.114  39.548  1.00  0.00     0.003 C 
HETATM    9  C11 UNL     1      56.898   0.727  40.482  1.00  0.00     0.177 C 
BRANCH   4  10
HETATM   10  C4  UNL     1      54.523   1.545  36.425  1.00  0.00     0.147 C 
BRANCH  10  11
HETATM   11  C3  UNL     1      53.039   1.811  36.342  1.00  0.00     0.190 C 
BRANCH  11  12
HETATM   12  O2  UNL     1      52.634   2.020  35.046  1.00  0.00    -0.365 OA
BRANCH  12  13
HETATM   13  C2  UNL     1      51.278   2.005  34.851  1.00  0.00     0.337 C 
BRANCH  13  14
HETATM   14  O1  UNL     1      50.574   2.957  35.572  1.00  0.00    -0.372 OA
HETATM   15  C1  UNL     1      50.247   4.051  34.792  1.00  0.00     0.204 C 
ENDBRANCH  13  14
ENDBRANCH  12  13
ENDBRANCH  11  12
ENDBRANCH  10  11
ENDBRANCH   4  10
BRANCH   8  16
HETATM   16  N2  UNL     1      58.753  -0.807  40.120  1.00  0.00    -0.364 N 
ATOM     17  H2  UNL     1      58.762  -0.885  41.137  1.00  0.00     0.162 HD
BRANCH  16  18
HETATM   18  C9  UNL     1      59.800  -1.412  39.425  1.00  0.00     0.280 C 
BRANCH  18  19
HETATM   19  O3  UNL     1      60.588  -0.427  38.735  1.00  0.00    -0.370 OA
ATOM     20  H3  UNL     1      61.218  -0.844  38.159  1.00  0.00     0.212 HD
ENDBRANCH  18  19
BRANCH  18  21
HETATM   21  C10 UNL     1      60.749  -2.168  40.251  1.00  0.00     0.284 C 
HETATM   22  O4  UNL     1      60.317  -3.032  41.048  1.00  0.00    -0.302 OA
ENDBRANCH  18  21
ENDBRANCH  16  18
ENDBRANCH   8  16
ENDBRANCH   1   2
BRANCH   1  23
HETATM   23  C13 UNL     1      54.728   3.326  40.822  1.00  0.00     0.135 C 
BRANCH  23  24
HETATM   24  O5  UNL     1      54.233   2.244  41.386  1.00  0.00    -0.348 OA
ATOM     25  H5  UNL     1      53.544   2.413  42.017  1.00  0.00     0.219 HD
ENDBRANCH  23  24
BRANCH  23  26
HETATM   26  N4  UNL     1      53.893   4.430  40.969  1.00  0.00    -0.371 N 
ATOM     27  H4  UNL     1      53.499   4.849  40.126  1.00  0.00     0.161 HD
BRANCH  26  28
HETATM   28  C14 UNL     1      53.550   5.024  42.255  1.00  0.00     0.154 C 
BRANCH  28  29
HETATM   29  C15 UNL     1      52.083   5.078  42.528  1.00  0.00     0.201 C 
BRANCH  29  30
HETATM   30  N5  UNL     1      51.716   6.508  42.472  1.00  0.00    -0.073 N 
ATOM     31  H53 UNL     1      51.378   6.878  43.360  1.00  0.00     0.274 HD
ATOM     32  H52 UNL     1      52.517   7.132  42.376  1.00  0.00     0.274 HD
ATOM     33  H51 UNL     1      51.041   6.592  41.711  1.00  0.00     0.274 HD
ENDBRANCH  29  30
BRANCH  29  34
HETATM   34  C16 UNL     1      51.721   4.631  43.928  1.00  0.00     0.036 C 
BRANCH  34  35
HETATM   35  C17 UNL     1      52.947   4.394  44.748  1.00  0.00     0.022 C 
BRANCH  35  36
HETATM   36  C18 UNL     1      53.030   2.946  45.223  1.00  0.00     0.122 C 
BRANCH  36  37
HETATM   37  N6  UNL     1      52.899   1.996  44.163  1.00  0.00    -0.365 N 
HETATM   38  C19 UNL     1      53.126   0.609  44.343  1.00  0.00     0.181 C 
HETATM   39  N7  UNL     1      52.680   0.023  45.389  1.00  0.00    -0.374 N 
HETATM   40  N8  UNL     1      53.856  -0.089  43.329  1.00  0.00    -0.064 NA
ATOM     41  H72 UNL     1      52.159   0.519  46.112  1.00  0.00     0.158 HD
ATOM     42  H71 UNL     1      52.843  -0.976  45.518  1.00  0.00     0.158 HD
ATOM     43  H6  UNL     1      52.631   2.331  43.239  1.00  0.00     0.162 HD
ENDBRANCH  36  37
ENDBRANCH  35  36
ENDBRANCH  34  35
ENDBRANCH  29  34
ENDBRANCH  28  29
ENDBRANCH  26  28
ENDBRANCH  23  26
ENDBRANCH   1  23
BRANCH   1  44
HETATM   44  C20 UNL     1      57.260   3.499  40.926  1.00  0.00     0.008 C 
HETATM   45  C21 UNL     1      57.104   3.438  42.412  1.00  0.00     0.012 C 
HETATM   46  C22 UNL     1      57.604   4.939  40.579  1.00  0.00     0.012 C 
ENDBRANCH   1  44
TORSDOF 21
ENDMDL
MODEL 5
REMARK VINA RESULT: -5.347247792      2.064      2.572
REMARK  21 active torsions:
REMARK  status: ('A' for Active; 'I' for Inactive)
REMARK    1  A    between atoms: O1_2  and  C2_3 
REMARK    2  A    between atoms: C2_3  and  O2_4 
REMARK    3  A    between atoms: O2_4  and  C3_5 
REMARK    4  A    between atoms: C3_5  and  C4_6 
REMARK    5  A    between atoms: C4_6  and  N1_7 
REMARK    6  A    between atoms: C8_12  and  N2_13 
REMARK    7  A    between atoms: N2_13  and  C9_15 
REMARK    8  A    between atoms: C9_15  and  O3_16 
REMARK    9  A    between atoms: C9_15  and  C10_18 
REMARK   10  A    between atoms: N3_21  and  C12_22 
REMARK   11  A    between atoms: C12_22  and  C13_23 
REMARK   12  A    between atoms: C12_22  and  C20_44 
REMARK   13  A    between atoms: C13_23  and  O5_24 
REMARK   14  A    between atoms: C13_23  and  N4_26 
REMARK   15  A    between atoms: N4_26  and  C14_28 
REMARK   16  A    between atoms: C14_28  and  C15_29 
REMARK   17  A    between atoms: C15_29  and  N5_30 
REMARK   18  A    between atoms: C15_29  and  C16_34 
REMARK   19  A    between atoms: C16_34  and  C17_35 
REMARK   20  A    between atoms: C17_35  and  C18_36 
REMARK   21  A    between atoms: C18_36  and  N6_37 
REMARK       I    between atoms: N6_37  and  C19_39 
ROOT
HETATM    1  C12 UNL     1      55.665   4.100  40.876  1.00  0.00     0.163 C 
ENDROOT
BRANCH   1   2
HETATM    2  N3  UNL     1      55.575   2.630  40.815  1.00  0.00    -0.353 N 
HETATM    3  C5  UNL     1      54.982   1.924  39.743  1.00  0.00     0.076 C 
HETATM    4  N1  UNL     1      54.702   2.528  38.635  1.00  0.00    -0.378 N 
HETATM    5  C6  UNL     1      54.682   0.483  39.957  1.00  0.00     0.081 C 
ATOM      6  H1  UNL     1      54.914   3.517  38.506  1.00  0.00     0.160 HD
HETATM    7  C7  UNL     1      55.868  -0.281  40.486  1.00  0.00     0.061 C 
HETATM    8  C8  UNL     1      56.798   0.593  41.315  1.00  0.00     0.003 C 
HETATM    9  C11 UNL     1      56.107   1.779  41.906  1.00  0.00     0.177 C 
BRANCH   4  10
HETATM   10  C4  UNL     1      54.078   1.754  37.587  1.00  0.00     0.147 C 
BRANCH  10  11
HETATM   11  C3  UNL     1      54.784   1.912  36.263  1.00  0.00     0.190 C 
BRANCH  11  12
HETATM   12  O2  UNL     1      53.914   1.783  35.207  1.00  0.00    -0.365 OA
BRANCH  12  13
HETATM   13  C2  UNL     1      52.596   2.011  35.509  1.00  0.00     0.337 C 
BRANCH  13  14
HETATM   14  O1  UNL     1      51.799   2.347  34.426  1.00  0.00    -0.372 OA
HETATM   15  C1  UNL     1      50.645   2.998  34.823  1.00  0.00     0.204 C 
ENDBRANCH  13  14
ENDBRANCH  12  13
ENDBRANCH  11  12
ENDBRANCH  10  11
ENDBRANCH   4  10
BRANCH   8  16
HETATM   16  N2  UNL     1      57.684  -0.059  42.147  1.00  0.00    -0.364 N 
ATOM     17  H2  UNL     1      57.300  -0.515  42.975  1.00  0.00     0.162 HD
BRANCH  16  18
HETATM   18  C9  UNL     1      59.062  -0.148  41.951  1.00  0.00     0.280 C 
BRANCH  18  19
HETATM   19  O3  UNL     1      59.607  -1.268  42.668  1.00  0.00    -0.370 OA
ATOM     20  H3  UNL     1      59.464  -1.171  43.602  1.00  0.00     0.212 HD
ENDBRANCH  18  19
BRANCH  18  21
HETATM   21  C10 UNL     1      59.488  -0.328  40.557  1.00  0.00     0.284 C 
HETATM   22  O4  UNL     1      59.402  -1.461  40.030  1.00  0.00    -0.302 OA
ENDBRANCH  18  21
ENDBRANCH  16  18
ENDBRANCH   8  16
ENDBRANCH   1   2
BRANCH   1  23
HETATM   23  C13 UNL     1      54.530   4.648  41.598  1.00  0.00     0.135 C 
BRANCH  23  24
HETATM   24  O5  UNL     1      53.373   4.483  40.994  1.00  0.00    -0.348 OA
ATOM     25  H5  UNL     1      52.622   4.503  41.575  1.00  0.00     0.219 HD
ENDBRANCH  23  24
BRANCH  23  26
HETATM   26  N4  UNL     1      54.406   5.320  42.811  1.00  0.00    -0.371 N 
ATOM     27  H4  UNL     1      55.072   6.064  43.017  1.00  0.00     0.161 HD
BRANCH  26  28
HETATM   28  C14 UNL     1      53.379   5.024  43.803  1.00  0.00     0.154 C 
BRANCH  28  29
HETATM   29  C15 UNL     1      52.209   5.950  43.762  1.00  0.00     0.201 C 
BRANCH  29  30
HETATM   30  N5  UNL     1      52.742   7.287  44.093  1.00  0.00    -0.073 N 
ATOM     31  H53 UNL     1      53.420   7.280  44.855  1.00  0.00     0.274 HD
ATOM     32  H52 UNL     1      53.364   7.667  43.379  1.00  0.00     0.274 HD
ATOM     33  H51 UNL     1      51.927   7.873  44.278  1.00  0.00     0.274 HD
ENDBRANCH  29  30
BRANCH  29  34
HETATM   34  C16 UNL     1      51.181   5.656  44.833  1.00  0.00     0.036 C 
BRANCH  34  35
HETATM   35  C17 UNL     1      50.033   4.880  44.275  1.00  0.00     0.022 C 
BRANCH  35  36
HETATM   36  C18 UNL     1      48.930   5.803  43.764  1.00  0.00     0.122 C 
BRANCH  36  37
HETATM   37  N6  UNL     1      48.013   5.152  42.883  1.00  0.00    -0.365 N 
HETATM   38  C19 UNL     1      47.152   4.107  43.305  1.00  0.00     0.181 C 
HETATM   39  N7  UNL     1      46.547   4.198  44.428  1.00  0.00    -0.374 N 
HETATM   40  N8  UNL     1      46.995   2.977  42.440  1.00  0.00    -0.064 NA
ATOM     41  H72 UNL     1      46.658   5.004  45.043  1.00  0.00     0.158 HD
ATOM     42  H71 UNL     1      45.928   3.447  44.731  1.00  0.00     0.158 HD
ATOM     43  H6  UNL     1      47.976   5.451  41.909  1.00  0.00     0.162 HD
ENDBRANCH  36  37
ENDBRANCH  35  36
ENDBRANCH  34  35
ENDBRANCH  29  34
ENDBRANCH  28  29
ENDBRANCH  26  28
ENDBRANCH  23  26
ENDBRANCH   1  23
BRANCH   1  44
HETATM   44  C20 UNL     1      57.049   4.477  41.308  1.00  0.00     0.008 C 
HETATM   45  C21 UNL     1      57.304   5.949  41.271  1.00  0.00     0.012 C 
HETATM   46  C22 UNL     1      58.032   3.837  40.341  1.00  0.00     0.012 C 
ENDBRANCH   1  44
TORSDOF 21
ENDMDL
