MODEL 1
REMARK VINA RESULT: -2.600706250      0.000      0.000
REMARK  0 active torsions:
REMARK  status: ('A' for Active; 'I' for Inactive)
ROOT
HETATM    1  C1  UNL     1      35.539  20.659  19.661  1.00  0.00     0.173 A 
HETATM    2  N1  UNL     1      36.224  20.035  20.568  1.00  0.00    -0.376 N 
ATOM      3  H1  UNL     1      35.938  19.930  21.542  1.00  0.00     0.160 HD
HETATM    4  C2  UNL     1      37.453  19.505  20.009  1.00  0.00     0.158 A 
HETATM    5  C3  UNL     1      37.337  18.054  19.583  1.00  0.00     0.263 A 
HETATM    6  N2  UNL     1      37.453  18.501  18.214  1.00  0.00    -0.050 N 
ATOM      7  H21 UNL     1      36.763  18.165  17.542  1.00  0.00     0.279 HD
ATOM      8  H22 UNL     1      38.230  18.143  17.658  1.00  0.00     0.279 HD
HETATM    9  C4  UNL     1      37.449  19.891  18.541  1.00  0.00     0.309 A 
HETATM   10  N3  UNL     1      36.231  20.611  18.423  1.00  0.00    -0.357 N 
ATOM     11  H3  UNL     1      35.896  21.039  17.559  1.00  0.00     0.162 HD
ENDROOT
TORSDOF 0
ENDMDL
MODEL 2
REMARK VINA RESULT: -2.498426386      1.248      2.347
REMARK  0 active torsions:
REMARK  status: ('A' for Active; 'I' for Inactive)
ROOT
HETATM    1  C1  UNL     1      35.979  17.800  20.568  1.00  0.00     0.173 A 
HETATM    2  N1  UNL     1      37.220  18.087  20.321  1.00  0.00    -0.376 N 
ATOM      3  H1  UNL     1      37.974  17.403  20.269  1.00  0.00     0.160 HD
HETATM    4  C2  UNL     1      37.387  19.515  20.129  1.00  0.00     0.158 A 
HETATM    5  C3  UNL     1      37.356  19.927  18.670  1.00  0.00     0.263 A 
HETATM    6  N2  UNL     1      36.095  20.581  18.935  1.00  0.00    -0.050 N 
ATOM      7  H21 UNL     1      35.313  20.383  18.311  1.00  0.00     0.279 HD
ATOM      8  H22 UNL     1      36.031  21.584  18.763  1.00  0.00     0.279 HD
HETATM    9  C4  UNL     1      36.007  20.127  20.286  1.00  0.00     0.309 A 
HETATM   10  N3  UNL     1      35.204  18.988  20.567  1.00  0.00    -0.357 N 
ATOM     11  H3  UNL     1      34.200  19.021  20.744  1.00  0.00     0.162 HD
ENDROOT
TORSDOF 0
ENDMDL
MODEL 3
REMARK VINA RESULT: -2.467784205      1.252      2.328
REMARK  0 active torsions:
REMARK  status: ('A' for Active; 'I' for Inactive)
ROOT
HETATM    1  C1  UNL     1      37.173  19.822  18.346  1.00  0.00     0.173 A 
HETATM    2  N1  UNL     1      36.573  20.641  19.153  1.00  0.00    -0.376 N 
ATOM      3  H1  UNL     1      36.301  21.594  18.916  1.00  0.00     0.160 HD
HETATM    4  C2  UNL     1      36.341  20.014  20.441  1.00  0.00     0.158 A 
HETATM    5  C3  UNL     1      34.956  19.410  20.568  1.00  0.00     0.263 A 
HETATM    6  N2  UNL     1      35.581  18.107  20.568  1.00  0.00    -0.050 N 
ATOM      7  H21 UNL     1      35.213  17.401  19.930  1.00  0.00     0.279 HD
ATOM      8  H22 UNL     1      35.436  17.507  21.381  1.00  0.00     0.279 HD
HETATM    9  C4  UNL     1      36.897  18.605  20.331  1.00  0.00     0.309 A 
HETATM   10  N3  UNL     1      37.400  18.584  19.002  1.00  0.00    -0.357 N 
ATOM     11  H3  UNL     1      37.864  17.782  18.575  1.00  0.00     0.162 HD
ENDROOT
TORSDOF 0
ENDMDL
MODEL 4
REMARK VINA RESULT: -2.174791661      9.824     10.759
REMARK  0 active torsions:
REMARK  status: ('A' for Active; 'I' for Inactive)
ROOT
HETATM    1  C1  UNL     1      36.873  16.891  10.603  1.00  0.00     0.173 A 
HETATM    2  N1  UNL     1      37.453  17.148   9.471  1.00  0.00    -0.376 N 
ATOM      3  H1  UNL     1      38.463  17.166   9.328  1.00  0.00     0.160 HD
HETATM    4  C2  UNL     1      36.470  17.406   8.437  1.00  0.00     0.158 A 
HETATM    5  C3  UNL     1      36.146  16.182   7.604  1.00  0.00     0.263 A 
HETATM    6  N2  UNL     1      34.832  16.183   8.205  1.00  0.00    -0.050 N 
ATOM      7  H21 UNL     1      34.486  15.309   8.600  1.00  0.00     0.279 HD
ATOM      8  H22 UNL     1      34.024  16.273   7.589  1.00  0.00     0.279 HD
HETATM    9  C4  UNL     1      35.112  17.259   9.101  1.00  0.00     0.309 A 
HETATM   10  N3  UNL     1      35.464  16.950  10.442  1.00  0.00    -0.357 N 
ATOM     11  H3  UNL     1      34.792  16.791  11.192  1.00  0.00     0.162 HD
ENDROOT
TORSDOF 0
ENDMDL
MODEL 5
REMARK VINA RESULT: -2.092515265      9.748     10.702
REMARK  0 active torsions:
REMARK  status: ('A' for Active; 'I' for Inactive)
ROOT
HETATM    1  C1  UNL     1      35.686  17.266   7.621  1.00  0.00     0.173 A 
HETATM    2  N1  UNL     1      36.811  16.676   7.882  1.00  0.00    -0.376 N 
ATOM      3  H1  UNL     1      37.590  16.597   7.230  1.00  0.00     0.160 HD
HETATM    4  C2  UNL     1      36.809  16.141   9.231  1.00  0.00     0.158 A 
HETATM    5  C3  UNL     1      37.453  17.070  10.241  1.00  0.00     0.263 A 
HETATM    6  N2  UNL     1      36.143  17.270  10.816  1.00  0.00    -0.050 N 
ATOM      7  H21 UNL     1      35.833  18.229  10.977  1.00  0.00     0.279 HD
ATOM      8  H22 UNL     1      36.006  17.018  11.795  1.00  0.00     0.279 HD
HETATM    9  C4  UNL     1      35.459  16.503   9.826  1.00  0.00     0.309 A 
HETATM   10  N3  UNL     1      34.831  17.188   8.751  1.00  0.00    -0.357 N 
ATOM     11  H3  UNL     1      33.888  17.574   8.787  1.00  0.00     0.162 HD
ENDROOT
TORSDOF 0
ENDMDL
