MODEL 1
REMARK VINA RESULT: -2.453772778      0.000      0.000
REMARK  0 active torsions:
REMARK  status: ('A' for Active; 'I' for Inactive)
ROOT
HETATM    1  C1  UNL     1      35.204  16.141   7.747  1.00  0.00     0.315 C 
HETATM    2  N1  UNL     1      35.352  17.495   8.296  1.00  0.00     0.146 N 
HETATM    3  C2  UNL     1      36.694  17.554   8.916  1.00  0.00     0.339 C 
HETATM    4  C3  UNL     1      36.298  17.405  10.341  1.00  0.00     0.420 C 
HETATM    5  N2  UNL     1      35.207  16.421  10.280  1.00  0.00     0.012 N 
ATOM      6  H21 UNL     1      34.796  15.982  11.105  1.00  0.00     0.284 HD
ATOM      7  H22 UNL     1      35.323  15.472   9.927  1.00  0.00     0.284 HD
HETATM    8  C4  UNL     1      34.552  17.501   9.520  1.00  0.00     0.620 C 
HETATM    9  N3  UNL     1      35.211  18.396  10.438  1.00  0.00     0.012 N 
ATOM     10  H31 UNL     1      35.344  19.390  10.249  1.00  0.00     0.284 HD
ATOM     11  H32 UNL     1      34.800  18.687  11.325  1.00  0.00     0.284 HD
ENDROOT
TORSDOF 0
ENDMDL
MODEL 2
REMARK VINA RESULT: -2.200024514      0.926      2.033
REMARK  0 active torsions:
REMARK  status: ('A' for Active; 'I' for Inactive)
ROOT
HETATM    1  C1  UNL     1      37.453  17.647   8.246  1.00  0.00     0.315 C 
HETATM    2  N1  UNL     1      36.587  16.525   8.633  1.00  0.00     0.146 N 
HETATM    3  C2  UNL     1      35.208  16.912   8.262  1.00  0.00     0.339 C 
HETATM    4  C3  UNL     1      34.706  17.298   9.608  1.00  0.00     0.420 C 
HETATM    5  N2  UNL     1      35.865  17.973  10.212  1.00  0.00     0.012 N 
ATOM      6  H21 UNL     1      35.822  18.490  11.091  1.00  0.00     0.284 HD
ATOM      7  H22 UNL     1      36.291  18.815   9.826  1.00  0.00     0.284 HD
HETATM    8  C4  UNL     1      36.455  16.628  10.085  1.00  0.00     0.620 C 
HETATM    9  N3  UNL     1      35.138  16.141  10.413  1.00  0.00     0.012 N 
ATOM     10  H31 UNL     1      34.834  15.185  10.225  1.00  0.00     0.284 HD
ATOM     11  H32 UNL     1      34.825  15.981  11.370  1.00  0.00     0.284 HD
ENDROOT
TORSDOF 0
ENDMDL
MODEL 3
REMARK VINA RESULT: -2.192788129      1.299      2.439
REMARK  0 active torsions:
REMARK  status: ('A' for Active; 'I' for Inactive)
ROOT
HETATM    1  C1  UNL     1      37.299  17.062  11.337  1.00  0.00     0.315 C 
HETATM    2  N1  UNL     1      37.031  16.307  10.106  1.00  0.00     0.146 N 
HETATM    3  C2  UNL     1      37.169  17.264   8.986  1.00  0.00     0.339 C 
HETATM    4  C3  UNL     1      35.728  17.517   8.720  1.00  0.00     0.420 C 
HETATM    5  N2  UNL     1      35.143  17.549  10.069  1.00  0.00     0.012 N 
ATOM      6  H21 UNL     1      34.185  17.843  10.262  1.00  0.00     0.284 HD
ATOM      7  H22 UNL     1      35.413  18.224  10.785  1.00  0.00     0.284 HD
HETATM    8  C4  UNL     1      35.579  16.141  10.068  1.00  0.00     0.620 C 
HETATM    9  N3  UNL     1      35.202  16.141   8.676  1.00  0.00     0.012 N 
ATOM     10  H31 UNL     1      35.528  15.440   8.011  1.00  0.00     0.284 HD
ATOM     11  H32 UNL     1      34.262  15.914   8.354  1.00  0.00     0.284 HD
ENDROOT
TORSDOF 0
ENDMDL
MODEL 4
REMARK VINA RESULT: -2.137260585      1.345      1.603
REMARK  0 active torsions:
REMARK  status: ('A' for Active; 'I' for Inactive)
ROOT
HETATM    1  C1  UNL     1      37.429  17.004   7.745  1.00  0.00     0.315 C 
HETATM    2  N1  UNL     1      36.866  17.641   8.943  1.00  0.00     0.146 N 
HETATM    3  C2  UNL     1      36.973  16.649  10.036  1.00  0.00     0.339 C 
HETATM    4  C3  UNL     1      35.563  16.178  10.060  1.00  0.00     0.420 C 
HETATM    5  N2  UNL     1      35.202  16.141   8.634  1.00  0.00     0.012 N 
ATOM      6  H21 UNL     1      34.340  15.725   8.281  1.00  0.00     0.284 HD
ATOM      7  H22 UNL     1      35.677  15.555   7.947  1.00  0.00     0.284 HD
HETATM    8  C4  UNL     1      35.417  17.595   8.754  1.00  0.00     0.620 C 
HETATM    9  N3  UNL     1      34.836  17.460  10.067  1.00  0.00     0.012 N 
ATOM     10  H31 UNL     1      34.947  18.160  10.801  1.00  0.00     0.284 HD
ATOM     11  H32 UNL     1      33.834  17.531  10.244  1.00  0.00     0.284 HD
ENDROOT
TORSDOF 0
ENDMDL
MODEL 5
REMARK VINA RESULT: -1.959536000      1.307      1.874
REMARK  0 active torsions:
REMARK  status: ('A' for Active; 'I' for Inactive)
ROOT
HETATM    1  C1  UNL     1      35.464  17.266   7.074  1.00  0.00     0.315 C 
HETATM    2  N1  UNL     1      35.135  16.578   8.329  1.00  0.00     0.146 N 
HETATM    3  C2  UNL     1      34.828  17.635   9.319  1.00  0.00     0.339 C 
HETATM    4  C3  UNL     1      36.113  17.628  10.069  1.00  0.00     0.420 C 
HETATM    5  N2  UNL     1      37.114  17.434   9.009  1.00  0.00     0.012 N 
ATOM      6  H21 UNL     1      38.119  17.522   9.159  1.00  0.00     0.284 HD
ATOM      7  H22 UNL     1      37.250  18.086   8.236  1.00  0.00     0.284 HD
HETATM    8  C4  UNL     1      36.419  16.141   8.874  1.00  0.00     0.620 C 
HETATM    9  N3  UNL     1      36.293  16.185  10.309  1.00  0.00     0.012 N 
ATOM     10  H31 UNL     1      35.621  15.618  10.828  1.00  0.00     0.284 HD
ATOM     11  H32 UNL     1      36.998  15.810  10.943  1.00  0.00     0.284 HD
ENDROOT
TORSDOF 0
ENDMDL
