MODEL 1
REMARK VINA RESULT: -5.788562742      0.000      0.000
REMARK  7 active torsions:
REMARK  status: ('A' for Active; 'I' for Inactive)
REMARK    1  A    between atoms: C1_2  and  N1_3 
REMARK    2  A    between atoms: C1_2  and  N4_15 
REMARK    3  A    between atoms: N1_3  and  C2_5 
REMARK    4  A    between atoms: C2_5  and  C3_6 
REMARK    5  A    between atoms: C3_6  and  N2_7 
REMARK    6  A    between atoms: N4_15  and  C8_17 
REMARK    7  A    between atoms: C8_17  and  C9_18 
ROOT
HETATM    1  N1  UNL     1       6.198  -8.400  16.833  1.00  0.00    -0.366 N 
ATOM      2  H1  UNL     1       7.002  -7.778  16.751  1.00  0.00     0.161 HD
ENDROOT
BRANCH   1   3
HETATM    3  C1  UNL     1       5.957  -9.132  18.012  1.00  0.00     0.167 C 
HETATM    4  S1  UNL     1       4.419  -9.478  18.482  1.00  0.00    -0.041 SA
BRANCH   3   5
HETATM    5  N4  UNL     1       7.067  -9.565  18.799  1.00  0.00    -0.367 N 
ATOM      6  H4  UNL     1       7.793  -8.895  19.050  1.00  0.00     0.161 HD
BRANCH   5   7
HETATM    7  C8  UNL     1       7.183 -10.930  19.244  1.00  0.00     0.126 C 
BRANCH   7   8
HETATM    8  C9  UNL     1       7.177 -10.994  20.739  1.00  0.00     0.003 A 
HETATM    9  C10 UNL     1       5.985 -11.652  21.391  1.00  0.00     0.007 A 
HETATM   10  C11 UNL     1       7.358 -12.235  21.489  1.00  0.00     0.007 A 
ENDBRANCH   7   8
ENDBRANCH   5   7
ENDBRANCH   3   5
ENDBRANCH   1   3
BRANCH   1  11
HETATM   11  C2  UNL     1       5.264  -8.559  15.745  1.00  0.00     0.141 C 
BRANCH  11  12
HETATM   12  C3  UNL     1       5.850  -8.430  14.391  1.00  0.00     0.136 C 
BRANCH  12  13
HETATM   13  N2  UNL     1       5.923  -9.601  13.604  1.00  0.00    -0.408 N 
HETATM   14  C4  UNL     1       6.693  -9.513  12.409  1.00  0.00     0.144 C 
HETATM   15  C5  UNL     1       5.772  -9.113  11.256  1.00  0.00     0.251 C 
HETATM   16  N3  UNL     1       4.559  -9.862  11.208  1.00  0.00    -0.072 N 
HETATM   17  C6  UNL     1       3.845  -9.770  12.467  1.00  0.00     0.251 C 
ATOM     18  H32 UNL     1       3.974  -9.582  10.420  1.00  0.00     0.277 HD
ATOM     19  H31 UNL     1       4.726 -10.831  10.938  1.00  0.00     0.277 HD
HETATM   20  C7  UNL     1       4.762 -10.402  13.518  1.00  0.00     0.144 C 
ENDBRANCH  12  13
ENDBRANCH  11  12
ENDBRANCH   1  11
TORSDOF 7
ENDMDL
MODEL 2
REMARK VINA RESULT: -5.651539646      1.713      7.120
REMARK  7 active torsions:
REMARK  status: ('A' for Active; 'I' for Inactive)
REMARK    1  A    between atoms: C1_2  and  N1_3 
REMARK    2  A    between atoms: C1_2  and  N4_15 
REMARK    3  A    between atoms: N1_3  and  C2_5 
REMARK    4  A    between atoms: C2_5  and  C3_6 
REMARK    5  A    between atoms: C3_6  and  N2_7 
REMARK    6  A    between atoms: N4_15  and  C8_17 
REMARK    7  A    between atoms: C8_17  and  C9_18 
ROOT
HETATM    1  N1  UNL     1       5.919  -8.446  16.138  1.00  0.00    -0.366 N 
ATOM      2  H1  UNL     1       6.768  -7.889  16.226  1.00  0.00     0.161 HD
ENDROOT
BRANCH   1   3
HETATM    3  C1  UNL     1       5.506  -8.956  14.891  1.00  0.00     0.167 C 
HETATM    4  S1  UNL     1       3.926  -9.327  14.621  1.00  0.00    -0.041 SA
BRANCH   3   5
HETATM    5  N4  UNL     1       6.479  -9.153  13.865  1.00  0.00    -0.367 N 
ATOM      6  H4  UNL     1       7.206  -8.452  13.724  1.00  0.00     0.161 HD
BRANCH   5   7
HETATM    7  C8  UNL     1       6.456 -10.322  13.026  1.00  0.00     0.126 C 
BRANCH   7   8
HETATM    8  C9  UNL     1       6.495  -9.930  11.581  1.00  0.00     0.003 A 
HETATM    9  C10 UNL     1       5.202  -9.455  10.966  1.00  0.00     0.007 A 
HETATM   10  C11 UNL     1       6.378  -8.548  11.123  1.00  0.00     0.007 A 
ENDBRANCH   7   8
ENDBRANCH   5   7
ENDBRANCH   3   5
ENDBRANCH   1   3
BRANCH   1  11
HETATM   11  C2  UNL     1       5.096  -8.742  17.286  1.00  0.00     0.141 C 
BRANCH  11  12
HETATM   12  C3  UNL     1       5.841  -9.041  18.531  1.00  0.00     0.136 C 
BRANCH  12  13
HETATM   13  N2  UNL     1       5.570 -10.274  19.165  1.00  0.00    -0.408 N 
HETATM   14  C4  UNL     1       5.659 -10.287  20.586  1.00  0.00     0.144 C 
HETATM   15  C5  UNL     1       7.078 -10.693  20.988  1.00  0.00     0.251 C 
HETATM   16  N3  UNL     1       7.567 -11.832  20.285  1.00  0.00    -0.072 N 
HETATM   17  C6  UNL     1       7.501 -11.622  18.851  1.00  0.00     0.251 C 
ATOM     18  H32 UNL     1       8.508 -12.085  20.586  1.00  0.00     0.277 HD
ATOM     19  H31 UNL     1       7.082 -12.684  20.564  1.00  0.00     0.277 HD
HETATM   20  C7  UNL     1       6.015 -11.451  18.519  1.00  0.00     0.144 C 
ENDBRANCH  12  13
ENDBRANCH  11  12
ENDBRANCH   1  11
TORSDOF 7
ENDMDL
MODEL 3
REMARK VINA RESULT: -5.578167651      1.679      7.259
REMARK  7 active torsions:
REMARK  status: ('A' for Active; 'I' for Inactive)
REMARK    1  A    between atoms: C1_2  and  N1_3 
REMARK    2  A    between atoms: C1_2  and  N4_15 
REMARK    3  A    between atoms: N1_3  and  C2_5 
REMARK    4  A    between atoms: C2_5  and  C3_6 
REMARK    5  A    between atoms: C3_6  and  N2_7 
REMARK    6  A    between atoms: N4_15  and  C8_17 
REMARK    7  A    between atoms: C8_17  and  C9_18 
ROOT
HETATM    1  N1  UNL     1       5.974  -8.381  16.119  1.00  0.00    -0.366 N 
ATOM      2  H1  UNL     1       6.793  -7.775  16.166  1.00  0.00     0.161 HD
ENDROOT
BRANCH   1   3
HETATM    3  C1  UNL     1       5.544  -8.934  14.896  1.00  0.00     0.167 C 
HETATM    4  S1  UNL     1       3.961  -9.319  14.664  1.00  0.00    -0.041 SA
BRANCH   3   5
HETATM    5  N4  UNL     1       6.502  -9.161  13.863  1.00  0.00    -0.367 N 
ATOM      6  H4  UNL     1       7.237  -8.472  13.701  1.00  0.00     0.161 HD
BRANCH   5   7
HETATM    7  C8  UNL     1       6.452 -10.344  13.043  1.00  0.00     0.126 C 
BRANCH   7   8
HETATM    8  C9  UNL     1       6.470  -9.975  11.592  1.00  0.00     0.003 A 
HETATM    9  C10 UNL     1       5.178  -9.468  10.999  1.00  0.00     0.007 A 
HETATM   10  C11 UNL     1       6.387  -8.597  11.113  1.00  0.00     0.007 A 
ENDBRANCH   7   8
ENDBRANCH   5   7
ENDBRANCH   3   5
ENDBRANCH   1   3
BRANCH   1  11
HETATM   11  C2  UNL     1       5.213  -8.703  17.302  1.00  0.00     0.141 C 
BRANCH  11  12
HETATM   12  C3  UNL     1       6.013  -9.199  18.446  1.00  0.00     0.136 C 
BRANCH  12  13
HETATM   13  N2  UNL     1       5.811 -10.539  18.842  1.00  0.00    -0.408 N 
HETATM   14  C4  UNL     1       4.592 -10.821  19.521  1.00  0.00     0.144 C 
HETATM   15  C5  UNL     1       4.822 -10.688  21.027  1.00  0.00     0.251 C 
HETATM   16  N3  UNL     1       6.001 -11.346  21.485  1.00  0.00    -0.072 N 
HETATM   17  C6  UNL     1       7.169 -10.878  20.762  1.00  0.00     0.251 C 
ATOM     18  H32 UNL     1       6.118 -11.251  22.494  1.00  0.00     0.277 HD
ATOM     19  H31 UNL     1       5.909 -12.361  21.436  1.00  0.00     0.277 HD
HETATM   20  C7  UNL     1       6.939 -11.262  19.297  1.00  0.00     0.144 C 
ENDBRANCH  12  13
ENDBRANCH  11  12
ENDBRANCH   1  11
TORSDOF 7
ENDMDL
MODEL 4
REMARK VINA RESULT: -5.566210429      1.720      7.390
REMARK  7 active torsions:
REMARK  status: ('A' for Active; 'I' for Inactive)
REMARK    1  A    between atoms: C1_2  and  N1_3 
REMARK    2  A    between atoms: C1_2  and  N4_15 
REMARK    3  A    between atoms: N1_3  and  C2_5 
REMARK    4  A    between atoms: C2_5  and  C3_6 
REMARK    5  A    between atoms: C3_6  and  N2_7 
REMARK    6  A    between atoms: N4_15  and  C8_17 
REMARK    7  A    between atoms: C8_17  and  C9_18 
ROOT
HETATM    1  N1  UNL     1       6.070  -8.363  16.885  1.00  0.00    -0.366 N 
ATOM      2  H1  UNL     1       6.906  -7.787  16.983  1.00  0.00     0.161 HD
ENDROOT
BRANCH   1   3
HETATM    3  C1  UNL     1       5.471  -8.573  15.627  1.00  0.00     0.167 C 
HETATM    4  S1  UNL     1       3.889  -9.008  15.517  1.00  0.00    -0.041 SA
BRANCH   3   5
HETATM    5  N4  UNL     1       6.259  -8.411  14.447  1.00  0.00    -0.367 N 
ATOM      6  H4  UNL     1       7.036  -7.750  14.452  1.00  0.00     0.161 HD
BRANCH   5   7
HETATM    7  C8  UNL     1       5.981  -9.162  13.251  1.00  0.00     0.126 C 
BRANCH   7   8
HETATM    8  C9  UNL     1       6.695  -8.564  12.080  1.00  0.00     0.003 A 
HETATM    9  C10 UNL     1       7.240  -9.522  11.049  1.00  0.00     0.007 A 
HETATM   10  C11 UNL     1       6.147  -8.556  10.725  1.00  0.00     0.007 A 
ENDBRANCH   7   8
ENDBRANCH   5   7
ENDBRANCH   3   5
ENDBRANCH   1   3
BRANCH   1  11
HETATM   11  C2  UNL     1       5.458  -8.992  18.030  1.00  0.00     0.141 C 
BRANCH  11  12
HETATM   12  C3  UNL     1       6.320  -9.956  18.752  1.00  0.00     0.136 C 
BRANCH  12  13
HETATM   13  N2  UNL     1       6.083 -10.125  20.134  1.00  0.00    -0.408 N 
HETATM   14  C4  UNL     1       7.090 -10.812  20.869  1.00  0.00     0.144 C 
HETATM   15  C5  UNL     1       6.751 -12.304  20.896  1.00  0.00     0.251 C 
HETATM   16  N3  UNL     1       5.391 -12.574  21.227  1.00  0.00    -0.072 N 
HETATM   17  C6  UNL     1       4.492 -11.879  20.326  1.00  0.00     0.251 C 
ATOM     18  H32 UNL     1       5.201 -13.576  21.251  1.00  0.00     0.277 HD
ATOM     19  H31 UNL     1       5.190 -12.356  22.203  1.00  0.00     0.277 HD
HETATM   20  C7  UNL     1       4.754 -10.384  20.540  1.00  0.00     0.144 C 
ENDBRANCH  12  13
ENDBRANCH  11  12
ENDBRANCH   1  11
TORSDOF 7
ENDMDL
MODEL 5
REMARK VINA RESULT: -5.522319044      1.797      7.009
REMARK  7 active torsions:
REMARK  status: ('A' for Active; 'I' for Inactive)
REMARK    1  A    between atoms: C1_2  and  N1_3 
REMARK    2  A    between atoms: C1_2  and  N4_15 
REMARK    3  A    between atoms: N1_3  and  C2_5 
REMARK    4  A    between atoms: C2_5  and  C3_6 
REMARK    5  A    between atoms: C3_6  and  N2_7 
REMARK    6  A    between atoms: N4_15  and  C8_17 
REMARK    7  A    between atoms: C8_17  and  C9_18 
ROOT
HETATM    1  N1  UNL     1       5.980  -8.690  16.806  1.00  0.00    -0.366 N 
ATOM      2  H1  UNL     1       6.744  -8.050  16.585  1.00  0.00     0.161 HD
ENDROOT
BRANCH   1   3
HETATM    3  C1  UNL     1       5.261  -9.349  15.790  1.00  0.00     0.167 C 
HETATM    4  S1  UNL     1       3.830  -8.742  15.251  1.00  0.00    -0.041 SA
BRANCH   3   5
HETATM    5  N4  UNL     1       5.788 -10.555  15.238  1.00  0.00    -0.367 N 
ATOM      6  H4  UNL     1       6.476 -11.089  15.768  1.00  0.00     0.161 HD
BRANCH   5   7
HETATM    7  C8  UNL     1       5.367 -11.035  13.947  1.00  0.00     0.126 C 
BRANCH   7   8
HETATM    8  C9  UNL     1       6.420 -10.760  12.919  1.00  0.00     0.003 A 
HETATM    9  C10 UNL     1       5.999  -9.973  11.702  1.00  0.00     0.007 A 
HETATM   10  C11 UNL     1       6.986  -9.433  12.685  1.00  0.00     0.007 A 
ENDBRANCH   7   8
ENDBRANCH   5   7
ENDBRANCH   3   5
ENDBRANCH   1   3
BRANCH   1  11
HETATM   11  C2  UNL     1       5.599  -8.952  18.173  1.00  0.00     0.141 C 
BRANCH  11  12
HETATM   12  C3  UNL     1       6.495  -9.874  18.909  1.00  0.00     0.136 C 
BRANCH  12  13
HETATM   13  N2  UNL     1       6.197 -10.116  20.268  1.00  0.00    -0.408 N 
HETATM   14  C4  UNL     1       7.149 -10.884  20.997  1.00  0.00     0.144 C 
HETATM   15  C5  UNL     1       6.755 -12.360  20.921  1.00  0.00     0.251 C 
HETATM   16  N3  UNL     1       5.374 -12.597  21.184  1.00  0.00    -0.072 N 
HETATM   17  C6  UNL     1       4.537 -11.815  20.294  1.00  0.00     0.251 C 
ATOM     18  H32 UNL     1       5.147 -13.590  21.140  1.00  0.00     0.277 HD
ATOM     19  H31 UNL     1       5.143 -12.429  22.163  1.00  0.00     0.277 HD
HETATM   20  C7  UNL     1       4.844 -10.347  20.608  1.00  0.00     0.144 C 
ENDBRANCH  12  13
ENDBRANCH  11  12
ENDBRANCH   1  11
TORSDOF 7
ENDMDL
