MODEL 1
REMARK VINA RESULT: -5.420011161      0.000      0.000
REMARK  8 active torsions:
REMARK  status: ('A' for Active; 'I' for Inactive)
REMARK    1  A    between atoms: N2_7  and  C6_8 
REMARK    2  A    between atoms: C6_8  and  C7_9 
REMARK    3  A    between atoms: C7_9  and  C8_10 
REMARK    4  A    between atoms: C8_10  and  C9_11 
REMARK    5  A    between atoms: C9_11  and  O1_12 
REMARK    6  A    between atoms: C11_15  and  O2_16 
REMARK    7  A    between atoms: C11_15  and  C12_18 
REMARK    8  A    between atoms: C12_18  and  O3_19 
ROOT
HETATM    1  C1  UNL     1       5.904 -12.011  22.191  1.00  0.00     0.276 C 
HETATM    2  N1  UNL     1       5.718 -11.792  20.745  1.00  0.00    -0.032 N 
HETATM    3  C2  UNL     1       4.901 -12.878  20.291  1.00  0.00     0.276 C 
HETATM    4  C3  UNL     1       5.027 -10.525  20.642  1.00  0.00     0.223 C 
HETATM    5  C4  UNL     1       6.229  -9.563  20.565  1.00  0.00     0.076 C 
HETATM    6  C5  UNL     1       6.862 -10.323  19.415  1.00  0.00     0.290 C 
HETATM    7  N2  UNL     1       5.772 -10.326  18.440  1.00  0.00     0.100 N 
HETATM    8  C10 UNL     1       4.553 -10.322  19.214  1.00  0.00     0.306 C 
HETATM    9  C11 UNL     1       6.984 -11.672  20.096  1.00  0.00     0.280 C 
ENDROOT
BRANCH   7  10
HETATM   10  C6  UNL     1       5.922  -9.115  17.691  1.00  0.00     0.273 C 
BRANCH  10  11
HETATM   11  C7  UNL     1       4.839  -8.788  16.745  1.00  0.00     0.032 C 
BRANCH  11  12
HETATM   12  C8  UNL     1       5.192  -8.462  15.342  1.00  0.00     0.028 C 
BRANCH  12  13
HETATM   13  C9  UNL     1       4.435  -9.377  14.362  1.00  0.00     0.164 C 
BRANCH  13  14
HETATM   14  O1  UNL     1       3.300  -9.896  14.976  1.00  0.00    -0.401 OA
ATOM     15  H1  UNL     1       3.081 -10.739  14.597  1.00  0.00     0.209 HD
ENDBRANCH  13  14
ENDBRANCH  12  13
ENDBRANCH  11  12
ENDBRANCH  10  11
ENDBRANCH   7  10
BRANCH   9  16
HETATM   16  O2  UNL     1       7.966 -11.515  21.076  1.00  0.00    -0.361 OA
ATOM     17  H2  UNL     1       8.787 -11.847  20.732  1.00  0.00     0.212 HD
ENDBRANCH   9  16
BRANCH   9  18
HETATM   18  C12 UNL     1       7.371 -12.778  19.201  1.00  0.00     0.235 C 
BRANCH  18  19
HETATM   19  O3  UNL     1       8.473 -12.387  18.443  1.00  0.00    -0.396 OA
ATOM     20  H3  UNL     1       8.288 -12.539  17.524  1.00  0.00     0.209 HD
ENDBRANCH  18  19
ENDBRANCH   9  18
TORSDOF 8
ENDMDL
MODEL 2
REMARK VINA RESULT: -5.287840063      1.089      1.104
REMARK  8 active torsions:
REMARK  status: ('A' for Active; 'I' for Inactive)
REMARK    1  A    between atoms: N2_7  and  C6_8 
REMARK    2  A    between atoms: C6_8  and  C7_9 
REMARK    3  A    between atoms: C7_9  and  C8_10 
REMARK    4  A    between atoms: C8_10  and  C9_11 
REMARK    5  A    between atoms: C9_11  and  O1_12 
REMARK    6  A    between atoms: C11_15  and  O2_16 
REMARK    7  A    between atoms: C11_15  and  C12_18 
REMARK    8  A    between atoms: C12_18  and  O3_19 
ROOT
HETATM    1  C1  UNL     1       5.738 -11.740  21.903  1.00  0.00     0.276 C 
HETATM    2  N1  UNL     1       5.581 -11.528  20.452  1.00  0.00    -0.032 N 
HETATM    3  C2  UNL     1       4.858 -12.668  19.971  1.00  0.00     0.276 C 
HETATM    4  C3  UNL     1       4.806 -10.313  20.330  1.00  0.00     0.223 C 
HETATM    5  C4  UNL     1       5.939  -9.269  20.293  1.00  0.00     0.076 C 
HETATM    6  C5  UNL     1       6.660  -9.977  19.161  1.00  0.00     0.290 C 
HETATM    7  N2  UNL     1       5.603 -10.054  18.153  1.00  0.00     0.100 N 
HETATM    8  C10 UNL     1       4.363 -10.138  18.888  1.00  0.00     0.306 C 
HETATM    9  C11 UNL     1       6.855 -11.317  19.844  1.00  0.00     0.280 C 
ENDROOT
BRANCH   7  10
HETATM   10  C6  UNL     1       5.690  -8.831  17.411  1.00  0.00     0.273 C 
BRANCH  10  11
HETATM   11  C7  UNL     1       4.895  -8.756  16.171  1.00  0.00     0.032 C 
BRANCH  11  12
HETATM   12  C8  UNL     1       5.128  -9.770  15.113  1.00  0.00     0.028 C 
BRANCH  12  13
HETATM   13  C9  UNL     1       5.651  -9.105  13.827  1.00  0.00     0.164 C 
BRANCH  13  14
HETATM   14  O1  UNL     1       6.441  -8.005  14.146  1.00  0.00    -0.401 OA
ATOM     15  H1  UNL     1       6.260  -7.721  15.034  1.00  0.00     0.209 HD
ENDBRANCH  13  14
ENDBRANCH  12  13
ENDBRANCH  11  12
ENDBRANCH  10  11
ENDBRANCH   7  10
BRANCH   9  16
HETATM   16  O2  UNL     1       7.793 -11.095  20.853  1.00  0.00    -0.361 OA
ATOM     17  H2  UNL     1       8.552 -11.640  20.682  1.00  0.00     0.212 HD
ENDBRANCH   9  16
BRANCH   9  18
HETATM   18  C12 UNL     1       7.347 -12.389  18.959  1.00  0.00     0.235 C 
BRANCH  18  19
HETATM   19  O3  UNL     1       8.473 -11.935  18.274  1.00  0.00    -0.396 OA
ATOM     20  H3  UNL     1       9.135 -11.674  18.903  1.00  0.00     0.209 HD
ENDBRANCH  18  19
ENDBRANCH   9  18
TORSDOF 8
ENDMDL
MODEL 3
REMARK VINA RESULT: -5.175364604      2.650      3.598
REMARK  8 active torsions:
REMARK  status: ('A' for Active; 'I' for Inactive)
REMARK    1  A    between atoms: N2_7  and  C6_8 
REMARK    2  A    between atoms: C6_8  and  C7_9 
REMARK    3  A    between atoms: C7_9  and  C8_10 
REMARK    4  A    between atoms: C8_10  and  C9_11 
REMARK    5  A    between atoms: C9_11  and  O1_12 
REMARK    6  A    between atoms: C11_15  and  O2_16 
REMARK    7  A    between atoms: C11_15  and  C12_18 
REMARK    8  A    between atoms: C12_18  and  O3_19 
ROOT
HETATM    1  C1  UNL     1       7.865 -13.442  21.348  1.00  0.00     0.276 C 
HETATM    2  N1  UNL     1       6.659 -12.981  20.636  1.00  0.00    -0.032 N 
HETATM    3  C2  UNL     1       6.543 -13.826  19.484  1.00  0.00     0.276 C 
HETATM    4  C3  UNL     1       5.570 -13.189  21.564  1.00  0.00     0.223 C 
HETATM    5  C4  UNL     1       5.573 -11.834  22.299  1.00  0.00     0.076 C 
HETATM    6  C5  UNL     1       5.495 -11.045  21.005  1.00  0.00     0.290 C 
HETATM    7  N2  UNL     1       4.302 -11.623  20.389  1.00  0.00     0.100 N 
HETATM    8  C10 UNL     1       4.247 -12.992  20.845  1.00  0.00     0.306 C 
HETATM    9  C11 UNL     1       6.755 -11.584  20.356  1.00  0.00     0.280 C 
ENDROOT
BRANCH   7  10
HETATM   10  C6  UNL     1       3.200 -10.859  20.893  1.00  0.00     0.273 C 
BRANCH  10  11
HETATM   11  C7  UNL     1       1.904 -11.555  20.985  1.00  0.00     0.032 C 
BRANCH  11  12
HETATM   12  C8  UNL     1       0.774 -11.072  20.154  1.00  0.00     0.028 C 
BRANCH  12  13
HETATM   13  C9  UNL     1       0.763 -11.778  18.786  1.00  0.00     0.164 C 
BRANCH  13  14
HETATM   14  O1  UNL     1       1.178 -10.898  17.792  1.00  0.00    -0.401 OA
ATOM     15  H1  UNL     1       0.433 -10.614  17.275  1.00  0.00     0.209 HD
ENDBRANCH  13  14
ENDBRANCH  12  13
ENDBRANCH  11  12
ENDBRANCH  10  11
ENDBRANCH   7  10
BRANCH   9  16
HETATM   16  O2  UNL     1       7.817 -11.060  21.094  1.00  0.00    -0.361 OA
ATOM     17  H2  UNL     1       8.569 -10.977  20.519  1.00  0.00     0.212 HD
ENDBRANCH   9  16
BRANCH   9  18
HETATM   18  C12 UNL     1       6.923 -11.207  18.940  1.00  0.00     0.235 C 
BRANCH  18  19
HETATM   19  O3  UNL     1       7.303  -9.869  18.865  1.00  0.00    -0.396 OA
ATOM     20  H3  UNL     1       8.102  -9.744  19.363  1.00  0.00     0.209 HD
ENDBRANCH  18  19
ENDBRANCH   9  18
TORSDOF 8
ENDMDL
MODEL 4
REMARK VINA RESULT: -5.100908602      1.899      2.670
REMARK  8 active torsions:
REMARK  status: ('A' for Active; 'I' for Inactive)
REMARK    1  A    between atoms: N2_7  and  C6_8 
REMARK    2  A    between atoms: C6_8  and  C7_9 
REMARK    3  A    between atoms: C7_9  and  C8_10 
REMARK    4  A    between atoms: C8_10  and  C9_11 
REMARK    5  A    between atoms: C9_11  and  O1_12 
REMARK    6  A    between atoms: C11_15  and  O2_16 
REMARK    7  A    between atoms: C11_15  and  C12_18 
REMARK    8  A    between atoms: C12_18  and  O3_19 
ROOT
HETATM    1  C1  UNL     1       7.177 -14.776  21.862  1.00  0.00     0.276 C 
HETATM    2  N1  UNL     1       6.456 -13.908  20.914  1.00  0.00    -0.032 N 
HETATM    3  C2  UNL     1       5.946 -14.783  19.900  1.00  0.00     0.276 C 
HETATM    4  C3  UNL     1       5.391 -13.308  21.687  1.00  0.00     0.223 C 
HETATM    5  C4  UNL     1       6.104 -12.042  22.200  1.00  0.00     0.076 C 
HETATM    6  C5  UNL     1       6.531 -11.623  20.805  1.00  0.00     0.290 C 
HETATM    7  N2  UNL     1       5.245 -11.595  20.110  1.00  0.00     0.100 N 
HETATM    8  C10 UNL     1       4.427 -12.596  20.754  1.00  0.00     0.306 C 
HETATM    9  C11 UNL     1       7.315 -12.869  20.444  1.00  0.00     0.280 C 
ENDROOT
BRANCH   7  10
HETATM   10  C6  UNL     1       4.722 -10.278  20.320  1.00  0.00     0.273 C 
BRANCH  10  11
HETATM   11  C7  UNL     1       5.297  -9.202  19.492  1.00  0.00     0.032 C 
BRANCH  11  12
HETATM   12  C8  UNL     1       4.873  -9.090  18.074  1.00  0.00     0.028 C 
BRANCH  12  13
HETATM   13  C9  UNL     1       6.010  -8.517  17.209  1.00  0.00     0.164 C 
BRANCH  13  14
HETATM   14  O1  UNL     1       6.982  -7.940  18.020  1.00  0.00    -0.401 OA
ATOM     15  H1  UNL     1       7.827  -7.970  17.587  1.00  0.00     0.209 HD
ENDBRANCH  13  14
ENDBRANCH  12  13
ENDBRANCH  11  12
ENDBRANCH  10  11
ENDBRANCH   7  10
BRANCH   9  16
HETATM   16  O2  UNL     1       8.457 -12.846  21.247  1.00  0.00    -0.361 OA
ATOM     17  H2  UNL     1       8.599 -11.954  21.539  1.00  0.00     0.212 HD
ENDBRANCH   9  16
BRANCH   9  18
HETATM   18  C12 UNL     1       7.725 -12.945  19.029  1.00  0.00     0.235 C 
BRANCH  18  19
HETATM   19  O3  UNL     1       8.090 -11.674  18.590  1.00  0.00    -0.396 OA
ATOM     20  H3  UNL     1       8.743 -11.757  17.906  1.00  0.00     0.209 HD
ENDBRANCH  18  19
ENDBRANCH   9  18
TORSDOF 8
ENDMDL
MODEL 5
REMARK VINA RESULT: -5.082111362      1.919      2.786
REMARK  8 active torsions:
REMARK  status: ('A' for Active; 'I' for Inactive)
REMARK    1  A    between atoms: N2_7  and  C6_8 
REMARK    2  A    between atoms: C6_8  and  C7_9 
REMARK    3  A    between atoms: C7_9  and  C8_10 
REMARK    4  A    between atoms: C8_10  and  C9_11 
REMARK    5  A    between atoms: C9_11  and  O1_12 
REMARK    6  A    between atoms: C11_15  and  O2_16 
REMARK    7  A    between atoms: C11_15  and  C12_18 
REMARK    8  A    between atoms: C12_18  and  O3_19 
ROOT
HETATM    1  C1  UNL     1       5.735 -13.769  20.515  1.00  0.00     0.276 C 
HETATM    2  N1  UNL     1       5.938 -12.311  20.607  1.00  0.00    -0.032 N 
HETATM    3  C2  UNL     1       6.523 -12.083  21.895  1.00  0.00     0.276 C 
HETATM    4  C3  UNL     1       6.858 -11.991  19.537  1.00  0.00     0.223 C 
HETATM    5  C4  UNL     1       5.863 -11.713  18.394  1.00  0.00     0.076 C 
HETATM    6  C5  UNL     1       5.078 -10.709  19.217  1.00  0.00     0.290 C 
HETATM    7  N2  UNL     1       6.132  -9.776  19.610  1.00  0.00     0.100 N 
HETATM    8  C10 UNL     1       7.341 -10.560  19.696  1.00  0.00     0.306 C 
HETATM    9  C11 UNL     1       4.709 -11.625  20.368  1.00  0.00     0.280 C 
ENDROOT
BRANCH   7  10
HETATM   10  C6  UNL     1       6.208  -8.813  18.552  1.00  0.00     0.273 C 
BRANCH  10  11
HETATM   11  C7  UNL     1       5.033  -8.715  17.666  1.00  0.00     0.032 C 
BRANCH  11  12
HETATM   12  C8  UNL     1       5.249  -8.452  16.222  1.00  0.00     0.028 C 
BRANCH  12  13
HETATM   13  C9  UNL     1       4.129  -9.088  15.379  1.00  0.00     0.164 C 
BRANCH  13  14
HETATM   14  O1  UNL     1       3.083  -9.492  16.203  1.00  0.00    -0.401 OA
ATOM     15  H1  UNL     1       3.368 -10.202  16.765  1.00  0.00     0.209 HD
ENDBRANCH  13  14
ENDBRANCH  12  13
ENDBRANCH  11  12
ENDBRANCH  10  11
ENDBRANCH   7  10
BRANCH   9  16
HETATM   16  O2  UNL     1       3.790 -12.538  19.848  1.00  0.00    -0.361 OA
ATOM     17  H2  UNL     1       3.832 -12.499  18.900  1.00  0.00     0.212 HD
ENDBRANCH   9  16
BRANCH   9  18
HETATM   18  C12 UNL     1       4.103 -10.941  21.525  1.00  0.00     0.235 C 
BRANCH  18  19
HETATM   19  O3  UNL     1       3.240  -9.947  21.068  1.00  0.00    -0.396 OA
ATOM     20  H3  UNL     1       2.400 -10.041  21.499  1.00  0.00     0.209 HD
ENDBRANCH  18  19
ENDBRANCH   9  18
TORSDOF 8
ENDMDL
