MODEL 1
REMARK VINA RESULT: -6.334568237      0.000      0.000
REMARK  6 active torsions:
REMARK  status: ('A' for Active; 'I' for Inactive)
REMARK    1  A    between atoms: C2_2  and  N1_3 
REMARK    2  A    between atoms: N1_3  and  C3_4 
REMARK    3  A    between atoms: C3_4  and  C4_5 
REMARK    4  A    between atoms: C4_5  and  O1_6 
REMARK    5  A    between atoms: O1_6  and  N2_7 
REMARK    6  A    between atoms: C10_15  and  O3_16 
ROOT
HETATM    1  N1  UNL     1       5.322  -9.517  13.721  1.00  0.00    -0.063 N 
HETATM    2  C8  UNL     1       6.144  -9.387  12.556  1.00  0.00     0.240 C 
HETATM    3  C9  UNL     1       5.244  -8.953  11.411  1.00  0.00     0.061 C 
HETATM    4  C10 UNL     1       3.918  -9.576  11.803  1.00  0.00     0.145 C 
HETATM    5  C11 UNL     1       3.931  -9.380  13.292  1.00  0.00     0.269 C 
ENDROOT
BRANCH   1   6
HETATM    6  C2  UNL     1       5.584 -10.802  14.317  1.00  0.00     0.233 C 
HETATM    7  C1  UNL     1       6.555 -11.645  13.539  1.00  0.00     0.035 C 
ENDBRANCH   1   6
BRANCH   1   8
HETATM    8  C3  UNL     1       5.524  -8.504  14.717  1.00  0.00     0.266 C 
BRANCH   8   9
HETATM    9  C4  UNL     1       4.747  -8.698  15.983  1.00  0.00     0.248 C 
BRANCH   9  10
HETATM   10  O1  UNL     1       5.597  -8.268  17.015  1.00  0.00    -0.130 OA
BRANCH  10  11
HETATM   11  N2  UNL     1       5.378  -8.869  18.177  1.00  0.00     0.253 N 
HETATM   12  O2  UNL     1       5.047  -7.919  19.090  1.00  0.00    -0.016 OA
HETATM   13  C5  UNL     1       6.500  -9.587  18.718  1.00  0.00     0.381 C 
HETATM   14  C6  UNL     1       5.879 -10.164  19.985  1.00  0.00     0.060 C 
HETATM   15  C7  UNL     1       4.423 -10.296  19.550  1.00  0.00     0.157 C 
HETATM   16  N3  UNL     1       4.390  -9.843  18.160  1.00  0.00     0.045 NA
ENDBRANCH  10  11
ENDBRANCH   9  10
ENDBRANCH   8   9
ENDBRANCH   1   8
BRANCH   4  17
HETATM   17  O3  UNL     1       2.833  -8.860  11.296  1.00  0.00    -0.394 OA
ATOM     18  H3  UNL     1       2.087  -9.421  11.117  1.00  0.00     0.210 HD
ENDBRANCH   4  17
TORSDOF 6
ENDMDL
MODEL 2
REMARK VINA RESULT: -6.216336839      1.023      1.084
REMARK  6 active torsions:
REMARK  status: ('A' for Active; 'I' for Inactive)
REMARK    1  A    between atoms: C2_2  and  N1_3 
REMARK    2  A    between atoms: N1_3  and  C3_4 
REMARK    3  A    between atoms: C3_4  and  C4_5 
REMARK    4  A    between atoms: C4_5  and  O1_6 
REMARK    5  A    between atoms: O1_6  and  N2_7 
REMARK    6  A    between atoms: C10_15  and  O3_16 
ROOT
HETATM    1  N1  UNL     1       4.980  -9.676  13.461  1.00  0.00    -0.063 N 
HETATM    2  C8  UNL     1       6.140  -9.165  12.795  1.00  0.00     0.240 C 
HETATM    3  C9  UNL     1       5.715  -8.748  11.397  1.00  0.00     0.061 C 
HETATM    4  C10 UNL     1       4.575  -9.708  11.118  1.00  0.00     0.145 C 
HETATM    5  C11 UNL     1       3.915  -9.778  12.465  1.00  0.00     0.269 C 
ENDROOT
BRANCH   1   6
HETATM    6  C2  UNL     1       5.316 -10.954  14.034  1.00  0.00     0.233 C 
HETATM    7  C1  UNL     1       6.663 -11.471  13.615  1.00  0.00     0.035 C 
ENDBRANCH   1   6
BRANCH   1   8
HETATM    8  C3  UNL     1       4.461  -8.833  14.501  1.00  0.00     0.266 C 
BRANCH   8   9
HETATM    9  C4  UNL     1       5.445  -8.469  15.570  1.00  0.00     0.248 C 
BRANCH   9  10
HETATM   10  O1  UNL     1       4.731  -8.539  16.777  1.00  0.00    -0.130 OA
BRANCH  10  11
HETATM   11  N2  UNL     1       5.479  -8.857  17.826  1.00  0.00     0.253 N 
HETATM   12  O2  UNL     1       6.567  -8.044  17.831  1.00  0.00    -0.016 OA
HETATM   13  C5  UNL     1       5.973 -10.207  17.841  1.00  0.00     0.381 C 
HETATM   14  C6  UNL     1       6.722 -10.216  19.170  1.00  0.00     0.060 C 
HETATM   15  C7  UNL     1       5.912  -9.189  19.955  1.00  0.00     0.157 C 
HETATM   16  N3  UNL     1       4.841  -8.767  19.054  1.00  0.00     0.045 NA
ENDBRANCH  10  11
ENDBRANCH   9  10
ENDBRANCH   8   9
ENDBRANCH   1   8
BRANCH   4  17
HETATM   17  O3  UNL     1       3.646  -9.174  10.224  1.00  0.00    -0.394 OA
ATOM     18  H3  UNL     1       2.952  -9.790  10.020  1.00  0.00     0.210 HD
ENDBRANCH   4  17
TORSDOF 6
ENDMDL
MODEL 3
REMARK VINA RESULT: -6.168878515      1.825      2.538
REMARK  6 active torsions:
REMARK  status: ('A' for Active; 'I' for Inactive)
REMARK    1  A    between atoms: C2_2  and  N1_3 
REMARK    2  A    between atoms: N1_3  and  C3_4 
REMARK    3  A    between atoms: C3_4  and  C4_5 
REMARK    4  A    between atoms: C4_5  and  O1_6 
REMARK    5  A    between atoms: O1_6  and  N2_7 
REMARK    6  A    between atoms: C10_15  and  O3_16 
ROOT
HETATM    1  N1  UNL     1       4.512  -9.822  13.343  1.00  0.00    -0.063 N 
HETATM    2  C8  UNL     1       4.948 -11.166  13.119  1.00  0.00     0.240 C 
HETATM    3  C9  UNL     1       6.465 -11.173  13.203  1.00  0.00     0.061 C 
HETATM    4  C10 UNL     1       6.809  -9.772  12.732  1.00  0.00     0.145 C 
HETATM    5  C11 UNL     1       5.702  -8.973  13.356  1.00  0.00     0.269 C 
ENDROOT
BRANCH   1   6
HETATM    6  C2  UNL     1       3.598  -9.462  12.288  1.00  0.00     0.233 C 
HETATM    7  C1  UNL     1       4.162  -9.651  10.908  1.00  0.00     0.035 C 
ENDBRANCH   1   6
BRANCH   1   8
HETATM    8  C3  UNL     1       3.861  -9.600  14.603  1.00  0.00     0.266 C 
BRANCH   8   9
HETATM    9  C4  UNL     1       4.743  -9.050  15.681  1.00  0.00     0.248 C 
BRANCH   9  10
HETATM   10  O1  UNL     1       3.981  -9.112  16.859  1.00  0.00    -0.130 OA
BRANCH  10  11
HETATM   11  N2  UNL     1       4.645  -9.587  17.905  1.00  0.00     0.253 N 
HETATM   12  O2  UNL     1       3.748 -10.146  18.757  1.00  0.00    -0.016 OA
HETATM   13  C5  UNL     1       5.379  -8.609  18.661  1.00  0.00     0.381 C 
HETATM   14  C6  UNL     1       6.028  -9.500  19.714  1.00  0.00     0.060 C 
HETATM   15  C7  UNL     1       6.152 -10.808  18.939  1.00  0.00     0.157 C 
HETATM   16  N3  UNL     1       5.627 -10.520  17.605  1.00  0.00     0.045 NA
ENDBRANCH  10  11
ENDBRANCH   9  10
ENDBRANCH   8   9
ENDBRANCH   1   8
BRANCH   4  17
HETATM   17  O3  UNL     1       8.012  -9.318  13.274  1.00  0.00    -0.394 OA
ATOM     18  H3  UNL     1       7.903  -8.993  14.160  1.00  0.00     0.210 HD
ENDBRANCH   4  17
TORSDOF 6
ENDMDL
MODEL 4
REMARK VINA RESULT: -6.166935119      1.723      2.473
REMARK  6 active torsions:
REMARK  status: ('A' for Active; 'I' for Inactive)
REMARK    1  A    between atoms: C2_2  and  N1_3 
REMARK    2  A    between atoms: N1_3  and  C3_4 
REMARK    3  A    between atoms: C3_4  and  C4_5 
REMARK    4  A    between atoms: C4_5  and  O1_6 
REMARK    5  A    between atoms: O1_6  and  N2_7 
REMARK    6  A    between atoms: C10_15  and  O3_16 
ROOT
HETATM    1  N1  UNL     1       4.552  -9.791  13.382  1.00  0.00    -0.063 N 
HETATM    2  C8  UNL     1       4.974 -11.139  13.147  1.00  0.00     0.240 C 
HETATM    3  C9  UNL     1       6.492 -11.158  13.208  1.00  0.00     0.061 C 
HETATM    4  C10 UNL     1       6.841  -9.759  12.737  1.00  0.00     0.145 C 
HETATM    5  C11 UNL     1       5.750  -8.953  13.381  1.00  0.00     0.269 C 
ENDROOT
BRANCH   1   6
HETATM    6  C2  UNL     1       3.626  -9.420  12.343  1.00  0.00     0.233 C 
HETATM    7  C1  UNL     1       4.106  -9.750  10.958  1.00  0.00     0.035 C 
ENDBRANCH   1   6
BRANCH   1   8
HETATM    8  C3  UNL     1       3.923  -9.569  14.654  1.00  0.00     0.266 C 
BRANCH   8   9
HETATM    9  C4  UNL     1       4.724  -8.754  15.622  1.00  0.00     0.248 C 
BRANCH   9  10
HETATM   10  O1  UNL     1       4.217  -9.073  16.892  1.00  0.00    -0.130 OA
BRANCH  10  11
HETATM   11  N2  UNL     1       5.144  -9.149  17.837  1.00  0.00     0.253 N 
HETATM   12  O2  UNL     1       6.057  -8.168  17.614  1.00  0.00    -0.016 OA
HETATM   13  C5  UNL     1       5.873 -10.388  17.884  1.00  0.00     0.381 C 
HETATM   14  C6  UNL     1       6.782 -10.133  19.081  1.00  0.00     0.060 C 
HETATM   15  C7  UNL     1       5.913  -9.181  19.896  1.00  0.00     0.157 C 
HETATM   16  N3  UNL     1       4.671  -9.040  19.137  1.00  0.00     0.045 NA
ENDBRANCH  10  11
ENDBRANCH   9  10
ENDBRANCH   8   9
ENDBRANCH   1   8
BRANCH   4  17
HETATM   17  O3  UNL     1       8.055  -9.316  13.263  1.00  0.00    -0.394 OA
ATOM     18  H3  UNL     1       8.178  -8.382  13.140  1.00  0.00     0.210 HD
ENDBRANCH   4  17
TORSDOF 6
ENDMDL
MODEL 5
REMARK VINA RESULT: -6.147480105      2.457      3.836
REMARK  6 active torsions:
REMARK  status: ('A' for Active; 'I' for Inactive)
REMARK    1  A    between atoms: C2_2  and  N1_3 
REMARK    2  A    between atoms: N1_3  and  C3_4 
REMARK    3  A    between atoms: C3_4  and  C4_5 
REMARK    4  A    between atoms: C4_5  and  O1_6 
REMARK    5  A    between atoms: O1_6  and  N2_7 
REMARK    6  A    between atoms: C10_15  and  O3_16 
ROOT
HETATM    1  N1  UNL     1       4.276  -9.225  10.543  1.00  0.00    -0.063 N 
HETATM    2  C8  UNL     1       5.677  -9.425  10.759  1.00  0.00     0.240 C 
HETATM    3  C9  UNL     1       6.371  -8.096  10.512  1.00  0.00     0.061 C 
HETATM    4  C10 UNL     1       5.459  -7.455   9.482  1.00  0.00     0.145 C 
HETATM    5  C11 UNL     1       4.109  -7.887   9.978  1.00  0.00     0.269 C 
ENDROOT
BRANCH   1   6
HETATM    6  C2  UNL     1       3.805 -10.255   9.652  1.00  0.00     0.233 C 
HETATM    7  C1  UNL     1       2.861  -9.756   8.594  1.00  0.00     0.035 C 
ENDBRANCH   1   6
BRANCH   1   8
HETATM    8  C3  UNL     1       3.473  -9.248  11.732  1.00  0.00     0.266 C 
BRANCH   8   9
HETATM    9  C4  UNL     1       4.011 -10.099  12.841  1.00  0.00     0.248 C 
BRANCH   9  10
HETATM   10  O1  UNL     1       3.199  -9.823  13.953  1.00  0.00    -0.130 OA
BRANCH  10  11
HETATM   11  N2  UNL     1       3.833  -9.205  14.942  1.00  0.00     0.253 N 
HETATM   12  O2  UNL     1       3.700  -7.866  14.756  1.00  0.00    -0.016 OA
HETATM   13  C5  UNL     1       5.242  -9.472  15.028  1.00  0.00     0.381 C 
HETATM   14  C6  UNL     1       5.606  -8.658  16.265  1.00  0.00     0.060 C 
HETATM   15  C7  UNL     1       4.290  -8.712  17.035  1.00  0.00     0.157 C 
HETATM   16  N3  UNL     1       3.395  -9.531  16.217  1.00  0.00     0.045 NA
ENDBRANCH  10  11
ENDBRANCH   9  10
ENDBRANCH   8   9
ENDBRANCH   1   8
BRANCH   4  17
HETATM   17  O3  UNL     1       5.501  -6.062   9.541  1.00  0.00    -0.394 OA
ATOM     18  H3  UNL     1       5.535  -5.743  10.435  1.00  0.00     0.210 HD
ENDBRANCH   4  17
TORSDOF 6
ENDMDL
