MODEL 1
REMARK VINA RESULT: -5.788259279      0.000      0.000
REMARK  6 active torsions:
REMARK  status: ('A' for Active; 'I' for Inactive)
REMARK    1  A    between atoms: N1_1  and  C1_5 
REMARK    2  A    between atoms: C1_5  and  C2_6 
REMARK    3  A    between atoms: C2_6  and  C3_7 
REMARK    4  A    between atoms: C3_7  and  N2_8 
REMARK    5  A    between atoms: N2_8  and  C4_10 
REMARK    6  A    between atoms: C4_10  and  C5_11 
ROOT
HETATM    1  C5  UNL     1       5.390  -9.092  18.218  1.00  0.00     0.042 C 
HETATM    2  C6  UNL     1       4.126  -9.650  18.698  1.00  0.00     0.119 C 
HETATM    3  S1  UNL     1       4.583 -10.537  20.199  1.00  0.00     0.020 S 
HETATM    4  O1  UNL     1       3.647 -10.119  21.494  1.00  0.00    -0.258 OA
HETATM    5  C7  UNL     1       6.251  -9.855  20.318  1.00  0.00     0.087 C 
HETATM    6  C8  UNL     1       7.137 -10.750  21.119  1.00  0.00     0.045 C 
HETATM    7  C9  UNL     1       7.187 -12.119  20.518  1.00  0.00     0.233 C 
HETATM    8  N3  UNL     1       7.508 -12.023  19.129  1.00  0.00    -0.075 N 
ATOM      9  H31 UNL     1       7.627 -12.953  18.726  1.00  0.00     0.277 HD
ATOM     10  H32 UNL     1       8.452 -11.657  19.004  1.00  0.00     0.277 HD
HETATM   11  C10 UNL     1       6.556 -11.249  18.349  1.00  0.00     0.238 C 
HETATM   12  C11 UNL     1       6.557  -9.850  18.838  1.00  0.00     0.037 C 
ENDROOT
BRANCH   1  13
HETATM   13  C4  UNL     1       5.575  -9.034  16.746  1.00  0.00     0.066 C 
BRANCH  13  14
HETATM   14  N2  UNL     1       4.700  -9.503  15.830  1.00  0.00    -0.382 N 
ATOM     15  H2  UNL     1       3.760  -9.565  16.221  1.00  0.00     0.164 HD
BRANCH  14  16
HETATM   16  C3  UNL     1       4.716  -9.915  14.533  1.00  0.00     0.061 C 
BRANCH  16  17
HETATM   17  C2  UNL     1       5.607 -10.999  14.029  1.00  0.00     0.072 C 
BRANCH  17  18
HETATM   18  C1  UNL     1       6.358 -10.502  12.768  1.00  0.00     0.234 C 
BRANCH  18  19
HETATM   19  N1  UNL     1       7.266  -9.465  13.179  1.00  0.00    -0.079 N 
ATOM     20  H13 UNL     1       7.453  -9.476  14.182  1.00  0.00     0.274 HD
ATOM     21  H12 UNL     1       8.222  -9.627  12.862  1.00  0.00     0.274 HD
ATOM     22  H11 UNL     1       6.887  -8.575  12.856  1.00  0.00     0.274 HD
ENDBRANCH  18  19
ENDBRANCH  17  18
ENDBRANCH  16  17
ENDBRANCH  14  16
ENDBRANCH  13  14
ENDBRANCH   1  13
TORSDOF 6
ENDMDL
MODEL 2
REMARK VINA RESULT: -5.709640138      1.548      2.040
REMARK  6 active torsions:
REMARK  status: ('A' for Active; 'I' for Inactive)
REMARK    1  A    between atoms: N1_1  and  C1_5 
REMARK    2  A    between atoms: C1_5  and  C2_6 
REMARK    3  A    between atoms: C2_6  and  C3_7 
REMARK    4  A    between atoms: C3_7  and  N2_8 
REMARK    5  A    between atoms: N2_8  and  C4_10 
REMARK    6  A    between atoms: C4_10  and  C5_11 
ROOT
HETATM    1  C5  UNL     1       5.723  -9.781  19.962  1.00  0.00     0.042 C 
HETATM    2  C6  UNL     1       4.509 -10.597  19.946  1.00  0.00     0.119 C 
HETATM    3  S1  UNL     1       5.037 -12.176  20.639  1.00  0.00     0.020 S 
HETATM    4  O1  UNL     1       4.066 -12.682  21.876  1.00  0.00    -0.258 OA
HETATM    5  C7  UNL     1       6.642 -11.593  21.230  1.00  0.00     0.087 C 
HETATM    6  C8  UNL     1       7.598 -12.728  21.381  1.00  0.00     0.045 C 
HETATM    7  C9  UNL     1       7.765 -13.455  20.084  1.00  0.00     0.233 C 
HETATM    8  N3  UNL     1       8.079 -12.524  19.047  1.00  0.00    -0.075 N 
ATOM      9  H31 UNL     1       8.277 -13.015  18.175  1.00  0.00     0.277 HD
ATOM     10  H32 UNL     1       8.989 -12.095  19.216  1.00  0.00     0.277 HD
HETATM   11  C10 UNL     1       7.067 -11.502  18.837  1.00  0.00     0.238 C 
HETATM   12  C11 UNL     1       6.949 -10.680  20.066  1.00  0.00     0.037 C 
ENDROOT
BRANCH   1  13
HETATM   13  C4  UNL     1       5.906  -8.839  18.829  1.00  0.00     0.066 C 
BRANCH  13  14
HETATM   14  N2  UNL     1       5.089  -8.738  17.758  1.00  0.00    -0.382 N 
ATOM     15  H2  UNL     1       4.119  -8.620  18.049  1.00  0.00     0.164 HD
BRANCH  14  16
HETATM   16  C3  UNL     1       5.193  -8.748  16.401  1.00  0.00     0.061 C 
BRANCH  16  17
HETATM   17  C2  UNL     1       4.034  -8.981  15.492  1.00  0.00     0.072 C 
BRANCH  17  18
HETATM   18  C1  UNL     1       4.473  -9.899  14.325  1.00  0.00     0.234 C 
BRANCH  18  19
HETATM   19  N1  UNL     1       5.525 -10.753  14.810  1.00  0.00    -0.079 N 
ATOM     20  H13 UNL     1       5.573 -10.783  15.829  1.00  0.00     0.274 HD
ATOM     21  H12 UNL     1       5.336 -11.743  14.655  1.00  0.00     0.274 HD
ATOM     22  H11 UNL     1       6.398 -10.444  14.382  1.00  0.00     0.274 HD
ENDBRANCH  18  19
ENDBRANCH  17  18
ENDBRANCH  16  17
ENDBRANCH  14  16
ENDBRANCH  13  14
ENDBRANCH   1  13
TORSDOF 6
ENDMDL
MODEL 3
REMARK VINA RESULT: -5.332724780      1.958      3.016
REMARK  6 active torsions:
REMARK  status: ('A' for Active; 'I' for Inactive)
REMARK    1  A    between atoms: N1_1  and  C1_5 
REMARK    2  A    between atoms: C1_5  and  C2_6 
REMARK    3  A    between atoms: C2_6  and  C3_7 
REMARK    4  A    between atoms: C3_7  and  N2_8 
REMARK    5  A    between atoms: N2_8  and  C4_10 
REMARK    6  A    between atoms: C4_10  and  C5_11 
ROOT
HETATM    1  C5  UNL     1       6.290 -10.522  20.534  1.00  0.00     0.042 C 
HETATM    2  C6  UNL     1       4.863 -10.240  20.694  1.00  0.00     0.119 C 
HETATM    3  S1  UNL     1       4.292 -11.516  21.832  1.00  0.00     0.020 S 
HETATM    4  O1  UNL     1       3.456 -10.895  23.114  1.00  0.00    -0.258 OA
HETATM    5  C7  UNL     1       5.936 -12.092  22.307  1.00  0.00     0.087 C 
HETATM    6  C8  UNL     1       5.883 -13.492  22.821  1.00  0.00     0.045 C 
HETATM    7  C9  UNL     1       5.297 -14.409  21.794  1.00  0.00     0.233 C 
HETATM    8  N3  UNL     1       5.981 -14.239  20.551  1.00  0.00    -0.075 N 
ATOM      9  H31 UNL     1       5.648 -14.917  19.865  1.00  0.00     0.277 HD
ATOM     10  H32 UNL     1       6.953 -14.538  20.633  1.00  0.00     0.277 HD
HETATM   11  C10 UNL     1       5.908 -12.891  20.010  1.00  0.00     0.238 C 
HETATM   12  C11 UNL     1       6.581 -11.959  20.947  1.00  0.00     0.037 C 
ENDROOT
BRANCH   1  13
HETATM   13  C4  UNL     1       6.869 -10.276  19.190  1.00  0.00     0.066 C 
BRANCH  13  14
HETATM   14  N2  UNL     1       6.853  -9.094  18.536  1.00  0.00    -0.382 N 
ATOM     15  H2  UNL     1       7.651  -8.518  18.803  1.00  0.00     0.164 HD
BRANCH  14  16
HETATM   16  C3  UNL     1       6.074  -8.453  17.623  1.00  0.00     0.061 C 
BRANCH  16  17
HETATM   17  C2  UNL     1       4.777  -8.997  17.126  1.00  0.00     0.072 C 
BRANCH  17  18
HETATM   18  C1  UNL     1       4.880  -9.260  15.604  1.00  0.00     0.234 C 
BRANCH  18  19
HETATM   19  N1  UNL     1       5.558 -10.516  15.420  1.00  0.00    -0.079 N 
ATOM     20  H13 UNL     1       5.691 -10.754  14.437  1.00  0.00     0.274 HD
ATOM     21  H12 UNL     1       6.543 -10.476  15.683  1.00  0.00     0.274 HD
ATOM     22  H11 UNL     1       5.039 -11.227  15.934  1.00  0.00     0.274 HD
ENDBRANCH  18  19
ENDBRANCH  17  18
ENDBRANCH  16  17
ENDBRANCH  14  16
ENDBRANCH  13  14
ENDBRANCH   1  13
TORSDOF 6
ENDMDL
MODEL 4
REMARK VINA RESULT: -5.328901244      4.034      7.325
REMARK  6 active torsions:
REMARK  status: ('A' for Active; 'I' for Inactive)
REMARK    1  A    between atoms: N1_1  and  C1_5 
REMARK    2  A    between atoms: C1_5  and  C2_6 
REMARK    3  A    between atoms: C2_6  and  C3_7 
REMARK    4  A    between atoms: C3_7  and  N2_8 
REMARK    5  A    between atoms: N2_8  and  C4_10 
REMARK    6  A    between atoms: C4_10  and  C5_11 
ROOT
HETATM    1  C5  UNL     1       4.874 -10.743  13.013  1.00  0.00     0.042 C 
HETATM    2  C6  UNL     1       3.665  -9.959  13.266  1.00  0.00     0.119 C 
HETATM    3  S1  UNL     1       3.513  -8.911  11.808  1.00  0.00     0.020 S 
HETATM    4  O1  UNL     1       2.014  -8.995  11.119  1.00  0.00    -0.258 OA
HETATM    5  C7  UNL     1       4.761  -9.772  10.827  1.00  0.00     0.087 C 
HETATM    6  C8  UNL     1       5.311  -8.882   9.763  1.00  0.00     0.045 C 
HETATM    7  C9  UNL     1       5.898  -7.643  10.362  1.00  0.00     0.233 C 
HETATM    8  N3  UNL     1       6.815  -7.998  11.399  1.00  0.00    -0.075 N 
ATOM      9  H31 UNL     1       7.285  -7.167  11.759  1.00  0.00     0.277 HD
ATOM     10  H32 UNL     1       7.617  -8.496  11.011  1.00  0.00     0.277 HD
HETATM   11  C10 UNL     1       6.222  -8.758  12.486  1.00  0.00     0.238 C 
HETATM   12  C11 UNL     1       5.726 -10.051  11.956  1.00  0.00     0.037 C 
ENDROOT
BRANCH   1  13
HETATM   13  C4  UNL     1       5.722 -11.056  14.191  1.00  0.00     0.066 C 
BRANCH  13  14
HETATM   14  N2  UNL     1       5.496 -10.629  15.452  1.00  0.00    -0.382 N 
ATOM     15  H2  UNL     1       5.142 -11.387  16.036  1.00  0.00     0.164 HD
BRANCH  14  16
HETATM   16  C3  UNL     1       5.607  -9.475  16.165  1.00  0.00     0.061 C 
BRANCH  16  17
HETATM   17  C2  UNL     1       4.633  -9.066  17.218  1.00  0.00     0.072 C 
BRANCH  17  18
HETATM   18  C1  UNL     1       5.395  -8.770  18.534  1.00  0.00     0.234 C 
BRANCH  18  19
HETATM   19  N1  UNL     1       6.789  -8.625  18.211  1.00  0.00    -0.079 N 
ATOM     20  H13 UNL     1       7.396  -8.707  19.027  1.00  0.00     0.274 HD
ATOM     21  H12 UNL     1       7.160  -9.419  17.688  1.00  0.00     0.274 HD
ATOM     22  H11 UNL     1       6.904  -7.738  17.720  1.00  0.00     0.274 HD
ENDBRANCH  18  19
ENDBRANCH  17  18
ENDBRANCH  16  17
ENDBRANCH  14  16
ENDBRANCH  13  14
ENDBRANCH   1  13
TORSDOF 6
ENDMDL
MODEL 5
REMARK VINA RESULT: -5.231173733      2.468      3.194
REMARK  6 active torsions:
REMARK  status: ('A' for Active; 'I' for Inactive)
REMARK    1  A    between atoms: N1_1  and  C1_5 
REMARK    2  A    between atoms: C1_5  and  C2_6 
REMARK    3  A    between atoms: C2_6  and  C3_7 
REMARK    4  A    between atoms: C3_7  and  N2_8 
REMARK    5  A    between atoms: N2_8  and  C4_10 
REMARK    6  A    between atoms: C4_10  and  C5_11 
ROOT
HETATM    1  C5  UNL     1       6.750 -10.564  19.306  1.00  0.00     0.042 C 
HETATM    2  C6  UNL     1       7.282 -10.732  20.658  1.00  0.00     0.119 C 
HETATM    3  S1  UNL     1       6.777 -12.400  21.120  1.00  0.00     0.020 S 
HETATM    4  O1  UNL     1       8.038 -13.314  21.674  1.00  0.00    -0.258 OA
HETATM    5  C7  UNL     1       6.250 -12.901  19.467  1.00  0.00     0.087 C 
HETATM    6  C8  UNL     1       5.271 -14.025  19.537  1.00  0.00     0.045 C 
HETATM    7  C9  UNL     1       4.082 -13.639  20.358  1.00  0.00     0.233 C 
HETATM    8  N3  UNL     1       3.554 -12.397  19.888  1.00  0.00    -0.075 N 
ATOM      9  H31 UNL     1       2.694 -12.164  20.385  1.00  0.00     0.277 HD
ATOM     10  H32 UNL     1       3.187 -12.500  18.942  1.00  0.00     0.277 HD
HETATM   11  C10 UNL     1       4.493 -11.289  19.950  1.00  0.00     0.238 C 
HETATM   12  C11 UNL     1       5.642 -11.580  19.058  1.00  0.00     0.037 C 
ENDROOT
BRANCH   1  13
HETATM   13  C4  UNL     1       6.258  -9.210  18.949  1.00  0.00     0.066 C 
BRANCH  13  14
HETATM   14  N2  UNL     1       6.049  -8.760  17.692  1.00  0.00    -0.382 N 
ATOM     15  H2  UNL     1       6.864  -8.254  17.346  1.00  0.00     0.164 HD
BRANCH  14  16
HETATM   16  C3  UNL     1       5.061  -8.791  16.757  1.00  0.00     0.061 C 
BRANCH  16  17
HETATM   17  C2  UNL     1       5.289  -8.488  15.315  1.00  0.00     0.072 C 
BRANCH  17  18
HETATM   18  C1  UNL     1       4.890  -9.718  14.462  1.00  0.00     0.234 C 
BRANCH  18  19
HETATM   19  N1  UNL     1       5.675 -10.837  14.912  1.00  0.00    -0.079 N 
ATOM     20  H13 UNL     1       5.268 -11.305  15.722  1.00  0.00     0.274 HD
ATOM     21  H12 UNL     1       5.642 -11.628  14.269  1.00  0.00     0.274 HD
ATOM     22  H11 UNL     1       6.623 -10.503  15.083  1.00  0.00     0.274 HD
ENDBRANCH  18  19
ENDBRANCH  17  18
ENDBRANCH  16  17
ENDBRANCH  14  16
ENDBRANCH  13  14
ENDBRANCH   1  13
TORSDOF 6
ENDMDL
