MODEL 1
REMARK VINA RESULT: -7.142771315      0.000      0.000
REMARK  7 active torsions:
REMARK  status: ('A' for Active; 'I' for Inactive)
REMARK    1  A    between atoms: C2_2  and  N1_3 
REMARK    2  A    between atoms: N1_3  and  C3_5 
REMARK    3  A    between atoms: C4_10  and  N4_11 
REMARK    4  A    between atoms: N4_11  and  C5_13 
REMARK    5  A    between atoms: C5_13  and  C6_14 
REMARK    6  A    between atoms: C6_14  and  C7_15 
REMARK    7  A    between atoms: C7_15  and  N5_16 
ROOT
HETATM    1  C3  UNL     1       6.728  -9.862  18.796  1.00  0.00     0.707 A 
HETATM    2  N2  UNL     1       6.893  -8.632  18.283  1.00  0.00    -0.117 N 
ATOM      3  H2  UNL     1       7.661  -8.000  18.512  1.00  0.00     0.206 HD
HETATM    4  N3  UNL     1       5.897  -8.356  17.423  1.00  0.00    -0.117 N 
ATOM      5  H3  UNL     1       5.785  -7.490  16.896  1.00  0.00     0.206 HD
HETATM    6  C4  UNL     1       5.080  -9.415  17.379  1.00  0.00     0.707 A 
HETATM    7  N6  UNL     1       5.583 -10.333  18.214  1.00  0.00    -0.020 N 
ATOM      8  H6  UNL     1       5.173 -11.250  18.390  1.00  0.00     0.203 HD
ENDROOT
BRANCH   6   9
HETATM    9  N4  UNL     1       4.016  -9.500  16.658  1.00  0.00    -0.224 N 
ATOM     10  H4  UNL     1       3.162  -9.885  17.062  1.00  0.00     0.177 HD
BRANCH   9  11
HETATM   11  C5  UNL     1       4.021  -9.047  15.257  1.00  0.00     0.140 C 
BRANCH  11  12
HETATM   12  C6  UNL     1       4.670 -10.050  14.377  1.00  0.00     0.050 C 
BRANCH  12  13
HETATM   13  C7  UNL     1       4.097 -10.133  13.017  1.00  0.00     0.274 C 
BRANCH  13  14
HETATM   14  N5  UNL     1       4.982 -10.149  11.888  1.00  0.00     0.088 N 
HETATM   15  C8  UNL     1       6.333  -9.911  12.463  1.00  0.00     0.272 C 
HETATM   16  C9  UNL     1       7.112  -9.464  11.252  1.00  0.00     0.032 C 
HETATM   17  C10 UNL     1       6.149  -8.513  10.565  1.00  0.00     0.032 C 
HETATM   18  C11 UNL     1       4.798  -9.098  10.935  1.00  0.00     0.272 C 
ENDBRANCH  13  14
ENDBRANCH  12  13
ENDBRANCH  11  12
ENDBRANCH   9  11
ENDBRANCH   6   9
BRANCH   1  19
HETATM   19  N1  UNL     1       7.405 -10.532  19.638  1.00  0.00    -0.225 N 
ATOM     20  H1  UNL     1       8.341 -10.790  19.327  1.00  0.00     0.177 HD
BRANCH  19  21
HETATM   21  C2  UNL     1       7.068 -10.975  20.936  1.00  0.00     0.134 C 
HETATM   22  C1  UNL     1       7.477 -12.365  21.306  1.00  0.00     0.027 C 
ENDBRANCH  19  21
ENDBRANCH   1  19
TORSDOF 7
ENDMDL
MODEL 2
REMARK VINA RESULT: -6.925252319      0.968      1.199
REMARK  7 active torsions:
REMARK  status: ('A' for Active; 'I' for Inactive)
REMARK    1  A    between atoms: C2_2  and  N1_3 
REMARK    2  A    between atoms: N1_3  and  C3_5 
REMARK    3  A    between atoms: C4_10  and  N4_11 
REMARK    4  A    between atoms: N4_11  and  C5_13 
REMARK    5  A    between atoms: C5_13  and  C6_14 
REMARK    6  A    between atoms: C6_14  and  C7_15 
REMARK    7  A    between atoms: C7_15  and  N5_16 
ROOT
HETATM    1  C3  UNL     1       7.004 -11.115  19.128  1.00  0.00     0.707 A 
HETATM    2  N2  UNL     1       7.430  -9.842  19.145  1.00  0.00    -0.117 N 
ATOM      3  H2  UNL     1       8.241  -9.503  19.662  1.00  0.00     0.206 HD
HETATM    4  N3  UNL     1       6.629  -9.080  18.380  1.00  0.00    -0.117 N 
ATOM      5  H3  UNL     1       6.731  -8.077  18.220  1.00  0.00     0.206 HD
HETATM    6  C4  UNL     1       5.676  -9.866  17.864  1.00  0.00     0.707 A 
HETATM    7  N6  UNL     1       5.901 -11.105  18.318  1.00  0.00    -0.020 N 
ATOM      8  H6  UNL     1       5.334 -11.922  18.093  1.00  0.00     0.203 HD
ENDROOT
BRANCH   6   9
HETATM    9  N4  UNL     1       4.733  -9.470  17.082  1.00  0.00    -0.224 N 
ATOM     10  H4  UNL     1       3.760  -9.655  17.329  1.00  0.00     0.177 HD
BRANCH   9  11
HETATM   11  C5  UNL     1       5.045  -8.751  15.834  1.00  0.00     0.140 C 
BRANCH  11  12
HETATM   12  C6  UNL     1       4.457  -9.444  14.662  1.00  0.00     0.050 C 
BRANCH  12  13
HETATM   13  C7  UNL     1       5.274 -10.560  14.139  1.00  0.00     0.274 C 
BRANCH  13  14
HETATM   14  N5  UNL     1       5.658 -10.554  12.757  1.00  0.00     0.088 N 
HETATM   15  C8  UNL     1       6.852  -9.669  12.700  1.00  0.00     0.272 C 
HETATM   16  C9  UNL     1       6.909  -9.318  11.235  1.00  0.00     0.032 C 
HETATM   17  C10 UNL     1       5.456  -9.039  10.899  1.00  0.00     0.032 C 
HETATM   18  C11 UNL     1       4.721  -9.965  11.851  1.00  0.00     0.272 C 
ENDBRANCH  13  14
ENDBRANCH  12  13
ENDBRANCH  11  12
ENDBRANCH   9  11
ENDBRANCH   6   9
BRANCH   1  19
HETATM   19  N1  UNL     1       7.436 -12.166  19.699  1.00  0.00    -0.225 N 
ATOM     20  H1  UNL     1       7.807 -12.875  19.068  1.00  0.00     0.177 HD
BRANCH  19  21
HETATM   21  C2  UNL     1       7.484 -12.508  21.069  1.00  0.00     0.134 C 
HETATM   22  C1  UNL     1       6.398 -11.967  21.942  1.00  0.00     0.027 C 
ENDBRANCH  19  21
ENDBRANCH   1  19
TORSDOF 7
ENDMDL
MODEL 3
REMARK VINA RESULT: -6.847304359      0.910      1.041
REMARK  7 active torsions:
REMARK  status: ('A' for Active; 'I' for Inactive)
REMARK    1  A    between atoms: C2_2  and  N1_3 
REMARK    2  A    between atoms: N1_3  and  C3_5 
REMARK    3  A    between atoms: C4_10  and  N4_11 
REMARK    4  A    between atoms: N4_11  and  C5_13 
REMARK    5  A    between atoms: C5_13  and  C6_14 
REMARK    6  A    between atoms: C6_14  and  C7_15 
REMARK    7  A    between atoms: C7_15  and  N5_16 
ROOT
HETATM    1  C3  UNL     1       6.882 -10.238  19.452  1.00  0.00     0.707 A 
HETATM    2  N2  UNL     1       6.357  -9.128  19.996  1.00  0.00    -0.117 N 
ATOM      3  H2  UNL     1       6.336  -8.919  20.994  1.00  0.00     0.206 HD
HETATM    4  N3  UNL     1       5.864  -8.333  19.031  1.00  0.00    -0.117 N 
ATOM      5  H3  UNL     1       5.411  -7.430  19.173  1.00  0.00     0.206 HD
HETATM    6  C4  UNL     1       6.070  -8.933  17.852  1.00  0.00     0.707 A 
HETATM    7  N6  UNL     1       6.689 -10.093  18.105  1.00  0.00    -0.020 N 
ATOM      8  H6  UNL     1       6.975 -10.769  17.398  1.00  0.00     0.203 HD
ENDROOT
BRANCH   6   9
HETATM    9  N4  UNL     1       5.722  -8.456  16.708  1.00  0.00    -0.224 N 
ATOM     10  H4  UNL     1       6.216  -7.651  16.324  1.00  0.00     0.177 HD
BRANCH   9  11
HETATM   11  C5  UNL     1       4.617  -9.063  15.946  1.00  0.00     0.140 C 
BRANCH  11  12
HETATM   12  C6  UNL     1       5.131 -10.006  14.924  1.00  0.00     0.050 C 
BRANCH  12  13
HETATM   13  C7  UNL     1       4.388  -9.989  13.646  1.00  0.00     0.274 C 
BRANCH  13  14
HETATM   14  N5  UNL     1       5.108 -10.166  12.418  1.00  0.00     0.088 N 
HETATM   15  C8  UNL     1       6.483  -9.680  12.712  1.00  0.00     0.272 C 
HETATM   16  C9  UNL     1       7.028  -9.435  11.329  1.00  0.00     0.032 C 
HETATM   17  C10 UNL     1       5.869  -8.753  10.625  1.00  0.00     0.032 C 
HETATM   18  C11 UNL     1       4.666  -9.371  11.315  1.00  0.00     0.272 C 
ENDBRANCH  13  14
ENDBRANCH  12  13
ENDBRANCH  11  12
ENDBRANCH   9  11
ENDBRANCH   6   9
BRANCH   1  19
HETATM   19  N1  UNL     1       7.444 -11.256  19.967  1.00  0.00    -0.225 N 
ATOM     20  H1  UNL     1       8.098 -11.741  19.354  1.00  0.00     0.177 HD
BRANCH  19  21
HETATM   21  C2  UNL     1       7.305 -11.823  21.254  1.00  0.00     0.134 C 
HETATM   22  C1  UNL     1       7.725 -13.248  21.416  1.00  0.00     0.027 C 
ENDBRANCH  19  21
ENDBRANCH   1  19
TORSDOF 7
ENDMDL
MODEL 4
REMARK VINA RESULT: -6.787600179      1.112      1.250
REMARK  7 active torsions:
REMARK  status: ('A' for Active; 'I' for Inactive)
REMARK    1  A    between atoms: C2_2  and  N1_3 
REMARK    2  A    between atoms: N1_3  and  C3_5 
REMARK    3  A    between atoms: C4_10  and  N4_11 
REMARK    4  A    between atoms: N4_11  and  C5_13 
REMARK    5  A    between atoms: C5_13  and  C6_14 
REMARK    6  A    between atoms: C6_14  and  C7_15 
REMARK    7  A    between atoms: C7_15  and  N5_16 
ROOT
HETATM    1  C3  UNL     1       5.453  -9.601  19.392  1.00  0.00     0.707 A 
HETATM    2  N2  UNL     1       6.503  -8.771  19.280  1.00  0.00    -0.117 N 
ATOM      3  H2  UNL     1       7.096  -8.470  20.053  1.00  0.00     0.206 HD
HETATM    4  N3  UNL     1       6.656  -8.395  17.998  1.00  0.00    -0.117 N 
ATOM      5  H3  UNL     1       7.378  -7.769  17.640  1.00  0.00     0.206 HD
HETATM    6  C4  UNL     1       5.698  -8.986  17.275  1.00  0.00     0.707 A 
HETATM    7  N6  UNL     1       4.964  -9.720  18.120  1.00  0.00    -0.020 N 
ATOM      8  H6  UNL     1       4.158 -10.285  17.855  1.00  0.00     0.203 HD
ENDROOT
BRANCH   6   9
HETATM    9  N4  UNL     1       5.540  -8.850  16.004  1.00  0.00    -0.224 N 
ATOM     10  H4  UNL     1       6.357  -8.789  15.396  1.00  0.00     0.177 HD
BRANCH   9  11
HETATM   11  C5  UNL     1       4.189  -8.782  15.419  1.00  0.00     0.140 C 
BRANCH  11  12
HETATM   12  C6  UNL     1       3.997  -9.844  14.402  1.00  0.00     0.050 C 
BRANCH  12  13
HETATM   13  C7  UNL     1       5.230 -10.571  14.035  1.00  0.00     0.274 C 
BRANCH  13  14
HETATM   14  N5  UNL     1       5.678 -10.540  12.673  1.00  0.00     0.088 N 
HETATM   15  C8  UNL     1       6.905  -9.701  12.695  1.00  0.00     0.272 C 
HETATM   16  C9  UNL     1       7.042  -9.311  11.246  1.00  0.00     0.032 C 
HETATM   17  C10 UNL     1       5.617  -8.967  10.853  1.00  0.00     0.032 C 
HETATM   18  C11 UNL     1       4.806  -9.891  11.743  1.00  0.00     0.272 C 
ENDBRANCH  13  14
ENDBRANCH  12  13
ENDBRANCH  11  12
ENDBRANCH   9  11
ENDBRANCH   6   9
BRANCH   1  19
HETATM   19  N1  UNL     1       4.936 -10.190  20.393  1.00  0.00    -0.225 N 
ATOM     20  H1  UNL     1       4.106  -9.738  20.775  1.00  0.00     0.177 HD
BRANCH  19  21
HETATM   21  C2  UNL     1       5.328 -11.371  21.061  1.00  0.00     0.134 C 
HETATM   22  C1  UNL     1       6.772 -11.498  21.425  1.00  0.00     0.027 C 
ENDBRANCH  19  21
ENDBRANCH   1  19
TORSDOF 7
ENDMDL
MODEL 5
REMARK VINA RESULT: -6.707446117      1.089      1.663
REMARK  7 active torsions:
REMARK  status: ('A' for Active; 'I' for Inactive)
REMARK    1  A    between atoms: C2_2  and  N1_3 
REMARK    2  A    between atoms: N1_3  and  C3_5 
REMARK    3  A    between atoms: C4_10  and  N4_11 
REMARK    4  A    between atoms: N4_11  and  C5_13 
REMARK    5  A    between atoms: C5_13  and  C6_14 
REMARK    6  A    between atoms: C6_14  and  C7_15 
REMARK    7  A    between atoms: C7_15  and  N5_16 
ROOT
HETATM    1  C3  UNL     1       6.698 -10.129  18.895  1.00  0.00     0.707 A 
HETATM    2  N2  UNL     1       6.178 -11.037  18.054  1.00  0.00    -0.117 N 
ATOM      3  H2  UNL     1       6.130 -12.041  18.233  1.00  0.00     0.206 HD
HETATM    4  N3  UNL     1       5.730 -10.430  16.942  1.00  0.00    -0.117 N 
ATOM      5  H3  UNL     1       5.289 -10.889  16.145  1.00  0.00     0.206 HD
HETATM    6  C4  UNL     1       5.962  -9.117  17.063  1.00  0.00     0.707 A 
HETATM    7  N6  UNL     1       6.552  -8.931  18.250  1.00  0.00    -0.020 N 
ATOM      8  H6  UNL     1       6.849  -8.028  18.620  1.00  0.00     0.203 HD
ENDROOT
BRANCH   6   9
HETATM    9  N4  UNL     1       5.663  -8.228  16.181  1.00  0.00    -0.224 N 
ATOM     10  H4  UNL     1       5.759  -7.238  16.408  1.00  0.00     0.177 HD
BRANCH   9  11
HETATM   11  C5  UNL     1       5.184  -8.626  14.846  1.00  0.00     0.140 C 
BRANCH  11  12
HETATM   12  C6  UNL     1       6.280  -8.565  13.848  1.00  0.00     0.050 C 
BRANCH  12  13
HETATM   13  C7  UNL     1       6.404  -9.770  13.001  1.00  0.00     0.274 C 
BRANCH  13  14
HETATM   14  N5  UNL     1       6.081  -9.677  11.606  1.00  0.00     0.088 N 
HETATM   15  C8  UNL     1       6.515  -8.312  11.207  1.00  0.00     0.272 C 
HETATM   16  C9  UNL     1       5.740  -8.100   9.932  1.00  0.00     0.032 C 
HETATM   17  C10 UNL     1       4.364  -8.636  10.281  1.00  0.00     0.032 C 
HETATM   18  C11 UNL     1       4.688  -9.729  11.283  1.00  0.00     0.272 C 
ENDBRANCH  13  14
ENDBRANCH  12  13
ENDBRANCH  11  12
ENDBRANCH   9  11
ENDBRANCH   6   9
BRANCH   1  19
HETATM   19  N1  UNL     1       7.237 -10.239  20.041  1.00  0.00    -0.225 N 
ATOM     20  H1  UNL     1       8.067  -9.663  20.182  1.00  0.00     0.177 HD
BRANCH  19  21
HETATM   21  C2  UNL     1       6.871 -11.032  21.151  1.00  0.00     0.134 C 
HETATM   22  C1  UNL     1       7.492 -12.388  21.252  1.00  0.00     0.027 C 
ENDBRANCH  19  21
ENDBRANCH   1  19
TORSDOF 7
ENDMDL
