MODEL 1
REMARK VINA RESULT: -6.407954627      0.000      0.000
REMARK  5 active torsions:
REMARK  status: ('A' for Active; 'I' for Inactive)
REMARK    1  A    between atoms: C2_2  and  N1_3 
REMARK    2  A    between atoms: N2_6  and  C5_7 
REMARK    3  A    between atoms: C5_7  and  C6_8 
REMARK    4  A    between atoms: C6_8  and  N3_9 
REMARK    5  A    between atoms: N3_9  and  C7_12 
ROOT
HETATM    1  N3  UNL     1       4.423  -9.864  18.108  1.00  0.00    -0.067 N 
ATOM      2  H31 UNL     1       4.570 -10.859  17.942  1.00  0.00     0.277 HD
ATOM      3  H32 UNL     1       3.418  -9.909  18.279  1.00  0.00     0.277 HD
ENDROOT
BRANCH   1   4
HETATM    4  C6  UNL     1       4.778  -9.023  16.951  1.00  0.00     0.263 C 
BRANCH   4   5
HETATM    5  C5  UNL     1       3.707  -9.132  15.903  1.00  0.00     0.300 C 
BRANCH   5   6
HETATM    6  N2  UNL     1       4.222  -8.898  14.603  1.00  0.00     0.093 N 
HETATM    7  C4  UNL     1       5.532  -8.332  14.608  1.00  0.00     0.302 C 
HETATM    8  C3  UNL     1       6.459  -8.679  13.526  1.00  0.00     0.302 C 
HETATM    9  N1  UNL     1       6.423 -10.053  13.093  1.00  0.00     0.091 N 
HETATM   10  C12 UNL     1       5.312 -10.771  13.656  1.00  0.00     0.302 C 
HETATM   11  C11 UNL     1       4.034  -9.969  13.675  1.00  0.00     0.302 C 
BRANCH   9  12
HETATM   12  C2  UNL     1       6.476 -10.155  11.645  1.00  0.00     0.268 C 
HETATM   13  C1  UNL     1       6.625  -8.700  11.167  1.00  0.00     0.037 C 
ENDBRANCH   9  12
ENDBRANCH   5   6
ENDBRANCH   4   5
ENDBRANCH   1   4
BRANCH   1  14
HETATM   14  C7  UNL     1       5.178  -9.354  19.252  1.00  0.00     0.210 C 
HETATM   15  C8  UNL     1       5.049 -10.265  20.412  1.00  0.00     0.154 C 
HETATM   16  N4  UNL     1       6.260 -11.083  20.409  1.00  0.00    -0.378 N 
HETATM   17  C9  UNL     1       7.047 -10.761  19.278  1.00  0.00     0.072 C 
ATOM     18  H4  UNL     1       6.502 -11.780  21.114  1.00  0.00     0.160 HD
HETATM   19  N5  UNL     1       7.959 -11.479  18.743  1.00  0.00    -0.389 N 
HETATM   20  C10 UNL     1       6.633  -9.414  18.781  1.00  0.00     0.110 C 
ATOM     21  H52 UNL     1       8.242 -12.398  19.083  1.00  0.00     0.157 HD
ATOM     22  H51 UNL     1       8.527 -11.246  17.928  1.00  0.00     0.157 HD
ENDBRANCH   1  14
TORSDOF 5
ENDMDL
MODEL 2
REMARK VINA RESULT: -6.325342129      1.095      1.573
REMARK  5 active torsions:
REMARK  status: ('A' for Active; 'I' for Inactive)
REMARK    1  A    between atoms: C2_2  and  N1_3 
REMARK    2  A    between atoms: N2_6  and  C5_7 
REMARK    3  A    between atoms: C5_7  and  C6_8 
REMARK    4  A    between atoms: C6_8  and  N3_9 
REMARK    5  A    between atoms: N3_9  and  C7_12 
ROOT
HETATM    1  N3  UNL     1       5.883 -10.336  17.369  1.00  0.00    -0.067 N 
ATOM      2  H31 UNL     1       6.570 -10.663  16.691  1.00  0.00     0.277 HD
ATOM      3  H32 UNL     1       5.181 -11.058  17.201  1.00  0.00     0.277 HD
ENDROOT
BRANCH   1   4
HETATM    4  C6  UNL     1       5.393  -8.974  17.087  1.00  0.00     0.263 C 
BRANCH   4   5
HETATM    5  C5  UNL     1       4.154  -9.051  16.241  1.00  0.00     0.300 C 
BRANCH   5   6
HETATM    6  N2  UNL     1       4.446  -8.851  14.868  1.00  0.00     0.093 N 
HETATM    7  C4  UNL     1       5.728  -8.266  14.642  1.00  0.00     0.302 C 
HETATM    8  C3  UNL     1       6.473  -8.633  13.434  1.00  0.00     0.302 C 
HETATM    9  N1  UNL     1       6.394 -10.020  13.053  1.00  0.00     0.091 N 
HETATM   10  C12 UNL     1       5.404 -10.737  13.810  1.00  0.00     0.302 C 
HETATM   11  C11 UNL     1       4.131  -9.953  14.014  1.00  0.00     0.302 C 
BRANCH   9  12
HETATM   12  C2  UNL     1       6.213 -10.168  11.619  1.00  0.00     0.268 C 
HETATM   13  C1  UNL     1       6.680  -8.821  11.037  1.00  0.00     0.037 C 
ENDBRANCH   9  12
ENDBRANCH   5   6
ENDBRANCH   4   5
ENDBRANCH   1   4
BRANCH   1  14
HETATM   14  C7  UNL     1       6.385 -10.330  18.743  1.00  0.00     0.210 C 
HETATM   15  C8  UNL     1       5.553  -9.455  19.600  1.00  0.00     0.154 C 
HETATM   16  N4  UNL     1       4.631 -10.348  20.300  1.00  0.00    -0.378 N 
HETATM   17  C9  UNL     1       4.820 -11.675  19.846  1.00  0.00     0.072 C 
ATOM     18  H4  UNL     1       3.955 -10.059  21.007  1.00  0.00     0.160 HD
HETATM   19  N5  UNL     1       3.997 -12.647  19.941  1.00  0.00    -0.389 N 
HETATM   20  C10 UNL     1       6.170 -11.771  19.212  1.00  0.00     0.110 C 
ATOM     21  H52 UNL     1       3.076 -12.581  20.375  1.00  0.00     0.157 HD
ATOM     22  H51 UNL     1       4.133 -13.604  19.614  1.00  0.00     0.157 HD
ENDBRANCH   1  14
TORSDOF 5
ENDMDL
MODEL 3
REMARK VINA RESULT: -6.035555166      1.707      6.831
REMARK  5 active torsions:
REMARK  status: ('A' for Active; 'I' for Inactive)
REMARK    1  A    between atoms: C2_2  and  N1_3 
REMARK    2  A    between atoms: N2_6  and  C5_7 
REMARK    3  A    between atoms: C5_7  and  C6_8 
REMARK    4  A    between atoms: C6_8  and  N3_9 
REMARK    5  A    between atoms: N3_9  and  C7_12 
ROOT
HETATM    1  N3  UNL     1       6.294  -9.199  13.722  1.00  0.00    -0.067 N 
ATOM      2  H31 UNL     1       7.182  -9.311  14.211  1.00  0.00     0.277 HD
ATOM      3  H32 UNL     1       6.426  -8.228  13.437  1.00  0.00     0.277 HD
ENDROOT
BRANCH   1   4
HETATM    4  C6  UNL     1       5.122  -9.392  14.596  1.00  0.00     0.263 C 
BRANCH   4   5
HETATM    5  C5  UNL     1       5.289  -8.579  15.848  1.00  0.00     0.300 C 
BRANCH   5   6
HETATM    6  N2  UNL     1       5.081  -9.362  17.011  1.00  0.00     0.093 N 
HETATM    7  C4  UNL     1       5.857 -10.559  17.032  1.00  0.00     0.302 C 
HETATM    8  C3  UNL     1       6.333 -11.075  18.320  1.00  0.00     0.302 C 
HETATM    9  N1  UNL     1       6.779 -10.079  19.261  1.00  0.00     0.091 N 
HETATM   10  C12 UNL     1       6.452  -8.744  18.836  1.00  0.00     0.302 C 
HETATM   11  C11 UNL     1       5.071  -8.632  18.240  1.00  0.00     0.302 C 
BRANCH   9  12
HETATM   12  C2  UNL     1       6.304 -10.367  20.604  1.00  0.00     0.268 C 
HETATM   13  C1  UNL     1       7.241 -11.479  21.107  1.00  0.00     0.037 C 
ENDBRANCH   9  12
ENDBRANCH   5   6
ENDBRANCH   4   5
ENDBRANCH   1   4
BRANCH   1  14
HETATM   14  C7  UNL     1       6.138 -10.115  12.593  1.00  0.00     0.210 C 
HETATM   15  C8  UNL     1       4.747 -10.087  12.086  1.00  0.00     0.154 C 
HETATM   16  N4  UNL     1       4.767  -9.198  10.925  1.00  0.00    -0.378 N 
HETATM   17  C9  UNL     1       6.061  -8.647  10.773  1.00  0.00     0.072 C 
ATOM     18  H4  UNL     1       3.970  -9.005  10.318  1.00  0.00     0.160 HD
HETATM   19  N5  UNL     1       6.378  -7.590  10.128  1.00  0.00    -0.389 N 
HETATM   20  C10 UNL     1       7.034  -9.510  11.510  1.00  0.00     0.110 C 
ATOM     21  H52 UNL     1       5.714  -7.002   9.624  1.00  0.00     0.157 HD
ATOM     22  H51 UNL     1       7.312  -7.193  10.017  1.00  0.00     0.157 HD
ENDBRANCH   1  14
TORSDOF 5
ENDMDL
MODEL 4
REMARK VINA RESULT: -5.966601732      1.453      6.675
REMARK  5 active torsions:
REMARK  status: ('A' for Active; 'I' for Inactive)
REMARK    1  A    between atoms: C2_2  and  N1_3 
REMARK    2  A    between atoms: N2_6  and  C5_7 
REMARK    3  A    between atoms: C5_7  and  C6_8 
REMARK    4  A    between atoms: C6_8  and  N3_9 
REMARK    5  A    between atoms: N3_9  and  C7_12 
ROOT
HETATM    1  N3  UNL     1       5.540  -9.252  14.938  1.00  0.00    -0.067 N 
ATOM      2  H31 UNL     1       6.521  -9.350  15.197  1.00  0.00     0.277 HD
ATOM      3  H32 UNL     1       5.640  -8.409  14.371  1.00  0.00     0.277 HD
ENDROOT
BRANCH   1   4
HETATM    4  C6  UNL     1       4.648  -9.069  16.098  1.00  0.00     0.263 C 
BRANCH   4   5
HETATM    5  C5  UNL     1       5.472  -8.873  17.338  1.00  0.00     0.300 C 
BRANCH   5   6
HETATM    6  N2  UNL     1       5.397  -9.997  18.198  1.00  0.00     0.093 N 
HETATM    7  C4  UNL     1       6.482 -10.909  18.033  1.00  0.00     0.302 C 
HETATM    8  C3  UNL     1       6.970 -11.652  19.199  1.00  0.00     0.302 C 
HETATM    9  N1  UNL     1       7.020 -10.910  20.432  1.00  0.00     0.091 N 
HETATM   10  C12 UNL     1       6.360  -9.637  20.328  1.00  0.00     0.302 C 
HETATM   11  C11 UNL     1       5.065  -9.700  19.556  1.00  0.00     0.302 C 
BRANCH   9  12
HETATM   12  C2  UNL     1       6.531 -11.701  21.549  1.00  0.00     0.268 C 
HETATM   13  C1  UNL     1       7.332 -13.012  21.464  1.00  0.00     0.037 C 
ENDBRANCH   9  12
ENDBRANCH   5   6
ENDBRANCH   4   5
ENDBRANCH   1   4
BRANCH   1  14
HETATM   14  C7  UNL     1       5.026 -10.395  14.183  1.00  0.00     0.210 C 
HETATM   15  C8  UNL     1       3.958  -9.967  13.251  1.00  0.00     0.154 C 
HETATM   16  N4  UNL     1       4.603  -9.829  11.946  1.00  0.00    -0.378 N 
HETATM   17  C9  UNL     1       5.991 -10.070  12.077  1.00  0.00     0.072 C 
ATOM     18  H4  UNL     1       4.126  -9.593  11.076  1.00  0.00     0.160 HD
HETATM   19  N5  UNL     1       6.916  -9.704  11.275  1.00  0.00    -0.389 N 
HETATM   20  C10 UNL     1       6.223 -10.838  13.338  1.00  0.00     0.110 C 
ATOM     21  H52 UNL     1       6.758  -9.181  10.414  1.00  0.00     0.157 HD
ATOM     22  H51 UNL     1       7.917  -9.878  11.368  1.00  0.00     0.157 HD
ENDBRANCH   1  14
TORSDOF 5
ENDMDL
MODEL 5
REMARK VINA RESULT: -5.960703248      1.063      1.187
REMARK  5 active torsions:
REMARK  status: ('A' for Active; 'I' for Inactive)
REMARK    1  A    between atoms: C2_2  and  N1_3 
REMARK    2  A    between atoms: N2_6  and  C5_7 
REMARK    3  A    between atoms: C5_7  and  C6_8 
REMARK    4  A    between atoms: C6_8  and  N3_9 
REMARK    5  A    between atoms: N3_9  and  C7_12 
ROOT
HETATM    1  N3  UNL     1       4.450  -9.691  17.737  1.00  0.00    -0.067 N 
ATOM      2  H31 UNL     1       4.514 -10.697  17.582  1.00  0.00     0.277 HD
ATOM      3  H32 UNL     1       3.432  -9.622  17.722  1.00  0.00     0.277 HD
ENDROOT
BRANCH   1   4
HETATM    4  C6  UNL     1       5.103  -8.899  16.679  1.00  0.00     0.263 C 
BRANCH   4   5
HETATM    5  C5  UNL     1       5.301  -9.755  15.461  1.00  0.00     0.300 C 
BRANCH   5   6
HETATM    6  N2  UNL     1       5.122  -9.013  14.266  1.00  0.00     0.093 N 
HETATM    7  C4  UNL     1       6.345  -8.726  13.590  1.00  0.00     0.302 C 
HETATM    8  C3  UNL     1       6.348  -8.655  12.126  1.00  0.00     0.302 C 
HETATM    9  N1  UNL     1       5.531  -9.634  11.455  1.00  0.00     0.091 N 
HETATM   10  C12 UNL     1       4.684 -10.353  12.367  1.00  0.00     0.302 C 
HETATM   11  C11 UNL     1       4.063  -9.470  13.422  1.00  0.00     0.302 C 
BRANCH   9  12
HETATM   12  C2  UNL     1       4.789  -9.042  10.354  1.00  0.00     0.268 C 
HETATM   13  C1  UNL     1       5.673  -7.872   9.886  1.00  0.00     0.037 C 
ENDBRANCH   9  12
ENDBRANCH   5   6
ENDBRANCH   4   5
ENDBRANCH   1   4
BRANCH   1  14
HETATM   14  C7  UNL     1       5.037  -9.267  19.008  1.00  0.00     0.210 C 
HETATM   15  C8  UNL     1       4.759 -10.261  20.070  1.00  0.00     0.154 C 
HETATM   16  N4  UNL     1       5.967 -11.077  20.174  1.00  0.00    -0.378 N 
HETATM   17  C9  UNL     1       6.898 -10.673  19.188  1.00  0.00     0.072 C 
ATOM     18  H4  UNL     1       6.116 -11.824  20.853  1.00  0.00     0.160 HD
HETATM   19  N5  UNL     1       7.882 -11.350  18.733  1.00  0.00    -0.389 N 
HETATM   20  C10 UNL     1       6.543  -9.293  18.738  1.00  0.00     0.110 C 
ATOM     21  H52 UNL     1       8.124 -12.291  19.040  1.00  0.00     0.157 HD
ATOM     22  H51 UNL     1       8.553 -11.059  18.022  1.00  0.00     0.157 HD
ENDBRANCH   1  14
TORSDOF 5
ENDMDL
