MODEL 1
REMARK VINA RESULT: -8.823207794      0.000      0.000
REMARK  15 active torsions:
REMARK  status: ('A' for Active; 'I' for Inactive)
REMARK    1  A    between atoms: C2_2  and  O2_4 
REMARK    2  A    between atoms: O2_4  and  C3_5 
REMARK    3  A    between atoms: C3_5  and  C4_6 
REMARK    4  A    between atoms: C3_5  and  C5_13 
REMARK    5  A    between atoms: C4_6  and  N1_7 
REMARK    6  A    between atoms: C4_6  and  O3_11 
REMARK    7  A    between atoms: C5_13  and  S1_14 
REMARK    8  A    between atoms: C5_13  and  C20_49 
REMARK    9  A    between atoms: S1_14  and  C6_15 
REMARK   10  A    between atoms: C8_18  and  N2_19 
REMARK       I    between atoms: N2_19  and  C9_21 
REMARK   11  A    between atoms: C9_21  and  C10_23 
REMARK   12  A    between atoms: N5_30  and  O6_31 
REMARK   13  A    between atoms: O6_31  and  S2_32 
REMARK   14  A    between atoms: S2_32  and  N6_35 
REMARK       I    between atoms: N6_35  and  C14_37 
REMARK   15  A    between atoms: C16_42  and  N8_43 
ROOT
HETATM    1  C6  UNL     1      10.813  21.233   5.585  1.00  0.00     0.079 C 
HETATM    2  C7  UNL     1      11.880  21.169   4.785  1.00  0.00     0.066 C 
HETATM    3  O4  UNL     1      12.348  20.152   3.992  1.00  0.00    -0.326 OA
HETATM    4  C8  UNL     1      13.409  20.534   3.214  1.00  0.00     0.260 C 
HETATM    5  C16 UNL     1      13.553  22.006   3.356  1.00  0.00     0.219 C 
HETATM    6  C17 UNL     1      12.812  22.326   4.626  1.00  0.00     0.033 C 
HETATM    7  C18 UNL     1      13.704  22.364   5.850  1.00  0.00     0.025 C 
HETATM    8  C19 UNL     1      12.041  23.627   4.514  1.00  0.00     0.025 C 
ENDROOT
BRANCH   4   9
HETATM    9  N2  UNL     1      14.661  19.821   3.454  1.00  0.00    -0.328 N 
HETATM   10  C9  UNL     1      15.475  19.366   2.405  1.00  0.00     0.261 C 
HETATM   11  O5  UNL     1      15.019  19.639   1.235  1.00  0.00    -0.267 OA
ATOM     12  H2  UNL     1      14.954  19.648   4.416  1.00  0.00     0.165 HD
BRANCH  10  13
HETATM   13  C10 UNL     1      16.727  18.656   2.456  1.00  0.00     0.124 A 
HETATM   14  C11 UNL     1      16.787  17.275   2.612  1.00  0.00     0.029 A 
HETATM   15  C12 UNL     1      15.555  16.473   2.691  1.00  0.00     0.069 C 
HETATM   16  N3  UNL     1      17.973  16.675   2.681  1.00  0.00    -0.331 N 
HETATM   17  C13 UNL     1      19.149  17.306   2.610  1.00  0.00     0.224 A 
ATOM     18  H3  UNL     1      17.986  15.662   2.795  1.00  0.00     0.168 HD
HETATM   19  N4  UNL     1      20.400  16.637   2.672  1.00  0.00    -0.061 NA
HETATM   20  N5  UNL     1      19.093  18.653   2.457  1.00  0.00    -0.135 N 
HETATM   21  C15 UNL     1      17.928  19.329   2.381  1.00  0.00     0.293 A 
HETATM   22  O10 UNL     1      18.007  20.588   2.241  1.00  0.00    -0.264 OA
BRANCH  20  23
HETATM   23  O6  UNL     1      20.316  19.326   2.393  1.00  0.00    -0.121 OA
BRANCH  23  24
HETATM   24  S2  UNL     1      20.916  19.914   3.894  1.00  0.00     0.386 S 
HETATM   25  O7  UNL     1      21.595  18.814   4.669  1.00  0.00    -0.173 OA
HETATM   26  O8  UNL     1      19.747  20.352   4.762  1.00  0.00    -0.173 OA
BRANCH  24  27
HETATM   27  N6  UNL     1      22.011  21.214   3.678  1.00  0.00    -0.214 N 
HETATM   28  C14 UNL     1      21.712  22.312   2.836  1.00  0.00     0.343 C 
HETATM   29  N7  UNL     1      22.655  23.349   2.698  1.00  0.00    -0.039 NA
HETATM   30  O9  UNL     1      20.616  22.330   2.236  1.00  0.00    -0.250 OA
ATOM     31  H6  UNL     1      22.904  21.197   4.172  1.00  0.00     0.185 HD
ENDBRANCH  24  27
ENDBRANCH  23  24
ENDBRANCH  20  23
ENDBRANCH  10  13
ENDBRANCH   4   9
BRANCH   5  32
HETATM   32  N8  UNL     1      12.955  22.736   2.239  1.00  0.00    -0.145 N 
HETATM   33  O11 UNL     1      13.271  23.896   2.000  1.00  0.00    -0.536 OA
HETATM   34  O12 UNL     1      12.031  22.063   1.480  1.00  0.00    -0.536 OA
ENDBRANCH   5  32
BRANCH   1  35
HETATM   35  S1  UNL     1       9.673  19.877   5.806  1.00  0.00    -0.120 SA
BRANCH  35  36
HETATM   36  C5  UNL     1       8.335  20.463   6.911  1.00  0.00     0.186 C 
BRANCH  36  37
HETATM   37  C3  UNL     1       8.004  19.461   7.955  1.00  0.00     0.212 C 
BRANCH  37  38
HETATM   38  O2  UNL     1       8.924  18.398   7.928  1.00  0.00    -0.310 OA
BRANCH  38  39
HETATM   39  C2  UNL     1       8.705  17.189   8.570  1.00  0.00     0.255 C 
HETATM   40  C1  UNL     1       9.735  16.552   9.428  1.00  0.00     0.126 C 
HETATM   41  O1  UNL     1       7.607  16.620   8.422  1.00  0.00    -0.266 OA
ENDBRANCH  38  39
ENDBRANCH  37  38
BRANCH  37  42
HETATM   42  C4  UNL     1       7.775  19.958   9.338  1.00  0.00     0.347 C 
BRANCH  42  43
HETATM   43  N1  UNL     1       8.269  21.263   9.637  1.00  0.00    -0.051 N 
ATOM     44  H13 UNL     1       8.447  21.340  10.639  1.00  0.00     0.277 HD
ATOM     45  H12 UNL     1       9.216  21.363   9.271  1.00  0.00     0.277 HD
ATOM     46  H11 UNL     1       7.698  22.049   9.329  1.00  0.00     0.277 HD
ENDBRANCH  42  43
BRANCH  42  47
HETATM   47  O3  UNL     1       6.437  19.923   9.717  1.00  0.00    -0.368 OA
ATOM     48  H3  UNL     1       6.298  20.170  10.624  1.00  0.00     0.212 HD
ENDBRANCH  42  47
ENDBRANCH  37  42
ENDBRANCH  36  37
BRANCH  36  49
HETATM   49  C20 UNL     1       7.220  21.058   6.182  1.00  0.00     0.190 C 
HETATM   50  O13 UNL     1       6.059  20.510   6.128  1.00  0.00    -0.647 OA
HETATM   51  O14 UNL     1       7.307  22.254   5.488  1.00  0.00    -0.647 OA
ENDBRANCH  36  49
ENDBRANCH  35  36
ENDBRANCH   1  35
TORSDOF 15
ENDMDL
MODEL 2
REMARK VINA RESULT: -8.516900009      2.315     10.793
REMARK  15 active torsions:
REMARK  status: ('A' for Active; 'I' for Inactive)
REMARK    1  A    between atoms: C2_2  and  O2_4 
REMARK    2  A    between atoms: O2_4  and  C3_5 
REMARK    3  A    between atoms: C3_5  and  C4_6 
REMARK    4  A    between atoms: C3_5  and  C5_13 
REMARK    5  A    between atoms: C4_6  and  N1_7 
REMARK    6  A    between atoms: C4_6  and  O3_11 
REMARK    7  A    between atoms: C5_13  and  S1_14 
REMARK    8  A    between atoms: C5_13  and  C20_49 
REMARK    9  A    between atoms: S1_14  and  C6_15 
REMARK   10  A    between atoms: C8_18  and  N2_19 
REMARK       I    between atoms: N2_19  and  C9_21 
REMARK   11  A    between atoms: C9_21  and  C10_23 
REMARK   12  A    between atoms: N5_30  and  O6_31 
REMARK   13  A    between atoms: O6_31  and  S2_32 
REMARK   14  A    between atoms: S2_32  and  N6_35 
REMARK       I    between atoms: N6_35  and  C14_37 
REMARK   15  A    between atoms: C16_42  and  N8_43 
ROOT
HETATM    1  C6  UNL     1      18.538  17.381   1.908  1.00  0.00     0.079 C 
HETATM    2  C7  UNL     1      17.219  17.583   1.954  1.00  0.00     0.066 C 
HETATM    3  O4  UNL     1      16.481  18.733   1.830  1.00  0.00    -0.326 OA
HETATM    4  C8  UNL     1      15.133  18.496   1.801  1.00  0.00     0.260 C 
HETATM    5  C16 UNL     1      14.945  17.026   1.704  1.00  0.00     0.219 C 
HETATM    6  C17 UNL     1      16.259  16.457   2.167  1.00  0.00     0.033 C 
HETATM    7  C18 UNL     1      16.281  16.114   3.643  1.00  0.00     0.025 C 
HETATM    8  C19 UNL     1      16.664  15.243   1.354  1.00  0.00     0.025 C 
ENDROOT
BRANCH   4   9
HETATM    9  N2  UNL     1      14.360  19.091   2.888  1.00  0.00    -0.328 N 
HETATM   10  C9  UNL     1      13.734  20.341   2.763  1.00  0.00     0.261 C 
HETATM   11  O5  UNL     1      13.902  20.896   1.616  1.00  0.00    -0.267 OA
ATOM     12  H2  UNL     1      14.272  18.581   3.767  1.00  0.00     0.165 HD
BRANCH  10  13
HETATM   13  C10 UNL     1      12.940  21.070   3.719  1.00  0.00     0.124 A 
HETATM   14  C11 UNL     1      13.518  21.823   4.736  1.00  0.00     0.029 A 
HETATM   15  C12 UNL     1      14.981  21.937   4.850  1.00  0.00     0.069 C 
HETATM   16  N3  UNL     1      12.735  22.455   5.608  1.00  0.00    -0.331 N 
HETATM   17  C13 UNL     1      11.399  22.426   5.589  1.00  0.00     0.224 A 
ATOM     18  H3  UNL     1      13.186  22.999   6.343  1.00  0.00     0.168 HD
HETATM   19  N4  UNL     1      10.589  23.122   6.525  1.00  0.00    -0.061 NA
HETATM   20  N5  UNL     1      10.834  21.692   4.598  1.00  0.00    -0.135 N 
HETATM   21  C15 UNL     1      11.564  21.025   3.679  1.00  0.00     0.293 A 
HETATM   22  O10 UNL     1      10.918  20.372   2.802  1.00  0.00    -0.264 OA
BRANCH  20  23
HETATM   23  O6  UNL     1       9.437  21.645   4.574  1.00  0.00    -0.121 OA
BRANCH  23  24
HETATM   24  S2  UNL     1       8.719  20.478   5.613  1.00  0.00     0.386 S 
HETATM   25  O7  UNL     1       9.308  19.111   5.373  1.00  0.00    -0.173 OA
HETATM   26  O8  UNL     1       7.245  20.344   5.272  1.00  0.00    -0.173 OA
BRANCH  24  27
HETATM   27  N6  UNL     1       8.908  20.892   7.265  1.00  0.00    -0.214 N 
HETATM   28  C14 UNL     1       8.279  20.154   8.297  1.00  0.00     0.343 C 
HETATM   29  N7  UNL     1       8.470  20.547   9.636  1.00  0.00    -0.039 NA
HETATM   30  O9  UNL     1       7.569  19.173   7.990  1.00  0.00    -0.250 OA
ATOM     31  H6  UNL     1       9.489  21.694   7.512  1.00  0.00     0.185 HD
ENDBRANCH  24  27
ENDBRANCH  23  24
ENDBRANCH  20  23
ENDBRANCH  10  13
ENDBRANCH   4   9
BRANCH   5  32
HETATM   32  N8  UNL     1      14.672  16.586   0.337  1.00  0.00    -0.145 N 
HETATM   33  O11 UNL     1      14.267  15.452   0.106  1.00  0.00    -0.536 OA
HETATM   34  O12 UNL     1      14.890  17.497  -0.665  1.00  0.00    -0.536 OA
ENDBRANCH   5  32
BRANCH   1  35
HETATM   35  S1  UNL     1      19.721  18.694   1.656  1.00  0.00    -0.120 SA
BRANCH  35  36
HETATM   36  C5  UNL     1      19.940  19.549   3.261  1.00  0.00     0.186 C 
BRANCH  36  37
HETATM   37  C3  UNL     1      19.754  21.015   3.134  1.00  0.00     0.212 C 
BRANCH  37  38
HETATM   38  O2  UNL     1      20.730  21.565   2.285  1.00  0.00    -0.310 OA
BRANCH  38  39
HETATM   39  C2  UNL     1      21.453  22.705   2.599  1.00  0.00     0.255 C 
HETATM   40  C1  UNL     1      22.644  22.667   3.485  1.00  0.00     0.126 C 
HETATM   41  O1  UNL     1      21.092  23.797   2.120  1.00  0.00    -0.266 OA
ENDBRANCH  38  39
ENDBRANCH  37  38
BRANCH  37  42
HETATM   42  C4  UNL     1      18.392  21.511   2.803  1.00  0.00     0.347 C 
BRANCH  42  43
HETATM   43  N1  UNL     1      18.041  21.537   1.420  1.00  0.00    -0.051 N 
ATOM     44  H13 UNL     1      18.661  22.174   0.921  1.00  0.00     0.277 HD
ATOM     45  H12 UNL     1      18.295  20.649   0.985  1.00  0.00     0.277 HD
ATOM     46  H11 UNL     1      17.070  21.760   1.200  1.00  0.00     0.277 HD
ENDBRANCH  42  43
BRANCH  42  47
HETATM   47  O3  UNL     1      17.382  20.831   3.476  1.00  0.00    -0.368 OA
ATOM     48  H3  UNL     1      17.584  20.671   4.391  1.00  0.00     0.212 HD
ENDBRANCH  42  47
ENDBRANCH  37  42
ENDBRANCH  36  37
BRANCH  36  49
HETATM   49  C20 UNL     1      21.115  19.087   3.991  1.00  0.00     0.190 C 
HETATM   50  O13 UNL     1      21.628  19.750   4.964  1.00  0.00    -0.647 OA
HETATM   51  O14 UNL     1      21.781  17.906   3.706  1.00  0.00    -0.647 OA
ENDBRANCH  36  49
ENDBRANCH  35  36
ENDBRANCH   1  35
TORSDOF 15
ENDMDL
MODEL 3
REMARK VINA RESULT: -8.460187480      2.877      5.606
REMARK  15 active torsions:
REMARK  status: ('A' for Active; 'I' for Inactive)
REMARK    1  A    between atoms: C2_2  and  O2_4 
REMARK    2  A    between atoms: O2_4  and  C3_5 
REMARK    3  A    between atoms: C3_5  and  C4_6 
REMARK    4  A    between atoms: C3_5  and  C5_13 
REMARK    5  A    between atoms: C4_6  and  N1_7 
REMARK    6  A    between atoms: C4_6  and  O3_11 
REMARK    7  A    between atoms: C5_13  and  S1_14 
REMARK    8  A    between atoms: C5_13  and  C20_49 
REMARK    9  A    between atoms: S1_14  and  C6_15 
REMARK   10  A    between atoms: C8_18  and  N2_19 
REMARK       I    between atoms: N2_19  and  C9_21 
REMARK   11  A    between atoms: C9_21  and  C10_23 
REMARK   12  A    between atoms: N5_30  and  O6_31 
REMARK   13  A    between atoms: O6_31  and  S2_32 
REMARK   14  A    between atoms: S2_32  and  N6_35 
REMARK       I    between atoms: N6_35  and  C14_37 
REMARK   15  A    between atoms: C16_42  and  N8_43 
ROOT
HETATM    1  C6  UNL     1       8.002  18.249   8.228  1.00  0.00     0.079 C 
HETATM    2  C7  UNL     1       8.556  19.142   7.404  1.00  0.00     0.066 C 
HETATM    3  O4  UNL     1       9.292  18.972   6.259  1.00  0.00    -0.326 OA
HETATM    4  C8  UNL     1       9.565  20.155   5.626  1.00  0.00     0.260 C 
HETATM    5  C16 UNL     1       8.774  21.213   6.307  1.00  0.00     0.219 C 
HETATM    6  C17 UNL     1       8.433  20.612   7.643  1.00  0.00     0.033 C 
HETATM    7  C18 UNL     1       9.414  20.978   8.738  1.00  0.00     0.025 C 
HETATM    8  C19 UNL     1       7.025  20.971   8.078  1.00  0.00     0.025 C 
ENDROOT
BRANCH   4   9
HETATM    9  N2  UNL     1      10.979  20.500   5.506  1.00  0.00    -0.328 N 
HETATM   10  C9  UNL     1      11.544  20.928   4.294  1.00  0.00     0.261 C 
HETATM   11  O5  UNL     1      10.706  20.990   3.321  1.00  0.00    -0.267 OA
ATOM     12  H2  UNL     1      11.576  20.427   6.330  1.00  0.00     0.165 HD
BRANCH  10  13
HETATM   13  C10 UNL     1      12.902  21.306   3.997  1.00  0.00     0.124 A 
HETATM   14  C11 UNL     1      13.540  22.350   4.661  1.00  0.00     0.029 A 
HETATM   15  C12 UNL     1      12.855  23.088   5.733  1.00  0.00     0.069 C 
HETATM   16  N3  UNL     1      14.787  22.672   4.326  1.00  0.00    -0.331 N 
HETATM   17  C13 UNL     1      15.501  22.061   3.376  1.00  0.00     0.224 A 
ATOM     18  H3  UNL     1      15.229  23.441   4.829  1.00  0.00     0.168 HD
HETATM   19  N4  UNL     1      16.836  22.419   3.050  1.00  0.00    -0.061 NA
HETATM   20  N5  UNL     1      14.881  21.043   2.728  1.00  0.00    -0.135 N 
HETATM   21  C15 UNL     1      13.618  20.661   3.013  1.00  0.00     0.293 A 
HETATM   22  O10 UNL     1      13.148  19.696   2.334  1.00  0.00    -0.264 OA
BRANCH  20  23
HETATM   23  O6  UNL     1      15.613  20.404   1.724  1.00  0.00    -0.121 OA
BRANCH  23  24
HETATM   24  S2  UNL     1      16.504  19.021   2.226  1.00  0.00     0.386 S 
HETATM   25  O7  UNL     1      16.852  18.150   1.045  1.00  0.00    -0.173 OA
HETATM   26  O8  UNL     1      15.626  18.156   3.115  1.00  0.00    -0.173 OA
BRANCH  24  27
HETATM   27  N6  UNL     1      17.941  19.452   3.054  1.00  0.00    -0.214 N 
HETATM   28  C14 UNL     1      19.050  20.019   2.381  1.00  0.00     0.343 C 
HETATM   29  N7  UNL     1      20.204  20.349   3.117  1.00  0.00    -0.039 NA
HETATM   30  O9  UNL     1      18.974  20.209   1.148  1.00  0.00    -0.250 OA
ATOM     31  H6  UNL     1      17.998  19.296   4.061  1.00  0.00     0.185 HD
ENDBRANCH  24  27
ENDBRANCH  23  24
ENDBRANCH  20  23
ENDBRANCH  10  13
ENDBRANCH   4   9
BRANCH   5  32
HETATM   32  N8  UNL     1       7.546  21.544   5.587  1.00  0.00    -0.145 N 
HETATM   33  O11 UNL     1       6.966  22.606   5.780  1.00  0.00    -0.536 OA
HETATM   34  O12 UNL     1       7.081  20.615   4.691  1.00  0.00    -0.536 OA
ENDBRANCH   5  32
BRANCH   1  35
HETATM   35  S1  UNL     1       8.123  16.484   7.982  1.00  0.00    -0.120 SA
BRANCH  35  36
HETATM   36  C5  UNL     1       7.955  15.691   9.625  1.00  0.00     0.186 C 
BRANCH  36  37
HETATM   37  C3  UNL     1       6.539  15.392   9.950  1.00  0.00     0.212 C 
BRANCH  37  38
HETATM   38  O2  UNL     1       5.725  15.566   8.818  1.00  0.00    -0.310 OA
BRANCH  38  39
HETATM   39  C2  UNL     1       4.549  16.299   8.834  1.00  0.00     0.255 C 
HETATM   40  C1  UNL     1       4.287  17.350   9.849  1.00  0.00     0.126 C 
HETATM   41  O1  UNL     1       3.684  16.068   7.967  1.00  0.00    -0.266 OA
ENDBRANCH  38  39
ENDBRANCH  37  38
BRANCH  37  42
HETATM   42  C4  UNL     1       6.248  14.112  10.649  1.00  0.00     0.347 C 
BRANCH  42  43
HETATM   43  N1  UNL     1       5.406  13.187   9.961  1.00  0.00    -0.051 N 
ATOM     44  H13 UNL     1       4.504  13.623   9.770  1.00  0.00     0.277 HD
ATOM     45  H12 UNL     1       5.752  13.049   9.011  1.00  0.00     0.277 HD
ATOM     46  H11 UNL     1       5.262  12.282  10.408  1.00  0.00     0.277 HD
ENDBRANCH  42  43
BRANCH  42  47
HETATM   47  O3  UNL     1       7.395  13.424  11.032  1.00  0.00    -0.368 OA
ATOM     48  H3  UNL     1       7.229  12.754  11.685  1.00  0.00     0.212 HD
ENDBRANCH  42  47
ENDBRANCH  37  42
ENDBRANCH  36  37
BRANCH  36  49
HETATM   49  C20 UNL     1       8.751  16.351  10.655  1.00  0.00     0.190 C 
HETATM   50  O13 UNL     1      10.013  16.153  10.786  1.00  0.00    -0.647 OA
HETATM   51  O14 UNL     1       8.225  17.241  11.578  1.00  0.00    -0.647 OA
ENDBRANCH  36  49
ENDBRANCH  35  36
ENDBRANCH   1  35
TORSDOF 15
ENDMDL
MODEL 4
REMARK VINA RESULT: -8.449112961      1.144      1.470
REMARK  15 active torsions:
REMARK  status: ('A' for Active; 'I' for Inactive)
REMARK    1  A    between atoms: C2_2  and  O2_4 
REMARK    2  A    between atoms: O2_4  and  C3_5 
REMARK    3  A    between atoms: C3_5  and  C4_6 
REMARK    4  A    between atoms: C3_5  and  C5_13 
REMARK    5  A    between atoms: C4_6  and  N1_7 
REMARK    6  A    between atoms: C4_6  and  O3_11 
REMARK    7  A    between atoms: C5_13  and  S1_14 
REMARK    8  A    between atoms: C5_13  and  C20_49 
REMARK    9  A    between atoms: S1_14  and  C6_15 
REMARK   10  A    between atoms: C8_18  and  N2_19 
REMARK       I    between atoms: N2_19  and  C9_21 
REMARK   11  A    between atoms: C9_21  and  C10_23 
REMARK   12  A    between atoms: N5_30  and  O6_31 
REMARK   13  A    between atoms: O6_31  and  S2_32 
REMARK   14  A    between atoms: S2_32  and  N6_35 
REMARK       I    between atoms: N6_35  and  C14_37 
REMARK   15  A    between atoms: C16_42  and  N8_43 
ROOT
HETATM    1  C6  UNL     1      10.924  21.237   5.802  1.00  0.00     0.079 C 
HETATM    2  C7  UNL     1      11.943  21.225   4.940  1.00  0.00     0.066 C 
HETATM    3  O4  UNL     1      12.404  20.237   4.109  1.00  0.00    -0.326 OA
HETATM    4  C8  UNL     1      13.402  20.669   3.275  1.00  0.00     0.260 C 
HETATM    5  C16 UNL     1      13.494  22.144   3.426  1.00  0.00     0.219 C 
HETATM    6  C17 UNL     1      12.817  22.421   4.741  1.00  0.00     0.033 C 
HETATM    7  C18 UNL     1      13.777  22.483   5.912  1.00  0.00     0.025 C 
HETATM    8  C19 UNL     1      11.989  23.691   4.690  1.00  0.00     0.025 C 
ENDROOT
BRANCH   4   9
HETATM    9  N2  UNL     1      14.693  20.006   3.433  1.00  0.00    -0.328 N 
HETATM   10  C9  UNL     1      15.506  19.681   2.335  1.00  0.00     0.261 C 
HETATM   11  O5  UNL     1      15.011  20.024   1.200  1.00  0.00    -0.267 OA
ATOM     12  H2  UNL     1      15.015  19.770   4.372  1.00  0.00     0.165 HD
BRANCH  10  13
HETATM   13  C10 UNL     1      16.793  19.036   2.305  1.00  0.00     0.124 A 
HETATM   14  C11 UNL     1      16.927  17.651   2.360  1.00  0.00     0.029 A 
HETATM   15  C12 UNL     1      15.740  16.783   2.410  1.00  0.00     0.069 C 
HETATM   16  N3  UNL     1      18.144  17.112   2.356  1.00  0.00    -0.331 N 
HETATM   17  C13 UNL     1      19.284  17.807   2.303  1.00  0.00     0.224 A 
ATOM     18  H3  UNL     1      18.211  16.095   2.397  1.00  0.00     0.168 HD
HETATM   19  N4  UNL     1      20.568  17.202   2.287  1.00  0.00    -0.061 NA
HETATM   20  N5  UNL     1      19.156  19.156   2.249  1.00  0.00    -0.135 N 
HETATM   21  C15 UNL     1      17.955  19.774   2.250  1.00  0.00     0.293 A 
HETATM   22  O10 UNL     1      17.967  21.043   2.199  1.00  0.00    -0.264 OA
BRANCH  20  23
HETATM   23  O6  UNL     1      20.341  19.895   2.205  1.00  0.00    -0.121 OA
BRANCH  23  24
HETATM   24  S2  UNL     1      21.060  20.232   3.731  1.00  0.00     0.386 S 
HETATM   25  O7  UNL     1      20.023  20.224   4.826  1.00  0.00    -0.173 OA
HETATM   26  O8  UNL     1      21.619  21.645   3.719  1.00  0.00    -0.173 OA
BRANCH  24  27
HETATM   27  N6  UNL     1      22.297  19.110   4.115  1.00  0.00    -0.214 N 
HETATM   28  C14 UNL     1      23.336  19.425   5.023  1.00  0.00     0.343 C 
HETATM   29  N7  UNL     1      24.326  18.462   5.295  1.00  0.00    -0.039 NA
HETATM   30  O9  UNL     1      23.347  20.554   5.558  1.00  0.00    -0.250 OA
ATOM     31  H6  UNL     1      22.284  18.188   3.676  1.00  0.00     0.185 HD
ENDBRANCH  24  27
ENDBRANCH  23  24
ENDBRANCH  20  23
ENDBRANCH  10  13
ENDBRANCH   4   9
BRANCH   5  32
HETATM   32  N8  UNL     1      12.803  22.860   2.356  1.00  0.00    -0.145 N 
HETATM   33  O11 UNL     1      13.179  23.967   1.988  1.00  0.00    -0.536 OA
HETATM   34  O12 UNL     1      11.721  22.235   1.787  1.00  0.00    -0.536 OA
ENDBRANCH   5  32
BRANCH   1  35
HETATM   35  S1  UNL     1       9.854  19.834   6.072  1.00  0.00    -0.120 SA
BRANCH  35  36
HETATM   36  C5  UNL     1       8.394  20.431   7.004  1.00  0.00     0.186 C 
BRANCH  36  37
HETATM   37  C3  UNL     1       7.939  19.440   8.010  1.00  0.00     0.212 C 
BRANCH  37  38
HETATM   38  O2  UNL     1       8.801  18.329   8.034  1.00  0.00    -0.310 OA
BRANCH  38  39
HETATM   39  C2  UNL     1       8.535  17.178   8.759  1.00  0.00     0.255 C 
HETATM   40  C1  UNL     1       9.579  16.489   9.558  1.00  0.00     0.126 C 
HETATM   41  O1  UNL     1       7.382  16.708   8.738  1.00  0.00    -0.266 OA
ENDBRANCH  38  39
ENDBRANCH  37  38
BRANCH  37  42
HETATM   42  C4  UNL     1       7.641  19.937   9.380  1.00  0.00     0.347 C 
BRANCH  42  43
HETATM   43  N1  UNL     1       7.835  21.332   9.609  1.00  0.00    -0.051 N 
ATOM     44  H13 UNL     1       8.662  21.650   9.105  1.00  0.00     0.277 HD
ATOM     45  H12 UNL     1       7.108  21.863   9.128  1.00  0.00     0.277 HD
ATOM     46  H11 UNL     1       7.890  21.631  10.583  1.00  0.00     0.277 HD
ENDBRANCH  42  43
BRANCH  42  47
HETATM   47  O3  UNL     1       6.356  19.619   9.809  1.00  0.00    -0.368 OA
ATOM     48  H3  UNL     1       6.345  19.002  10.531  1.00  0.00     0.212 HD
ENDBRANCH  42  47
ENDBRANCH  37  42
ENDBRANCH  36  37
BRANCH  36  49
HETATM   49  C20 UNL     1       7.375  21.020   6.141  1.00  0.00     0.190 C 
HETATM   50  O13 UNL     1       6.390  21.703   6.602  1.00  0.00    -0.647 OA
HETATM   51  O14 UNL     1       7.373  20.896   4.761  1.00  0.00    -0.647 OA
ENDBRANCH  36  49
ENDBRANCH  35  36
ENDBRANCH   1  35
TORSDOF 15
ENDMDL
MODEL 5
REMARK VINA RESULT: -8.394462655      2.513     11.419
REMARK  15 active torsions:
REMARK  status: ('A' for Active; 'I' for Inactive)
REMARK    1  A    between atoms: C2_2  and  O2_4 
REMARK    2  A    between atoms: O2_4  and  C3_5 
REMARK    3  A    between atoms: C3_5  and  C4_6 
REMARK    4  A    between atoms: C3_5  and  C5_13 
REMARK    5  A    between atoms: C4_6  and  N1_7 
REMARK    6  A    between atoms: C4_6  and  O3_11 
REMARK    7  A    between atoms: C5_13  and  S1_14 
REMARK    8  A    between atoms: C5_13  and  C20_49 
REMARK    9  A    between atoms: S1_14  and  C6_15 
REMARK   10  A    between atoms: C8_18  and  N2_19 
REMARK       I    between atoms: N2_19  and  C9_21 
REMARK   11  A    between atoms: C9_21  and  C10_23 
REMARK   12  A    between atoms: N5_30  and  O6_31 
REMARK   13  A    between atoms: O6_31  and  S2_32 
REMARK   14  A    between atoms: S2_32  and  N6_35 
REMARK       I    between atoms: N6_35  and  C14_37 
REMARK   15  A    between atoms: C16_42  and  N8_43 
ROOT
HETATM    1  C6  UNL     1      17.056  19.746   2.386  1.00  0.00     0.079 C 
HETATM    2  C7  UNL     1      15.772  19.999   2.650  1.00  0.00     0.066 C 
HETATM    3  O4  UNL     1      15.182  21.039   3.323  1.00  0.00    -0.326 OA
HETATM    4  C8  UNL     1      13.815  21.002   3.260  1.00  0.00     0.260 C 
HETATM    5  C16 UNL     1      13.447  19.940   2.289  1.00  0.00     0.219 C 
HETATM    6  C17 UNL     1      14.682  19.084   2.196  1.00  0.00     0.033 C 
HETATM    7  C18 UNL     1      14.664  17.896   3.136  1.00  0.00     0.025 C 
HETATM    8  C19 UNL     1      14.932  18.611   0.777  1.00  0.00     0.025 C 
ENDROOT
BRANCH   4   9
HETATM    9  N2  UNL     1      13.124  20.860   4.538  1.00  0.00    -0.328 N 
HETATM   10  C9  UNL     1      11.984  21.614   4.860  1.00  0.00     0.261 C 
HETATM   11  O5  UNL     1      11.615  22.424   3.932  1.00  0.00    -0.267 OA
ATOM     12  H2  UNL     1      13.480  20.190   5.220  1.00  0.00     0.165 HD
BRANCH  10  13
HETATM   13  C10 UNL     1      11.184  21.604   6.058  1.00  0.00     0.124 A 
HETATM   14  C11 UNL     1      11.570  22.283   7.210  1.00  0.00     0.029 A 
HETATM   15  C12 UNL     1      12.806  23.081   7.233  1.00  0.00     0.069 C 
HETATM   16  N3  UNL     1      10.805  22.215   8.296  1.00  0.00    -0.331 N 
HETATM   17  C13 UNL     1       9.661  21.528   8.378  1.00  0.00     0.224 A 
ATOM     18  H3  UNL     1      11.112  22.723   9.125  1.00  0.00     0.168 HD
HETATM   19  N4  UNL     1       8.857  21.486   9.548  1.00  0.00    -0.061 NA
HETATM   20  N5  UNL     1       9.283  20.866   7.257  1.00  0.00    -0.135 N 
HETATM   21  C15 UNL     1      10.008  20.888   6.119  1.00  0.00     0.293 A 
HETATM   22  O10 UNL     1       9.550  20.225   5.137  1.00  0.00    -0.264 OA
BRANCH  20  23
HETATM   23  O6  UNL     1       8.094  20.135   7.334  1.00  0.00    -0.121 OA
BRANCH  23  24
HETATM   24  S2  UNL     1       8.248  18.536   7.949  1.00  0.00     0.386 S 
HETATM   25  O7  UNL     1       9.337  18.465   8.989  1.00  0.00    -0.173 OA
HETATM   26  O8  UNL     1       8.700  17.611   6.832  1.00  0.00    -0.173 OA
BRANCH  24  27
HETATM   27  N6  UNL     1       6.780  17.970   8.628  1.00  0.00    -0.214 N 
HETATM   28  C14 UNL     1       6.307  18.432   9.879  1.00  0.00     0.343 C 
HETATM   29  N7  UNL     1       5.095  17.926  10.385  1.00  0.00    -0.039 NA
HETATM   30  O9  UNL     1       6.982  19.280  10.503  1.00  0.00    -0.250 OA
ATOM     31  H6  UNL     1       6.231  17.279   8.115  1.00  0.00     0.185 HD
ENDBRANCH  24  27
ENDBRANCH  23  24
ENDBRANCH  20  23
ENDBRANCH  10  13
ENDBRANCH   4   9
BRANCH   5  32
HETATM   32  N8  UNL     1      13.119  20.476   0.970  1.00  0.00    -0.145 N 
HETATM   33  O11 UNL     1      12.400  19.856   0.194  1.00  0.00    -0.536 OA
HETATM   34  O12 UNL     1      13.650  21.699   0.646  1.00  0.00    -0.536 OA
ENDBRANCH   5  32
BRANCH   1  35
HETATM   35  S1  UNL     1      18.392  20.809   2.907  1.00  0.00    -0.120 SA
BRANCH  35  36
HETATM   36  C5  UNL     1      19.748  19.732   3.503  1.00  0.00     0.186 C 
BRANCH  36  37
HETATM   37  C3  UNL     1      20.974  20.509   3.812  1.00  0.00     0.212 C 
BRANCH  37  38
HETATM   38  O2  UNL     1      22.117  19.701   3.679  1.00  0.00    -0.310 OA
BRANCH  38  39
HETATM   39  C2  UNL     1      23.017  19.485   4.709  1.00  0.00     0.255 C 
HETATM   40  C1  UNL     1      23.750  18.203   4.862  1.00  0.00     0.126 C 
HETATM   41  O1  UNL     1      23.218  20.396   5.534  1.00  0.00    -0.266 OA
ENDBRANCH  38  39
ENDBRANCH  37  38
BRANCH  37  42
HETATM   42  C4  UNL     1      21.144  21.823   3.139  1.00  0.00     0.347 C 
BRANCH  42  43
HETATM   43  N1  UNL     1      22.167  22.676   3.654  1.00  0.00    -0.051 N 
ATOM     44  H13 UNL     1      21.859  23.647   3.609  1.00  0.00     0.277 HD
ATOM     45  H12 UNL     1      22.242  22.550   4.664  1.00  0.00     0.277 HD
ATOM     46  H11 UNL     1      23.090  22.589   3.229  1.00  0.00     0.277 HD
ENDBRANCH  42  43
BRANCH  42  47
HETATM   47  O3  UNL     1      21.346  21.714   1.767  1.00  0.00    -0.368 OA
ATOM     48  H3  UNL     1      21.055  22.479   1.284  1.00  0.00     0.212 HD
ENDBRANCH  42  47
ENDBRANCH  37  42
ENDBRANCH  36  37
BRANCH  36  49
HETATM   49  C20 UNL     1      19.908  18.527   2.697  1.00  0.00     0.190 C 
HETATM   50  O13 UNL     1      20.096  17.367   3.217  1.00  0.00    -0.647 OA
HETATM   51  O14 UNL     1      19.876  18.520   1.312  1.00  0.00    -0.647 OA
ENDBRANCH  36  49
ENDBRANCH  35  36
ENDBRANCH   1  35
TORSDOF 15
ENDMDL
