MODEL 1
REMARK VINA RESULT: -9.011992995      0.000      0.000
REMARK  17 active torsions:
REMARK  status: ('A' for Active; 'I' for Inactive)
REMARK    1  A    between atoms: S1_2  and  C2_3 
REMARK    2  A    between atoms: C4_8  and  C5_9 
REMARK    3  A    between atoms: C5_9  and  C6_10 
REMARK    4  A    between atoms: C5_9  and  C15_40 
REMARK    5  A    between atoms: N3_14  and  C8_15 
REMARK    6  A    between atoms: C8_15  and  C9_16 
REMARK    7  A    between atoms: C9_16  and  C10_17 
REMARK    8  A    between atoms: C9_16  and  N5_20 
REMARK    9  A    between atoms: N7_25  and  C12_26 
REMARK   10  A    between atoms: C12_26  and  C13_27 
REMARK   11  A    between atoms: C13_27  and  N8_28 
REMARK   12  A    between atoms: C13_27  and  N9_32 
REMARK   13  A    between atoms: C15_40  and  O5_41 
REMARK   14  A    between atoms: C15_40  and  O6_43 
REMARK   15  A    between atoms: N11_45  and  C16_46 
REMARK   16  A    between atoms: C19_49  and  N12_50 
REMARK   17  A    between atoms: C26_60  and  O7_61 
ROOT
HETATM    1  C5  UNL     1      15.815  20.206   0.728  1.00  0.00     0.149 C 
ENDROOT
BRANCH   1   2
HETATM    2  C4  UNL     1      16.904  19.319   1.101  1.00  0.00     0.102 C 
HETATM    3  C3  UNL     1      17.893  19.711   2.081  1.00  0.00     0.271 C 
HETATM    4  N1  UNL     1      18.925  18.755   1.953  1.00  0.00    -0.302 N 
HETATM    5  O1  UNL     1      17.958  20.643   2.907  1.00  0.00    -0.266 OA
HETATM    6  C2  UNL     1      18.786  18.063   0.804  1.00  0.00     0.154 C 
ATOM      7  H1  UNL     1      19.670  18.608   2.634  1.00  0.00     0.171 HD
HETATM    8  N11 UNL     1      17.638  18.565   0.129  1.00  0.00    -0.287 N 
BRANCH   6   9
HETATM    9  S1  UNL     1      19.948  16.797   0.391  1.00  0.00    -0.098 SA
HETATM   10  C1  UNL     1      20.601  16.831  -1.248  1.00  0.00     0.099 C 
ENDBRANCH   6   9
BRANCH   8  11
HETATM   11  C16 UNL     1      17.283  18.287  -1.219  1.00  0.00     0.075 A 
HETATM   12  C17 UNL     1      16.515  17.204  -1.527  1.00  0.00     0.035 A 
HETATM   13  C18 UNL     1      16.179  16.827  -2.828  1.00  0.00     0.032 A 
HETATM   14  C19 UNL     1      16.655  17.599  -3.862  1.00  0.00     0.033 A 
HETATM   15  C25 UNL     1      17.444  18.718  -3.581  1.00  0.00     0.068 A 
HETATM   16  C26 UNL     1      17.760  19.065  -2.285  1.00  0.00     0.095 A 
BRANCH  14  17
HETATM   17  N12 UNL     1      16.349  17.237  -5.210  1.00  0.00    -0.379 N 
HETATM   18  C20 UNL     1      15.486  18.151  -5.957  1.00  0.00     0.124 C 
HETATM   19  C21 UNL     1      14.886  17.375  -7.120  1.00  0.00     0.047 C 
HETATM   20  C22 UNL     1      14.167  16.136  -6.627  1.00  0.00     0.234 C 
HETATM   21  N13 UNL     1      14.965  14.945  -6.656  1.00  0.00    -0.074 N 
HETATM   22  C23 UNL     1      15.946  14.868  -5.589  1.00  0.00     0.252 C 
ATOM     23 2H13 UNL     1      14.372  14.116  -6.658  1.00  0.00     0.277 HD
ATOM     24 1H13 UNL     1      15.415  14.837  -7.564  1.00  0.00     0.277 HD
HETATM   25  C24 UNL     1      16.918  16.015  -5.729  1.00  0.00     0.150 C 
ENDBRANCH  14  17
BRANCH  16  26
HETATM   26  O7  UNL     1      18.541  20.175  -2.040  1.00  0.00    -0.358 OA
ATOM     27  H7  UNL     1      19.483  20.088  -1.953  1.00  0.00     0.217 HD
ENDBRANCH  16  26
ENDBRANCH   8  11
ENDBRANCH   1   2
BRANCH   1  28
HETATM   28  C6  UNL     1      14.739  20.198   1.810  1.00  0.00     0.059 A 
HETATM   29  C7  UNL     1      13.653  19.339   1.790  1.00  0.00     0.136 A 
HETATM   30  N2  UNL     1      12.938  19.610   2.890  1.00  0.00    -0.293 N 
HETATM   31  N3  UNL     1      13.509  20.568   3.577  1.00  0.00    -0.232 N 
ATOM     32  H2  UNL     1      12.074  19.138   3.154  1.00  0.00     0.187 HD
HETATM   33  N10 UNL     1      14.601  20.916   2.911  1.00  0.00    -0.286 N 
ATOM     34  H10 UNL     1      15.249  21.644   3.209  1.00  0.00     0.188 HD
BRANCH  31  35
HETATM   35  C8  UNL     1      13.098  21.170   4.822  1.00  0.00     0.206 C 
BRANCH  35  36
HETATM   36  C9  UNL     1      12.026  22.202   4.560  1.00  0.00     0.223 C 
BRANCH  36  37
HETATM   37  C10 UNL     1      11.940  22.541   3.135  1.00  0.00     0.258 C 
HETATM   38  N4  UNL     1      12.758  23.583   2.620  1.00  0.00    -0.060 NA
HETATM   39  O2  UNL     1      11.178  21.966   2.301  1.00  0.00    -0.274 OA
ENDBRANCH  36  37
BRANCH  36  40
HETATM   40  N5  UNL     1      10.742  21.796   5.107  1.00  0.00    -0.223 N 
HETATM   41  N6  UNL     1       9.787  21.220   4.392  1.00  0.00    -0.244 N 
HETATM   42  C11 UNL     1       8.736  20.969   5.184  1.00  0.00     0.345 A 
ATOM     43  H6  UNL     1       9.843  21.001   3.397  1.00  0.00     0.192 HD
HETATM   44  O3  UNL     1       7.631  20.422   4.847  1.00  0.00    -0.245 OA
HETATM   45  N7  UNL     1       9.046  21.396   6.409  1.00  0.00    -0.245 N 
HETATM   46  C14 UNL     1      10.289  21.907   6.351  1.00  0.00     0.348 A 
HETATM   47  O4  UNL     1      10.928  22.412   7.322  1.00  0.00    -0.245 OA
BRANCH  45  48
HETATM   48  C12 UNL     1       8.212  21.338   7.615  1.00  0.00     0.200 C 
BRANCH  48  49
HETATM   49  C13 UNL     1       8.298  19.978   8.249  1.00  0.00     0.396 C 
BRANCH  49  50
HETATM   50  N8  UNL     1       8.345  20.198   9.696  1.00  0.00    -0.049 N 
ATOM     51  H83 UNL     1       8.983  20.945   9.970  1.00  0.00     0.276 HD
ATOM     52  H82 UNL     1       7.493  20.617  10.069  1.00  0.00     0.276 HD
ATOM     53  H81 UNL     1       8.571  19.297  10.117  1.00  0.00     0.276 HD
ENDBRANCH  49  50
BRANCH  49  54
HETATM   54  N9  UNL     1       7.070  19.269   7.916  1.00  0.00    -0.049 N 
ATOM     55  H93 UNL     1       6.229  19.813   8.109  1.00  0.00     0.276 HD
ATOM     56  H92 UNL     1       6.930  19.163   6.911  1.00  0.00     0.276 HD
ATOM     57  H91 UNL     1       7.092  18.378   8.412  1.00  0.00     0.276 HD
ENDBRANCH  49  54
ENDBRANCH  48  49
ENDBRANCH  45  48
ENDBRANCH  36  40
ENDBRANCH  35  36
ENDBRANCH  31  35
ENDBRANCH   1  28
BRANCH   1  58
HETATM   58  C15 UNL     1      16.230  21.699   0.618  1.00  0.00     0.270 C 
BRANCH  58  59
HETATM   59  O5  UNL     1      16.921  22.014  -0.513  1.00  0.00    -0.370 OA
ATOM     60  H5  UNL     1      17.866  21.976  -0.423  1.00  0.00     0.212 HD
ENDBRANCH  58  59
BRANCH  58  61
HETATM   61  O6  UNL     1      15.106  22.509   0.712  1.00  0.00    -0.370 OA
ATOM     62  H6  UNL     1      15.356  23.376   1.010  1.00  0.00     0.212 HD
ENDBRANCH  58  61
ENDBRANCH   1  58
TORSDOF 17
ENDMDL
MODEL 2
REMARK VINA RESULT: -8.903120607      1.933      2.996
REMARK  17 active torsions:
REMARK  status: ('A' for Active; 'I' for Inactive)
REMARK    1  A    between atoms: S1_2  and  C2_3 
REMARK    2  A    between atoms: C4_8  and  C5_9 
REMARK    3  A    between atoms: C5_9  and  C6_10 
REMARK    4  A    between atoms: C5_9  and  C15_40 
REMARK    5  A    between atoms: N3_14  and  C8_15 
REMARK    6  A    between atoms: C8_15  and  C9_16 
REMARK    7  A    between atoms: C9_16  and  C10_17 
REMARK    8  A    between atoms: C9_16  and  N5_20 
REMARK    9  A    between atoms: N7_25  and  C12_26 
REMARK   10  A    between atoms: C12_26  and  C13_27 
REMARK   11  A    between atoms: C13_27  and  N8_28 
REMARK   12  A    between atoms: C13_27  and  N9_32 
REMARK   13  A    between atoms: C15_40  and  O5_41 
REMARK   14  A    between atoms: C15_40  and  O6_43 
REMARK   15  A    between atoms: N11_45  and  C16_46 
REMARK   16  A    between atoms: C19_49  and  N12_50 
REMARK   17  A    between atoms: C26_60  and  O7_61 
ROOT
HETATM    1  C5  UNL     1      14.339  20.923   1.498  1.00  0.00     0.149 C 
ENDROOT
BRANCH   1   2
HETATM    2  C4  UNL     1      15.522  20.487   2.222  1.00  0.00     0.102 C 
HETATM    3  C3  UNL     1      16.262  21.395   3.071  1.00  0.00     0.271 C 
HETATM    4  N1  UNL     1      17.474  20.724   3.345  1.00  0.00    -0.302 N 
HETATM    5  O1  UNL     1      16.018  22.529   3.531  1.00  0.00    -0.266 OA
HETATM    6  C2  UNL     1      17.643  19.690   2.496  1.00  0.00     0.154 C 
ATOM      7  H1  UNL     1      18.129  20.984   4.083  1.00  0.00     0.171 HD
HETATM    8  N11 UNL     1      16.523  19.662   1.617  1.00  0.00    -0.287 N 
BRANCH   6   9
HETATM    9  S1  UNL     1      19.084  18.675   2.617  1.00  0.00    -0.098 SA
HETATM   10  C1  UNL     1      20.391  19.279   3.636  1.00  0.00     0.099 C 
ENDBRANCH   6   9
BRANCH   8  11
HETATM   11  C16 UNL     1      16.427  18.893   0.425  1.00  0.00     0.075 A 
HETATM   12  C17 UNL     1      15.646  17.777   0.378  1.00  0.00     0.035 A 
HETATM   13  C18 UNL     1      15.550  16.935  -0.731  1.00  0.00     0.032 A 
HETATM   14  C19 UNL     1      16.291  17.254  -1.845  1.00  0.00     0.033 A 
HETATM   15  C25 UNL     1      17.101  18.393  -1.831  1.00  0.00     0.068 A 
HETATM   16  C26 UNL     1      17.176  19.206  -0.720  1.00  0.00     0.095 A 
BRANCH  14  17
HETATM   17  N12 UNL     1      16.235  16.409  -2.995  1.00  0.00    -0.379 N 
HETATM   18  C20 UNL     1      17.264  15.375  -3.103  1.00  0.00     0.124 C 
HETATM   19  C21 UNL     1      17.344  14.952  -4.562  1.00  0.00     0.047 C 
HETATM   20  C22 UNL     1      17.596  16.148  -5.457  1.00  0.00     0.234 C 
HETATM   21  N13 UNL     1      16.407  16.723  -6.016  1.00  0.00    -0.074 N 
HETATM   22  C23 UNL     1      15.639  17.517  -5.077  1.00  0.00     0.252 C 
ATOM     23 2H13 UNL     1      16.630  17.268  -6.849  1.00  0.00     0.277 HD
ATOM     24 1H13 UNL     1      15.824  15.999  -6.436  1.00  0.00     0.277 HD
HETATM   25  C24 UNL     1      15.171  16.631  -3.947  1.00  0.00     0.150 C 
ENDBRANCH  14  17
BRANCH  16  26
HETATM   26  O7  UNL     1      17.984  20.324  -0.737  1.00  0.00    -0.358 OA
ATOM     27  H7  UNL     1      18.532  20.529   0.011  1.00  0.00     0.217 HD
ENDBRANCH  16  26
ENDBRANCH   8  11
ENDBRANCH   1   2
BRANCH   1  28
HETATM   28  C6  UNL     1      13.190  21.168   2.472  1.00  0.00     0.059 A 
HETATM   29  C7  UNL     1      11.930  20.616   2.309  1.00  0.00     0.136 A 
HETATM   30  N2  UNL     1      11.197  21.038   3.347  1.00  0.00    -0.293 N 
HETATM   31  N3  UNL     1      11.918  21.803   4.129  1.00  0.00    -0.232 N 
ATOM     32  H2  UNL     1      10.219  20.799   3.506  1.00  0.00     0.187 HD
HETATM   33  N10 UNL     1      13.124  21.874   3.587  1.00  0.00    -0.286 N 
ATOM     34  H10 UNL     1      13.902  22.404   3.979  1.00  0.00     0.188 HD
BRANCH  31  35
HETATM   35  C8  UNL     1      11.545  22.463   5.357  1.00  0.00     0.206 C 
BRANCH  35  36
HETATM   36  C9  UNL     1      11.757  21.529   6.525  1.00  0.00     0.223 C 
BRANCH  36  37
HETATM   37  C10 UNL     1      12.765  22.048   7.455  1.00  0.00     0.258 C 
HETATM   38  N4  UNL     1      13.208  21.227   8.527  1.00  0.00    -0.060 NA
HETATM   39  O2  UNL     1      13.292  23.199   7.379  1.00  0.00    -0.274 OA
ENDBRANCH  36  37
BRANCH  36  40
HETATM   40  N5  UNL     1      10.506  21.210   7.193  1.00  0.00    -0.223 N 
HETATM   41  N6  UNL     1      10.174  21.667   8.391  1.00  0.00    -0.244 N 
HETATM   42  C11 UNL     1       8.965  21.195   8.722  1.00  0.00     0.345 A 
ATOM     43  H6  UNL     1      10.748  22.281   8.969  1.00  0.00     0.192 HD
HETATM   44  O3  UNL     1       8.320  21.420   9.802  1.00  0.00    -0.245 OA
HETATM   45  N7  UNL     1       8.542  20.432   7.713  1.00  0.00    -0.245 N 
HETATM   46  C14 UNL     1       9.502  20.448   6.771  1.00  0.00     0.348 A 
HETATM   47  O4  UNL     1       9.461  19.837   5.661  1.00  0.00    -0.245 OA
BRANCH  45  48
HETATM   48  C12 UNL     1       7.274  19.700   7.615  1.00  0.00     0.200 C 
BRANCH  48  49
HETATM   49  C13 UNL     1       7.193  18.645   8.682  1.00  0.00     0.396 C 
BRANCH  49  50
HETATM   50  N8  UNL     1       5.855  18.058   8.583  1.00  0.00    -0.049 N 
ATOM     51  H83 UNL     1       5.151  18.561   9.122  1.00  0.00     0.276 HD
ATOM     52  H82 UNL     1       5.426  18.184   7.666  1.00  0.00     0.276 HD
ATOM     53  H81 UNL     1       5.949  17.079   8.854  1.00  0.00     0.276 HD
ENDBRANCH  49  50
BRANCH  49  54
HETATM   54  N9  UNL     1       8.184  17.627   8.359  1.00  0.00    -0.049 N 
ATOM     55  H93 UNL     1       8.564  17.725   7.418  1.00  0.00     0.276 HD
ATOM     56  H92 UNL     1       9.059  17.747   8.868  1.00  0.00     0.276 HD
ATOM     57  H91 UNL     1       7.748  16.720   8.522  1.00  0.00     0.276 HD
ENDBRANCH  49  54
ENDBRANCH  48  49
ENDBRANCH  45  48
ENDBRANCH  36  40
ENDBRANCH  35  36
ENDBRANCH  31  35
ENDBRANCH   1  28
BRANCH   1  58
HETATM   58  C15 UNL     1      14.514  22.283   0.769  1.00  0.00     0.270 C 
BRANCH  58  59
HETATM   59  O5  UNL     1      14.275  23.377   1.544  1.00  0.00    -0.370 OA
ATOM     60  H5  UNL     1      13.655  23.996   1.176  1.00  0.00     0.212 HD
ENDBRANCH  58  59
BRANCH  58  61
HETATM   61  O6  UNL     1      15.793  22.369   0.233  1.00  0.00    -0.370 OA
ATOM     62  H6  UNL     1      15.980  23.267  -0.013  1.00  0.00     0.212 HD
ENDBRANCH  58  61
ENDBRANCH   1  58
TORSDOF 17
ENDMDL
MODEL 3
REMARK VINA RESULT: -8.851936314      1.413      1.893
REMARK  17 active torsions:
REMARK  status: ('A' for Active; 'I' for Inactive)
REMARK    1  A    between atoms: S1_2  and  C2_3 
REMARK    2  A    between atoms: C4_8  and  C5_9 
REMARK    3  A    between atoms: C5_9  and  C6_10 
REMARK    4  A    between atoms: C5_9  and  C15_40 
REMARK    5  A    between atoms: N3_14  and  C8_15 
REMARK    6  A    between atoms: C8_15  and  C9_16 
REMARK    7  A    between atoms: C9_16  and  C10_17 
REMARK    8  A    between atoms: C9_16  and  N5_20 
REMARK    9  A    between atoms: N7_25  and  C12_26 
REMARK   10  A    between atoms: C12_26  and  C13_27 
REMARK   11  A    between atoms: C13_27  and  N8_28 
REMARK   12  A    between atoms: C13_27  and  N9_32 
REMARK   13  A    between atoms: C15_40  and  O5_41 
REMARK   14  A    between atoms: C15_40  and  O6_43 
REMARK   15  A    between atoms: N11_45  and  C16_46 
REMARK   16  A    between atoms: C19_49  and  N12_50 
REMARK   17  A    between atoms: C26_60  and  O7_61 
ROOT
HETATM    1  C5  UNL     1      15.136  20.537   0.834  1.00  0.00     0.149 C 
ENDROOT
BRANCH   1   2
HETATM    2  C4  UNL     1      15.991  19.597   1.538  1.00  0.00     0.102 C 
HETATM    3  C3  UNL     1      16.750  19.997   2.703  1.00  0.00     0.271 C 
HETATM    4  N1  UNL     1      17.665  18.941   2.917  1.00  0.00    -0.302 N 
HETATM    5  O1  UNL     1      16.720  21.001   3.443  1.00  0.00    -0.266 OA
HETATM    6  C2  UNL     1      17.731  18.148   1.828  1.00  0.00     0.154 C 
ATOM      7  H1  UNL     1      18.199  18.798   3.774  1.00  0.00     0.171 HD
HETATM    8  N11 UNL     1      16.847  18.680   0.847  1.00  0.00    -0.287 N 
BRANCH   6   9
HETATM    9  S1  UNL     1      18.804  16.743   1.823  1.00  0.00    -0.098 SA
HETATM   10  C1  UNL     1      19.993  16.665   0.522  1.00  0.00     0.099 C 
ENDBRANCH   6   9
BRANCH   8  11
HETATM   11  C16 UNL     1      16.802  18.296  -0.521  1.00  0.00     0.075 A 
HETATM   12  C17 UNL     1      16.065  17.220  -0.917  1.00  0.00     0.035 A 
HETATM   13  C18 UNL     1      16.021  16.741  -2.227  1.00  0.00     0.032 A 
HETATM   14  C19 UNL     1      16.770  17.398  -3.176  1.00  0.00     0.033 A 
HETATM   15  C25 UNL     1      17.536  18.506  -2.803  1.00  0.00     0.068 A 
HETATM   16  C26 UNL     1      17.560  18.956  -1.500  1.00  0.00     0.095 A 
BRANCH  14  17
HETATM   17  N12 UNL     1      16.767  16.929  -4.525  1.00  0.00    -0.379 N 
HETATM   18  C20 UNL     1      15.532  17.117  -5.285  1.00  0.00     0.124 C 
HETATM   19  C21 UNL     1      15.551  16.139  -6.450  1.00  0.00     0.047 C 
HETATM   20  C22 UNL     1      15.745  14.719  -5.960  1.00  0.00     0.234 C 
HETATM   21  N13 UNL     1      17.108  14.275  -5.974  1.00  0.00    -0.074 N 
HETATM   22  C23 UNL     1      17.916  14.816  -4.898  1.00  0.00     0.252 C 
ATOM     23 2H13 UNL     1      17.154  13.256  -5.979  1.00  0.00     0.277 HD
ATOM     24 1H13 UNL     1      17.539  14.470  -6.878  1.00  0.00     0.277 HD
HETATM   25  C24 UNL     1      17.975  16.319  -5.032  1.00  0.00     0.150 C 
ENDBRANCH  14  17
BRANCH  16  26
HETATM   26  O7  UNL     1      18.325  20.053  -1.164  1.00  0.00    -0.358 OA
ATOM     27  H7  UNL     1      18.922  20.012  -0.426  1.00  0.00     0.217 HD
ENDBRANCH  16  26
ENDBRANCH   8  11
ENDBRANCH   1   2
BRANCH   1  28
HETATM   28  C6  UNL     1      13.781  20.633   1.527  1.00  0.00     0.059 A 
HETATM   29  C7  UNL     1      12.710  19.812   1.212  1.00  0.00     0.136 A 
HETATM   30  N2  UNL     1      11.706  20.175   2.021  1.00  0.00    -0.293 N 
HETATM   31  N3  UNL     1      12.087  21.153   2.805  1.00  0.00    -0.232 N 
ATOM     32  H2  UNL     1      10.779  19.751   2.025  1.00  0.00     0.187 HD
HETATM   33  N10 UNL     1      13.347  21.422   2.495  1.00  0.00    -0.286 N 
ATOM     34  H10 UNL     1      13.910  22.143   2.945  1.00  0.00     0.188 HD
BRANCH  31  35
HETATM   35  C8  UNL     1      11.344  21.845   3.830  1.00  0.00     0.206 C 
BRANCH  35  36
HETATM   36  C9  UNL     1      11.865  21.450   5.192  1.00  0.00     0.223 C 
BRANCH  36  37
HETATM   37  C10 UNL     1      12.956  22.329   5.627  1.00  0.00     0.258 C 
HETATM   38  N4  UNL     1      14.298  21.876   5.512  1.00  0.00    -0.060 NA
HETATM   39  O2  UNL     1      12.799  23.491   6.109  1.00  0.00    -0.274 OA
ENDBRANCH  36  37
BRANCH  36  40
HETATM   40  N5  UNL     1      10.797  21.372   6.175  1.00  0.00    -0.223 N 
HETATM   41  N6  UNL     1      10.868  21.911   7.383  1.00  0.00    -0.244 N 
HETATM   42  C11 UNL     1       9.728  21.666   8.041  1.00  0.00     0.345 A 
ATOM     43  H6  UNL     1      11.665  22.429   7.754  1.00  0.00     0.192 HD
HETATM   44  O3  UNL     1       9.432  22.028   9.231  1.00  0.00    -0.245 OA
HETATM   45  N7  UNL     1       8.937  20.966   7.227  1.00  0.00    -0.245 N 
HETATM   46  C14 UNL     1       9.608  20.788   6.075  1.00  0.00     0.348 A 
HETATM   47  O4  UNL     1       9.180  20.167   5.057  1.00  0.00    -0.245 OA
BRANCH  45  48
HETATM   48  C12 UNL     1       7.586  20.464   7.504  1.00  0.00     0.200 C 
BRANCH  48  49
HETATM   49  C13 UNL     1       7.591  19.583   8.722  1.00  0.00     0.396 C 
BRANCH  49  50
HETATM   50  N8  UNL     1       7.036  20.384   9.814  1.00  0.00    -0.049 N 
ATOM     51  H83 UNL     1       7.726  20.635  10.522  1.00  0.00     0.276 HD
ATOM     52  H82 UNL     1       6.792  21.334   9.535  1.00  0.00     0.276 HD
ATOM     53  H81 UNL     1       6.248  19.856  10.187  1.00  0.00     0.276 HD
ENDBRANCH  49  50
BRANCH  49  54
HETATM   54  N9  UNL     1       6.696  18.466   8.449  1.00  0.00    -0.049 N 
ATOM     55  H93 UNL     1       6.358  18.451   7.487  1.00  0.00     0.276 HD
ATOM     56  H92 UNL     1       7.175  17.566   8.434  1.00  0.00     0.276 HD
ATOM     57  H91 UNL     1       5.944  18.508   9.137  1.00  0.00     0.276 HD
ENDBRANCH  49  54
ENDBRANCH  48  49
ENDBRANCH  45  48
ENDBRANCH  36  40
ENDBRANCH  35  36
ENDBRANCH  31  35
ENDBRANCH   1  28
BRANCH   1  58
HETATM   58  C15 UNL     1      15.668  21.996   0.839  1.00  0.00     0.270 C 
BRANCH  58  59
HETATM   59  O5  UNL     1      16.516  22.294  -0.185  1.00  0.00    -0.370 OA
ATOM     60  H5  UNL     1      16.771  23.208  -0.235  1.00  0.00     0.212 HD
ENDBRANCH  58  59
BRANCH  58  61
HETATM   61  O6  UNL     1      14.602  22.887   0.827  1.00  0.00    -0.370 OA
ATOM     62  H6  UNL     1      14.441  23.208   1.707  1.00  0.00     0.212 HD
ENDBRANCH  58  61
ENDBRANCH   1  58
TORSDOF 17
ENDMDL
MODEL 4
REMARK VINA RESULT: -8.772861813      1.651      2.283
REMARK  17 active torsions:
REMARK  status: ('A' for Active; 'I' for Inactive)
REMARK    1  A    between atoms: S1_2  and  C2_3 
REMARK    2  A    between atoms: C4_8  and  C5_9 
REMARK    3  A    between atoms: C5_9  and  C6_10 
REMARK    4  A    between atoms: C5_9  and  C15_40 
REMARK    5  A    between atoms: N3_14  and  C8_15 
REMARK    6  A    between atoms: C8_15  and  C9_16 
REMARK    7  A    between atoms: C9_16  and  C10_17 
REMARK    8  A    between atoms: C9_16  and  N5_20 
REMARK    9  A    between atoms: N7_25  and  C12_26 
REMARK   10  A    between atoms: C12_26  and  C13_27 
REMARK   11  A    between atoms: C13_27  and  N8_28 
REMARK   12  A    between atoms: C13_27  and  N9_32 
REMARK   13  A    between atoms: C15_40  and  O5_41 
REMARK   14  A    between atoms: C15_40  and  O6_43 
REMARK   15  A    between atoms: N11_45  and  C16_46 
REMARK   16  A    between atoms: C19_49  and  N12_50 
REMARK   17  A    between atoms: C26_60  and  O7_61 
ROOT
HETATM    1  C5  UNL     1      15.647  20.423   1.060  1.00  0.00     0.149 C 
ENDROOT
BRANCH   1   2
HETATM    2  C4  UNL     1      16.619  19.818   1.955  1.00  0.00     0.102 C 
HETATM    3  C3  UNL     1      17.327  20.606   2.940  1.00  0.00     0.271 C 
HETATM    4  N1  UNL     1      18.370  19.766   3.392  1.00  0.00    -0.302 N 
HETATM    5  O1  UNL     1      17.172  21.761   3.387  1.00  0.00    -0.266 OA
HETATM    6  C2  UNL     1      18.530  18.723   2.552  1.00  0.00     0.154 C 
ATOM      7  H1  UNL     1      18.922  19.925   4.234  1.00  0.00     0.171 HD
HETATM    8  N11 UNL     1      17.581  18.860   1.500  1.00  0.00    -0.287 N 
BRANCH   6   9
HETATM    9  S1  UNL     1      19.774  17.510   2.880  1.00  0.00    -0.098 SA
HETATM   10  C1  UNL     1      21.217  18.070   3.725  1.00  0.00     0.099 C 
ENDBRANCH   6   9
BRANCH   8  11
HETATM   11  C16 UNL     1      17.578  18.119   0.287  1.00  0.00     0.075 A 
HETATM   12  C17 UNL     1      17.125  16.834   0.258  1.00  0.00     0.035 A 
HETATM   13  C18 UNL     1      17.150  16.021  -0.876  1.00  0.00     0.032 A 
HETATM   14  C19 UNL     1      17.665  16.552  -2.035  1.00  0.00     0.033 A 
HETATM   15  C25 UNL     1      18.137  17.868  -2.040  1.00  0.00     0.068 A 
HETATM   16  C26 UNL     1      18.099  18.647  -0.904  1.00  0.00     0.095 A 
BRANCH  14  17
HETATM   17  N12 UNL     1      17.725  15.747  -3.213  1.00  0.00    -0.379 N 
HETATM   18  C20 UNL     1      18.935  14.947  -3.403  1.00  0.00     0.124 C 
HETATM   19  C21 UNL     1      19.029  14.592  -4.880  1.00  0.00     0.047 C 
HETATM   20  C22 UNL     1      18.994  15.840  -5.737  1.00  0.00     0.234 C 
HETATM   21  N13 UNL     1      17.688  16.178  -6.225  1.00  0.00    -0.074 N 
HETATM   22  C23 UNL     1      16.821  16.773  -5.226  1.00  0.00     0.252 C 
ATOM     23 2H13 UNL     1      17.757  16.782  -7.044  1.00  0.00     0.277 HD
ATOM     24 1H13 UNL     1      17.243  15.365  -6.648  1.00  0.00     0.277 HD
HETATM   25  C24 UNL     1      16.595  15.778  -4.113  1.00  0.00     0.150 C 
ENDBRANCH  14  17
BRANCH  16  26
HETATM   26  O7  UNL     1      18.572  19.942  -0.941  1.00  0.00    -0.358 OA
ATOM     27  H7  UNL     1      19.471  20.131  -0.698  1.00  0.00     0.217 HD
ENDBRANCH  16  26
ENDBRANCH   8  11
ENDBRANCH   1   2
BRANCH   1  28
HETATM   28  C6  UNL     1      14.258  20.378   1.688  1.00  0.00     0.059 A 
HETATM   29  C7  UNL     1      13.428  19.272   1.609  1.00  0.00     0.136 A 
HETATM   30  N2  UNL     1      12.310  19.592   2.275  1.00  0.00    -0.293 N 
HETATM   31  N3  UNL     1      12.400  20.808   2.753  1.00  0.00    -0.232 N 
ATOM     32  H2  UNL     1      11.505  18.977   2.393  1.00  0.00     0.187 HD
HETATM   33  N10 UNL     1      13.586  21.274   2.389  1.00  0.00    -0.286 N 
ATOM     34  H10 UNL     1      13.935  22.204   2.621  1.00  0.00     0.188 HD
BRANCH  31  35
HETATM   35  C8  UNL     1      11.445  21.555   3.536  1.00  0.00     0.206 C 
BRANCH  35  36
HETATM   36  C9  UNL     1      11.723  21.355   5.007  1.00  0.00     0.223 C 
BRANCH  36  37
HETATM   37  C10 UNL     1      12.687  22.339   5.512  1.00  0.00     0.258 C 
HETATM   38  N4  UNL     1      14.053  21.971   5.636  1.00  0.00    -0.060 NA
HETATM   39  O2  UNL     1      12.395  23.524   5.856  1.00  0.00    -0.274 OA
ENDBRANCH  36  37
BRANCH  36  40
HETATM   40  N5  UNL     1      10.498  21.334   5.788  1.00  0.00    -0.223 N 
HETATM   41  N6  UNL     1       9.285  21.381   5.257  1.00  0.00    -0.244 N 
HETATM   42  C11 UNL     1       8.374  21.343   6.238  1.00  0.00     0.345 A 
ATOM     43  H6  UNL     1       9.078  21.438   4.260  1.00  0.00     0.192 HD
HETATM   44  O3  UNL     1       7.103  21.370   6.109  1.00  0.00    -0.245 OA
HETATM   45  N7  UNL     1       9.033  21.270   7.395  1.00  0.00    -0.245 N 
HETATM   46  C14 UNL     1      10.346  21.266   7.107  1.00  0.00     0.348 A 
HETATM   47  O4  UNL     1      11.290  21.206   7.951  1.00  0.00    -0.245 OA
BRANCH  45  48
HETATM   48  C12 UNL     1       8.464  21.207   8.747  1.00  0.00     0.200 C 
BRANCH  48  49
HETATM   49  C13 UNL     1       7.677  19.940   8.928  1.00  0.00     0.396 C 
BRANCH  49  50
HETATM   50  N8  UNL     1       8.640  18.907   9.317  1.00  0.00    -0.049 N 
ATOM     51  H83 UNL     1       9.148  18.509   8.527  1.00  0.00     0.276 HD
ATOM     52  H82 UNL     1       9.449  19.277   9.814  1.00  0.00     0.276 HD
ATOM     53  H81 UNL     1       8.117  18.213   9.852  1.00  0.00     0.276 HD
ENDBRANCH  49  50
BRANCH  49  54
HETATM   54  N9  UNL     1       6.748  20.162  10.027  1.00  0.00    -0.049 N 
ATOM     55  H93 UNL     1       5.875  20.598   9.730  1.00  0.00     0.276 HD
ATOM     56  H92 UNL     1       6.347  19.298  10.392  1.00  0.00     0.276 HD
ATOM     57  H91 UNL     1       7.244  20.703  10.736  1.00  0.00     0.276 HD
ENDBRANCH  49  54
ENDBRANCH  48  49
ENDBRANCH  45  48
ENDBRANCH  36  40
ENDBRANCH  35  36
ENDBRANCH  31  35
ENDBRANCH   1  28
BRANCH   1  58
HETATM   58  C15 UNL     1      15.894  21.932   0.792  1.00  0.00     0.270 C 
BRANCH  58  59
HETATM   59  O5  UNL     1      16.685  22.196  -0.284  1.00  0.00    -0.370 OA
ATOM     60  H5  UNL     1      17.617  22.205  -0.098  1.00  0.00     0.212 HD
ENDBRANCH  58  59
BRANCH  58  61
HETATM   61  O6  UNL     1      14.679  22.589   0.642  1.00  0.00    -0.370 OA
ATOM     62  H6  UNL     1      14.823  23.527   0.584  1.00  0.00     0.212 HD
ENDBRANCH  58  61
ENDBRANCH   1  58
TORSDOF 17
ENDMDL
MODEL 5
REMARK VINA RESULT: -8.761157541      2.016      2.975
REMARK  17 active torsions:
REMARK  status: ('A' for Active; 'I' for Inactive)
REMARK    1  A    between atoms: S1_2  and  C2_3 
REMARK    2  A    between atoms: C4_8  and  C5_9 
REMARK    3  A    between atoms: C5_9  and  C6_10 
REMARK    4  A    between atoms: C5_9  and  C15_40 
REMARK    5  A    between atoms: N3_14  and  C8_15 
REMARK    6  A    between atoms: C8_15  and  C9_16 
REMARK    7  A    between atoms: C9_16  and  C10_17 
REMARK    8  A    between atoms: C9_16  and  N5_20 
REMARK    9  A    between atoms: N7_25  and  C12_26 
REMARK   10  A    between atoms: C12_26  and  C13_27 
REMARK   11  A    between atoms: C13_27  and  N8_28 
REMARK   12  A    between atoms: C13_27  and  N9_32 
REMARK   13  A    between atoms: C15_40  and  O5_41 
REMARK   14  A    between atoms: C15_40  and  O6_43 
REMARK   15  A    between atoms: N11_45  and  C16_46 
REMARK   16  A    between atoms: C19_49  and  N12_50 
REMARK   17  A    between atoms: C26_60  and  O7_61 
ROOT
HETATM    1  C5  UNL     1      19.068  19.964   1.942  1.00  0.00     0.149 C 
ENDROOT
BRANCH   1   2
HETATM    2  C4  UNL     1      19.273  18.604   2.412  1.00  0.00     0.102 C 
HETATM    3  C3  UNL     1      20.453  18.238   3.163  1.00  0.00     0.271 C 
HETATM    4  N1  UNL     1      20.449  16.824   3.174  1.00  0.00    -0.302 N 
HETATM    5  O1  UNL     1      21.351  18.897   3.726  1.00  0.00    -0.266 OA
HETATM    6  C2  UNL     1      19.590  16.350   2.249  1.00  0.00     0.154 C 
ATOM      7  H1  UNL     1      21.016  16.245   3.793  1.00  0.00     0.171 HD
HETATM    8  N11 UNL     1      19.001  17.465   1.588  1.00  0.00    -0.287 N 
BRANCH   6   9
HETATM    9  S1  UNL     1      19.387  14.606   2.046  1.00  0.00    -0.098 SA
HETATM   10  C1  UNL     1      17.755  13.972   2.263  1.00  0.00     0.099 C 
ENDBRANCH   6   9
BRANCH   8  11
HETATM   11  C16 UNL     1      18.237  17.407   0.391  1.00  0.00     0.075 A 
HETATM   12  C17 UNL     1      18.833  17.580  -0.823  1.00  0.00     0.035 A 
HETATM   13  C18 UNL     1      18.144  17.603  -2.037  1.00  0.00     0.032 A 
HETATM   14  C19 UNL     1      16.779  17.440  -2.003  1.00  0.00     0.033 A 
HETATM   15  C25 UNL     1      16.137  17.258  -0.774  1.00  0.00     0.068 A 
HETATM   16  C26 UNL     1      16.844  17.241   0.409  1.00  0.00     0.095 A 
BRANCH  14  17
HETATM   17  N12 UNL     1      16.034  17.475  -3.221  1.00  0.00    -0.379 N 
HETATM   18  C20 UNL     1      14.789  16.709  -3.253  1.00  0.00     0.124 C 
HETATM   19  C21 UNL     1      14.436  16.459  -4.712  1.00  0.00     0.047 C 
HETATM   20  C22 UNL     1      15.581  15.778  -5.434  1.00  0.00     0.234 C 
HETATM   21  N13 UNL     1      16.455  16.679  -6.127  1.00  0.00    -0.074 N 
HETATM   22  C23 UNL     1      17.362  17.405  -5.259  1.00  0.00     0.252 C 
ATOM     23 2H13 UNL     1      16.973  16.187  -6.855  1.00  0.00     0.277 HD
ATOM     24 1H13 UNL     1      15.918  17.325  -6.705  1.00  0.00     0.277 HD
HETATM   25  C24 UNL     1      16.558  18.264  -4.312  1.00  0.00     0.150 C 
ENDBRANCH  14  17
BRANCH  16  26
HETATM   26  O7  UNL     1      16.182  17.059   1.605  1.00  0.00    -0.358 OA
ATOM     27  H7  UNL     1      15.422  16.491   1.650  1.00  0.00     0.217 HD
ENDBRANCH  16  26
ENDBRANCH   8  11
ENDBRANCH   1   2
BRANCH   1  28
HETATM   28  C6  UNL     1      17.575  20.270   1.859  1.00  0.00     0.059 A 
HETATM   29  C7  UNL     1      16.991  20.893   0.769  1.00  0.00     0.136 A 
HETATM   30  N2  UNL     1      15.683  20.985   1.044  1.00  0.00    -0.293 N 
HETATM   31  N3  UNL     1      15.430  20.463   2.219  1.00  0.00    -0.232 N 
ATOM     32  H2  UNL     1      14.985  21.402   0.429  1.00  0.00     0.187 HD
HETATM   33  N10 UNL     1      16.586  20.033   2.703  1.00  0.00    -0.286 N 
ATOM     34  H10 UNL     1      16.698  19.579   3.609  1.00  0.00     0.188 HD
BRANCH  31  35
HETATM   35  C8  UNL     1      14.170  20.336   2.910  1.00  0.00     0.206 C 
BRANCH  35  36
HETATM   36  C9  UNL     1      13.914  21.574   3.738  1.00  0.00     0.223 C 
BRANCH  36  37
HETATM   37  C10 UNL     1      14.165  22.798   2.968  1.00  0.00     0.258 C 
HETATM   38  N4  UNL     1      13.113  23.357   2.194  1.00  0.00    -0.060 NA
HETATM   39  O2  UNL     1      15.271  23.417   2.936  1.00  0.00    -0.274 OA
ENDBRANCH  36  37
BRANCH  36  40
HETATM   40  N5  UNL     1      12.589  21.560   4.332  1.00  0.00    -0.223 N 
HETATM   41  N6  UNL     1      11.554  20.920   3.809  1.00  0.00    -0.244 N 
HETATM   42  C11 UNL     1      10.483  21.100   4.593  1.00  0.00     0.345 A 
ATOM     43  H6  UNL     1      11.570  20.376   2.946  1.00  0.00     0.192 HD
HETATM   44  O3  UNL     1       9.307  20.634   4.409  1.00  0.00    -0.245 OA
HETATM   45  N7  UNL     1      10.861  21.864   5.619  1.00  0.00    -0.245 N 
HETATM   46  C14 UNL     1      12.165  22.144   5.449  1.00  0.00     0.348 A 
HETATM   47  O4  UNL     1      12.879  22.849   6.224  1.00  0.00    -0.245 OA
BRANCH  45  48
HETATM   48  C12 UNL     1      10.036  22.331   6.739  1.00  0.00     0.200 C 
BRANCH  48  49
HETATM   49  C13 UNL     1      10.300  21.505   7.967  1.00  0.00     0.396 C 
BRANCH  49  50
HETATM   50  N8  UNL     1      11.042  22.365   8.892  1.00  0.00    -0.049 N 
ATOM     51  H83 UNL     1      11.922  22.708   8.507  1.00  0.00     0.276 HD
ATOM     52  H82 UNL     1      10.605  23.275   9.036  1.00  0.00     0.276 HD
ATOM     53  H81 UNL     1      11.157  21.830   9.752  1.00  0.00     0.276 HD
ENDBRANCH  49  50
BRANCH  49  54
HETATM   54  N9  UNL     1       9.008  21.180   8.554  1.00  0.00    -0.049 N 
ATOM     55  H93 UNL     1       9.063  20.448   9.262  1.00  0.00     0.276 HD
ATOM     56  H92 UNL     1       8.645  21.918   9.157  1.00  0.00     0.276 HD
ATOM     57  H91 UNL     1       8.378  20.946   7.786  1.00  0.00     0.276 HD
ENDBRANCH  49  54
ENDBRANCH  48  49
ENDBRANCH  45  48
ENDBRANCH  36  40
ENDBRANCH  35  36
ENDBRANCH  31  35
ENDBRANCH   1  28
BRANCH   1  58
HETATM   58  C15 UNL     1      19.625  21.051   2.901  1.00  0.00     0.270 C 
BRANCH  58  59
HETATM   59  O5  UNL     1      19.837  22.265   2.322  1.00  0.00    -0.370 OA
ATOM     60  H5  UNL     1      19.799  23.002   2.920  1.00  0.00     0.212 HD
ENDBRANCH  58  59
BRANCH  58  61
HETATM   61  O6  UNL     1      18.772  21.202   3.988  1.00  0.00    -0.370 OA
ATOM     62  H6  UNL     1      19.076  21.913   4.541  1.00  0.00     0.212 HD
ENDBRANCH  58  61
ENDBRANCH   1  58
TORSDOF 17
ENDMDL
