MODEL 1
REMARK VINA RESULT: -6.810048627      0.000      0.000
REMARK  5 active torsions:
REMARK  status: ('A' for Active; 'I' for Inactive)
REMARK    1  A    between atoms: N1_2  and  C2_4 
REMARK    2  A    between atoms: C4_8  and  N3_9 
REMARK    3  A    between atoms: N6_20  and  C8_21 
REMARK    4  A    between atoms: C8_21  and  C9_22 
REMARK       I    between atoms: C9_22  and  N7_24 
REMARK    5  A    between atoms: N7_24  and  N8_26 
ROOT
HETATM    1  C2  UNL     1      17.983  68.047  33.314  1.00  0.00     0.138 A 
HETATM    2  C3  UNL     1      17.031  68.824  32.655  1.00  0.00     0.125 A 
HETATM    3  N2  UNL     1      17.199  69.392  31.473  1.00  0.00    -0.186 N 
ATOM      4  H2  UNL     1      18.089  69.263  30.990  1.00  0.00     0.184 HD
HETATM    5  C4  UNL     1      16.236  70.141  30.877  1.00  0.00     0.679 A 
HETATM    6  N4  UNL     1      15.047  70.346  31.464  1.00  0.00    -0.154 N 
ATOM      7  H4  UNL     1      14.325  70.909  31.013  1.00  0.00     0.187 HD
HETATM    8  C5  UNL     1      14.844  69.789  32.655  1.00  0.00     0.288 A 
HETATM    9  O1  UNL     1      13.743  69.945  33.263  1.00  0.00    -0.265 OA
HETATM   10  C6  UNL     1      15.823  69.014  33.288  1.00  0.00     0.133 A 
HETATM   11  N5  UNL     1      15.543  68.485  34.490  1.00  0.00    -0.346 N 
ATOM     12  H5  UNL     1      14.638  68.645  34.932  1.00  0.00     0.167 HD
HETATM   13  C7  UNL     1      16.481  67.741  35.097  1.00  0.00     0.185 A 
HETATM   14  N6  UNL     1      17.657  67.521  34.549  1.00  0.00    -0.319 N 
ENDROOT
BRANCH  14  15
HETATM   15  C8  UNL     1      18.640  66.728  35.211  1.00  0.00     0.235 C 
BRANCH  15  16
HETATM   16  C9  UNL     1      19.326  67.432  36.323  1.00  0.00     0.253 C 
HETATM   17  O2  UNL     1      19.088  67.212  37.533  1.00  0.00    -0.270 OA
HETATM   18  N7  UNL     1      20.297  68.401  35.983  1.00  0.00    -0.275 N 
ATOM     19  H7  UNL     1      20.510  68.600  35.006  1.00  0.00     0.189 HD
BRANCH  18  20
HETATM   20  N8  UNL     1      20.959  69.081  37.004  1.00  0.00    -0.343 N 
ATOM     21  H82 UNL     1      21.591  68.571  37.621  1.00  0.00     0.176 HD
ATOM     22  H81 UNL     1      20.797  70.081  37.116  1.00  0.00     0.176 HD
ENDBRANCH  18  20
ENDBRANCH  15  16
ENDBRANCH  14  15
BRANCH   1  23
HETATM   23  N1  UNL     1      19.076  67.826  32.834  1.00  0.00    -0.360 N 
HETATM   24  C1  UNL     1      19.898  67.104  32.033  1.00  0.00     0.120 C 
ATOM     25  H1  UNL     1      19.679  68.544  33.236  1.00  0.00     0.165 HD
ENDBRANCH   1  23
BRANCH   5  26
HETATM   26  N3  UNL     1      16.500  70.658  29.709  1.00  0.00    -0.234 N 
ATOM     27  H32 UNL     1      16.173  70.206  28.854  1.00  0.00     0.174 HD
ATOM     28  H31 UNL     1      17.041  71.522  29.680  1.00  0.00     0.174 HD
ENDBRANCH   5  26
TORSDOF 5
ENDMDL
MODEL 2
REMARK VINA RESULT: -6.479251792      1.428      2.738
REMARK  5 active torsions:
REMARK  status: ('A' for Active; 'I' for Inactive)
REMARK    1  A    between atoms: N1_2  and  C2_4 
REMARK    2  A    between atoms: C4_8  and  N3_9 
REMARK    3  A    between atoms: N6_20  and  C8_21 
REMARK    4  A    between atoms: C8_21  and  C9_22 
REMARK       I    between atoms: C9_22  and  N7_24 
REMARK    5  A    between atoms: N7_24  and  N8_26 
ROOT
HETATM    1  C2  UNL     1      16.699  68.163  34.092  1.00  0.00     0.138 A 
HETATM    2  C3  UNL     1      16.050  69.064  33.249  1.00  0.00     0.125 A 
HETATM    3  N2  UNL     1      14.844  69.567  33.457  1.00  0.00    -0.186 N 
ATOM      4  H2  UNL     1      14.334  69.285  34.295  1.00  0.00     0.184 HD
HETATM    5  C4  UNL     1      14.259  70.442  32.601  1.00  0.00     0.679 A 
HETATM    6  N4  UNL     1      14.881  70.849  31.484  1.00  0.00    -0.154 N 
ATOM      7  H4  UNL     1      14.438  71.508  30.842  1.00  0.00     0.187 HD
HETATM    8  C5  UNL     1      16.095  70.363  31.243  1.00  0.00     0.288 A 
HETATM    9  O1  UNL     1      16.736  70.706  30.205  1.00  0.00    -0.265 OA
HETATM   10  C6  UNL     1      16.717  69.458  32.112  1.00  0.00     0.133 A 
HETATM   11  N5  UNL     1      17.945  69.012  31.800  1.00  0.00    -0.346 N 
ATOM     12  H5  UNL     1      18.413  69.324  30.949  1.00  0.00     0.167 HD
HETATM   13  C7  UNL     1      18.543  68.146  32.632  1.00  0.00     0.185 A 
HETATM   14  N6  UNL     1      17.960  67.727  33.736  1.00  0.00    -0.319 N 
ENDROOT
BRANCH  14  15
HETATM   15  C8  UNL     1      18.613  66.805  34.607  1.00  0.00     0.235 C 
BRANCH  15  16
HETATM   16  C9  UNL     1      19.179  67.434  35.827  1.00  0.00     0.253 C 
HETATM   17  O2  UNL     1      18.718  67.252  36.977  1.00  0.00    -0.270 OA
HETATM   18  N7  UNL     1      20.298  68.282  35.665  1.00  0.00    -0.275 N 
ATOM     19  H7  UNL     1      20.693  68.448  34.740  1.00  0.00     0.189 HD
BRANCH  18  20
HETATM   20  N8  UNL     1      20.853  68.889  36.791  1.00  0.00    -0.343 N 
ATOM     21  H82 UNL     1      21.550  68.387  37.341  1.00  0.00     0.176 HD
ATOM     22  H81 UNL     1      20.550  69.829  37.044  1.00  0.00     0.176 HD
ENDBRANCH  18  20
ENDBRANCH  15  16
ENDBRANCH  14  15
BRANCH   1  23
HETATM   23  N1  UNL     1      16.188  67.758  35.116  1.00  0.00    -0.360 N 
HETATM   24  C1  UNL     1      15.265  67.008  35.768  1.00  0.00     0.120 C 
ATOM     25  H1  UNL     1      16.722  68.207  35.860  1.00  0.00     0.165 HD
ENDBRANCH   1  23
BRANCH   5  26
HETATM   26  N3  UNL     1      13.067  70.882  32.897  1.00  0.00    -0.234 N 
ATOM     27  H32 UNL     1      12.593  70.569  33.745  1.00  0.00     0.174 HD
ATOM     28  H31 UNL     1      12.628  71.542  32.255  1.00  0.00     0.174 HD
ENDBRANCH   5  26
TORSDOF 5
ENDMDL
MODEL 3
REMARK VINA RESULT: -6.359410358      2.493      6.060
REMARK  5 active torsions:
REMARK  status: ('A' for Active; 'I' for Inactive)
REMARK    1  A    between atoms: N1_2  and  C2_4 
REMARK    2  A    between atoms: C4_8  and  N3_9 
REMARK    3  A    between atoms: N6_20  and  C8_21 
REMARK    4  A    between atoms: C8_21  and  C9_22 
REMARK       I    between atoms: C9_22  and  N7_24 
REMARK    5  A    between atoms: N7_24  and  N8_26 
ROOT
HETATM    1  C2  UNL     1      15.933  67.163  35.160  1.00  0.00     0.138 A 
HETATM    2  C3  UNL     1      17.131  67.071  35.868  1.00  0.00     0.125 A 
HETATM    3  N2  UNL     1      18.291  67.564  35.466  1.00  0.00    -0.186 N 
ATOM      4  H2  UNL     1      18.332  68.053  34.572  1.00  0.00     0.184 HD
HETATM    5  C4  UNL     1      19.428  67.444  36.197  1.00  0.00     0.679 A 
HETATM    6  N4  UNL     1      19.437  66.811  37.380  1.00  0.00    -0.154 N 
ATOM      7  H4  UNL     1      20.294  66.723  37.927  1.00  0.00     0.187 HD
HETATM    8  C5  UNL     1      18.287  66.302  37.813  1.00  0.00     0.288 A 
HETATM    9  O1  UNL     1      18.226  65.692  38.923  1.00  0.00    -0.265 OA
HETATM   10  C6  UNL     1      17.102  66.413  37.077  1.00  0.00     0.133 A 
HETATM   11  N5  UNL     1      15.980  65.874  37.581  1.00  0.00    -0.346 N 
ATOM     12  H5  UNL     1      15.992  65.393  38.481  1.00  0.00     0.167 HD
HETATM   13  C7  UNL     1      14.843  65.980  36.876  1.00  0.00     0.185 A 
HETATM   14  N6  UNL     1      14.802  66.595  35.713  1.00  0.00    -0.319 N 
ENDROOT
BRANCH  14  15
HETATM   15  C8  UNL     1      13.583  66.697  34.978  1.00  0.00     0.235 C 
BRANCH  15  16
HETATM   16  C9  UNL     1      12.896  68.003  35.139  1.00  0.00     0.253 C 
HETATM   17  O2  UNL     1      12.971  68.932  34.302  1.00  0.00    -0.270 OA
HETATM   18  N7  UNL     1      12.120  68.194  36.304  1.00  0.00    -0.275 N 
ATOM     19  H7  UNL     1      12.043  67.454  37.002  1.00  0.00     0.189 HD
BRANCH  18  20
HETATM   20  N8  UNL     1      11.463  69.410  36.486  1.00  0.00    -0.343 N 
ATOM     21  H82 UNL     1      10.528  69.421  36.894  1.00  0.00     0.176 HD
ATOM     22  H81 UNL     1      11.932  70.271  36.205  1.00  0.00     0.176 HD
ENDBRANCH  18  20
ENDBRANCH  15  16
ENDBRANCH  14  15
BRANCH   1  23
HETATM   23  N1  UNL     1      15.863  67.723  34.085  1.00  0.00    -0.360 N 
HETATM   24  C1  UNL     1      16.136  67.787  32.758  1.00  0.00     0.120 C 
ATOM     25  H1  UNL     1      15.331  68.572  34.276  1.00  0.00     0.165 HD
ENDBRANCH   1  23
BRANCH   5  26
HETATM   26  N3  UNL     1      20.523  67.966  35.714  1.00  0.00    -0.234 N 
ATOM     27  H32 UNL     1      20.767  68.937  35.913  1.00  0.00     0.174 HD
ATOM     28  H31 UNL     1      21.119  67.375  35.135  1.00  0.00     0.174 HD
ENDBRANCH   5  26
TORSDOF 5
ENDMDL
MODEL 4
REMARK VINA RESULT: -6.331670010      1.857      5.627
REMARK  5 active torsions:
REMARK  status: ('A' for Active; 'I' for Inactive)
REMARK    1  A    between atoms: N1_2  and  C2_4 
REMARK    2  A    between atoms: C4_8  and  N3_9 
REMARK    3  A    between atoms: N6_20  and  C8_21 
REMARK    4  A    between atoms: C8_21  and  C9_22 
REMARK       I    between atoms: C9_22  and  N7_24 
REMARK    5  A    between atoms: N7_24  and  N8_26 
ROOT
HETATM    1  C2  UNL     1      16.178  68.541  33.311  1.00  0.00     0.138 A 
HETATM    2  C3  UNL     1      16.967  67.985  34.316  1.00  0.00     0.125 A 
HETATM    3  N2  UNL     1      18.288  68.034  34.360  1.00  0.00    -0.186 N 
ATOM      4  H2  UNL     1      18.786  68.512  33.608  1.00  0.00     0.184 HD
HETATM    5  C4  UNL     1      19.008  67.474  35.365  1.00  0.00     0.679 A 
HETATM    6  N4  UNL     1      18.410  66.832  36.380  1.00  0.00    -0.154 N 
ATOM      7  H4  UNL     1      18.954  66.412  37.134  1.00  0.00     0.187 HD
HETATM    8  C5  UNL     1      17.081  66.763  36.367  1.00  0.00     0.288 A 
HETATM    9  O1  UNL     1      16.454  66.169  37.296  1.00  0.00    -0.265 OA
HETATM   10  C6  UNL     1      16.319  67.333  35.341  1.00  0.00     0.133 A 
HETATM   11  N5  UNL     1      14.982  67.221  35.398  1.00  0.00    -0.346 N 
ATOM     12  H5  UNL     1      14.532  66.732  36.171  1.00  0.00     0.167 HD
HETATM   13  C7  UNL     1      14.250  67.768  34.415  1.00  0.00     0.185 A 
HETATM   14  N6  UNL     1      14.806  68.404  33.406  1.00  0.00    -0.319 N 
ENDROOT
BRANCH  14  15
HETATM   15  C8  UNL     1      14.010  68.979  32.370  1.00  0.00     0.235 C 
BRANCH  15  16
HETATM   16  C9  UNL     1      13.614  70.385  32.632  1.00  0.00     0.253 C 
HETATM   17  O2  UNL     1      14.351  71.368  32.387  1.00  0.00    -0.270 OA
HETATM   18  N7  UNL     1      12.335  70.612  33.186  1.00  0.00    -0.275 N 
ATOM     19  H7  UNL     1      11.715  69.830  33.395  1.00  0.00     0.189 HD
BRANCH  18  20
HETATM   20  N8  UNL     1      11.933  71.922  33.444  1.00  0.00    -0.343 N 
ATOM     21  H82 UNL     1      12.296  72.407  34.265  1.00  0.00     0.176 HD
ATOM     22  H81 UNL     1      11.281  72.373  32.803  1.00  0.00     0.176 HD
ENDBRANCH  18  20
ENDBRANCH  15  16
ENDBRANCH  14  15
BRANCH   1  23
HETATM   23  N1  UNL     1      16.660  69.134  32.367  1.00  0.00    -0.360 N 
HETATM   24  C1  UNL     1      17.296  69.144  31.170  1.00  0.00     0.120 C 
ATOM     25  H1  UNL     1      16.514  70.119  32.585  1.00  0.00     0.165 HD
ENDBRANCH   1  23
BRANCH   5  26
HETATM   26  N3  UNL     1      20.308  67.578  35.317  1.00  0.00    -0.234 N 
ATOM     27  H32 UNL     1      20.817  68.073  36.051  1.00  0.00     0.174 HD
ATOM     28  H31 UNL     1      20.793  67.153  34.527  1.00  0.00     0.174 HD
ENDBRANCH   5  26
TORSDOF 5
ENDMDL
MODEL 5
REMARK VINA RESULT: -6.316453214      4.108      6.272
REMARK  5 active torsions:
REMARK  status: ('A' for Active; 'I' for Inactive)
REMARK    1  A    between atoms: N1_2  and  C2_4 
REMARK    2  A    between atoms: C4_8  and  N3_9 
REMARK    3  A    between atoms: N6_20  and  C8_21 
REMARK    4  A    between atoms: C8_21  and  C9_22 
REMARK       I    between atoms: C9_22  and  N7_24 
REMARK    5  A    between atoms: N7_24  and  N8_26 
ROOT
HETATM    1  C2  UNL     1      16.209  66.152  37.221  1.00  0.00     0.138 A 
HETATM    2  C3  UNL     1      15.025  65.947  37.928  1.00  0.00     0.125 A 
HETATM    3  N2  UNL     1      13.853  66.475  37.617  1.00  0.00    -0.186 N 
ATOM      4  H2  UNL     1      13.790  67.082  36.800  1.00  0.00     0.184 HD
HETATM    5  C4  UNL     1      12.730  66.241  38.344  1.00  0.00     0.679 A 
HETATM    6  N4  UNL     1      12.750  65.452  39.429  1.00  0.00    -0.154 N 
ATOM      7  H4  UNL     1      11.905  65.278  39.973  1.00  0.00     0.187 HD
HETATM    8  C5  UNL     1      13.914  64.906  39.770  1.00  0.00     0.288 A 
HETATM    9  O1  UNL     1      14.002  64.151  40.785  1.00  0.00    -0.265 OA
HETATM   10  C6  UNL     1      15.084  65.133  39.037  1.00  0.00     0.133 A 
HETATM   11  N5  UNL     1      16.221  64.545  39.445  1.00  0.00    -0.346 N 
ATOM     12  H5  UNL     1      16.231  63.947  40.271  1.00  0.00     0.167 HD
HETATM   13  C7  UNL     1      17.343  64.762  38.741  1.00  0.00     0.185 A 
HETATM   14  N6  UNL     1      17.356  65.530  37.673  1.00  0.00    -0.319 N 
ENDROOT
BRANCH  14  15
HETATM   15  C8  UNL     1      18.560  65.748  36.939  1.00  0.00     0.235 C 
BRANCH  15  16
HETATM   16  C9  UNL     1      19.256  67.011  37.293  1.00  0.00     0.253 C 
HETATM   17  O2  UNL     1      19.224  67.520  38.437  1.00  0.00    -0.270 OA
HETATM   18  N7  UNL     1      19.987  67.662  36.275  1.00  0.00    -0.275 N 
ATOM     19  H7  UNL     1      20.028  67.270  35.334  1.00  0.00     0.189 HD
BRANCH  18  20
HETATM   20  N8  UNL     1      20.650  68.851  36.575  1.00  0.00    -0.343 N 
ATOM     21  H82 UNL     1      21.509  69.088  36.078  1.00  0.00     0.176 HD
ATOM     22  H81 UNL     1      20.262  69.465  37.291  1.00  0.00     0.176 HD
ENDBRANCH  18  20
ENDBRANCH  15  16
ENDBRANCH  14  15
BRANCH   1  23
HETATM   23  N1  UNL     1      16.254  66.855  36.231  1.00  0.00    -0.360 N 
HETATM   24  C1  UNL     1      15.753  67.260  35.038  1.00  0.00     0.120 C 
ATOM     25  H1  UNL     1      17.086  67.429  36.366  1.00  0.00     0.165 HD
ENDBRANCH   1  23
BRANCH   5  26
HETATM   26  N3  UNL     1      11.621  66.808  37.954  1.00  0.00    -0.234 N 
ATOM     27  H32 UNL     1      11.169  66.523  37.084  1.00  0.00     0.174 HD
ATOM     28  H31 UNL     1      11.226  67.541  38.543  1.00  0.00     0.174 HD
ENDBRANCH   5  26
TORSDOF 5
ENDMDL
