MODEL 1
REMARK VINA RESULT: -6.325259600      0.000      0.000
REMARK  7 active torsions:
REMARK  status: ('A' for Active; 'I' for Inactive)
REMARK    1  A    between atoms: C2_3  and  C3_4 
REMARK    2  A    between atoms: C4_5  and  C5_6 
REMARK    3  A    between atoms: C5_6  and  O1_7 
REMARK    4  A    between atoms: O1_7  and  S1_8 
REMARK    5  A    between atoms: S1_8  and  N2_9 
REMARK    6  A    between atoms: C7_16  and  N4_17 
REMARK    7  A    between atoms: C8_22  and  N6_23 
ROOT
HETATM    1  C1  UNL     1      14.937  67.225  35.118  1.00  0.00     0.176 C 
HETATM    2  N1  UNL     1      16.374  67.312  35.223  1.00  0.00    -0.178 N 
HETATM    3  C2  UNL     1      17.023  66.777  36.298  1.00  0.00     0.133 A 
HETATM    4  C6  UNL     1      18.403  66.854  36.410  1.00  0.00     0.126 A 
HETATM    5  N3  UNL     1      19.129  66.316  37.507  1.00  0.00    -0.095 NA
HETATM    6  C7  UNL     1      19.107  67.483  35.409  1.00  0.00     0.142 A 
HETATM    7  N5  UNL     1      18.438  67.996  34.369  1.00  0.00    -0.175 N 
ATOM      8  H5  UNL     1      18.963  68.461  33.628  1.00  0.00     0.186 HD
HETATM    9  C8  UNL     1      17.093  67.919  34.265  1.00  0.00     0.680 A 
ENDROOT
BRANCH   3  10
HETATM   10  C3  UNL     1      16.274  66.128  37.325  1.00  0.00    -0.044 C 
HETATM   11  C4  UNL     1      15.636  65.577  38.188  1.00  0.00    -0.072 C 
BRANCH  11  12
HETATM   12  C5  UNL     1      14.861  64.928  39.246  1.00  0.00     0.286 C 
BRANCH  12  13
HETATM   13  O1  UNL     1      13.824  65.780  39.665  1.00  0.00    -0.248 OA
BRANCH  13  14
HETATM   14  S1  UNL     1      12.888  64.900  40.752  1.00  0.00     0.356 S 
HETATM   15  O2  UNL     1      11.740  64.326  39.978  1.00  0.00    -0.176 OA
HETATM   16  O3  UNL     1      13.723  63.774  41.255  1.00  0.00    -0.176 OA
BRANCH  14  17
HETATM   17  N2  UNL     1      12.362  65.901  42.055  1.00  0.00    -0.306 N 
ATOM     18  H22 UNL     1      12.730  66.835  42.238  1.00  0.00     0.171 HD
ATOM     19  H21 UNL     1      11.643  65.431  42.604  1.00  0.00     0.171 HD
ENDBRANCH  14  17
ENDBRANCH  13  14
ENDBRANCH  12  13
ENDBRANCH  11  12
ENDBRANCH   3  10
BRANCH   9  20
HETATM   20  N6  UNL     1      16.458  68.419  33.253  1.00  0.00    -0.234 N 
ATOM     21  H62 UNL     1      16.797  68.307  32.297  1.00  0.00     0.174 HD
ATOM     22  H61 UNL     1      15.597  68.935  33.435  1.00  0.00     0.174 HD
ENDBRANCH   9  20
BRANCH   6  23
HETATM   23  N4  UNL     1      20.386  67.567  35.491  1.00  0.00    -0.383 N 
ATOM     24  H42 UNL     1      20.888  68.391  35.159  1.00  0.00     0.157 HD
ATOM     25  H41 UNL     1      20.914  66.795  35.896  1.00  0.00     0.157 HD
ENDBRANCH   6  23
TORSDOF 7
ENDMDL
MODEL 2
REMARK VINA RESULT: -6.322706273      1.863      1.954
REMARK  7 active torsions:
REMARK  status: ('A' for Active; 'I' for Inactive)
REMARK    1  A    between atoms: C2_3  and  C3_4 
REMARK    2  A    between atoms: C4_5  and  C5_6 
REMARK    3  A    between atoms: C5_6  and  O1_7 
REMARK    4  A    between atoms: O1_7  and  S1_8 
REMARK    5  A    between atoms: S1_8  and  N2_9 
REMARK    6  A    between atoms: C7_16  and  N4_17 
REMARK    7  A    between atoms: C8_22  and  N6_23 
ROOT
HETATM    1  C1  UNL     1      14.920  67.030  35.501  1.00  0.00     0.176 C 
HETATM    2  N1  UNL     1      16.357  67.164  35.489  1.00  0.00    -0.178 N 
HETATM    3  C2  UNL     1      17.108  66.654  36.508  1.00  0.00     0.133 A 
HETATM    4  C6  UNL     1      18.489  66.776  36.508  1.00  0.00     0.126 A 
HETATM    5  N3  UNL     1      19.319  66.265  37.543  1.00  0.00    -0.095 NA
HETATM    6  C7  UNL     1      19.089  67.425  35.453  1.00  0.00     0.142 A 
HETATM    7  N5  UNL     1      18.322  67.912  34.470  1.00  0.00    -0.175 N 
ATOM      8  H5  UNL     1      18.770  68.392  33.689  1.00  0.00     0.186 HD
HETATM    9  C8  UNL     1      16.976  67.791  34.476  1.00  0.00     0.680 A 
ENDROOT
BRANCH   3  10
HETATM   10  C3  UNL     1      16.466  65.984  37.592  1.00  0.00    -0.044 C 
HETATM   11  C4  UNL     1      15.917  65.418  38.505  1.00  0.00    -0.072 C 
BRANCH  11  12
HETATM   12  C5  UNL     1      15.260  64.747  39.627  1.00  0.00     0.286 C 
BRANCH  12  13
HETATM   13  O1  UNL     1      15.853  63.490  39.842  1.00  0.00    -0.248 OA
BRANCH  13  14
HETATM   14  S1  UNL     1      14.623  62.457  40.341  1.00  0.00     0.356 S 
HETATM   15  O2  UNL     1      13.861  63.169  41.418  1.00  0.00    -0.176 OA
HETATM   16  O3  UNL     1      13.711  62.250  39.182  1.00  0.00    -0.176 OA
BRANCH  14  17
HETATM   17  N2  UNL     1      15.271  60.953  40.885  1.00  0.00    -0.306 N 
ATOM     18  H22 UNL     1      15.821  60.847  41.738  1.00  0.00     0.171 HD
ATOM     19  H21 UNL     1      15.027  60.201  40.242  1.00  0.00     0.171 HD
ENDBRANCH  14  17
ENDBRANCH  13  14
ENDBRANCH  12  13
ENDBRANCH  11  12
ENDBRANCH   3  10
BRANCH   9  20
HETATM   20  N6  UNL     1      16.245  68.267  33.518  1.00  0.00    -0.234 N 
ATOM     21  H62 UNL     1      15.945  69.243  33.506  1.00  0.00     0.174 HD
ATOM     22  H61 UNL     1      15.970  67.636  32.765  1.00  0.00     0.174 HD
ENDBRANCH   9  20
BRANCH   6  23
HETATM   23  N4  UNL     1      20.367  67.550  35.431  1.00  0.00    -0.383 N 
ATOM     24  H42 UNL     1      20.849  68.199  36.053  1.00  0.00     0.157 HD
ATOM     25  H41 UNL     1      20.915  66.990  34.779  1.00  0.00     0.157 HD
ENDBRANCH   6  23
TORSDOF 7
ENDMDL
MODEL 3
REMARK VINA RESULT: -6.269258628      1.786      3.023
REMARK  7 active torsions:
REMARK  status: ('A' for Active; 'I' for Inactive)
REMARK    1  A    between atoms: C2_3  and  C3_4 
REMARK    2  A    between atoms: C4_5  and  C5_6 
REMARK    3  A    between atoms: C5_6  and  O1_7 
REMARK    4  A    between atoms: O1_7  and  S1_8 
REMARK    5  A    between atoms: S1_8  and  N2_9 
REMARK    6  A    between atoms: C7_16  and  N4_17 
REMARK    7  A    between atoms: C8_22  and  N6_23 
ROOT
HETATM    1  C1  UNL     1      18.473  66.060  37.082  1.00  0.00     0.176 C 
HETATM    2  N1  UNL     1      18.071  66.871  35.957  1.00  0.00    -0.178 N 
HETATM    3  C2  UNL     1      16.750  67.115  35.717  1.00  0.00     0.133 A 
HETATM    4  C6  UNL     1      16.352  67.892  34.640  1.00  0.00     0.126 A 
HETATM    5  N3  UNL     1      14.991  68.177  34.343  1.00  0.00    -0.095 NA
HETATM    6  C7  UNL     1      17.321  68.414  33.815  1.00  0.00     0.142 A 
HETATM    7  N5  UNL     1      18.608  68.154  34.080  1.00  0.00    -0.175 N 
ATOM      8  H5  UNL     1      19.324  68.544  33.467  1.00  0.00     0.186 HD
HETATM    9  C8  UNL     1      18.990  67.396  35.131  1.00  0.00     0.680 A 
ENDROOT
BRANCH   3  10
HETATM   10  C3  UNL     1      15.761  66.564  36.585  1.00  0.00    -0.044 C 
HETATM   11  C4  UNL     1      14.921  66.105  37.321  1.00  0.00    -0.072 C 
BRANCH  11  12
HETATM   12  C5  UNL     1      13.920  65.536  38.223  1.00  0.00     0.286 C 
BRANCH  12  13
HETATM   13  O1  UNL     1      14.418  65.525  39.538  1.00  0.00    -0.248 OA
BRANCH  13  14
HETATM   14  S1  UNL     1      14.791  63.925  39.899  1.00  0.00     0.356 S 
HETATM   15  O2  UNL     1      14.061  63.578  41.161  1.00  0.00    -0.176 OA
HETATM   16  O3  UNL     1      14.251  63.079  38.798  1.00  0.00    -0.176 OA
BRANCH  14  17
HETATM   17  N2  UNL     1      16.496  63.714  40.051  1.00  0.00    -0.306 N 
ATOM     18  H22 UNL     1      16.985  63.669  40.946  1.00  0.00     0.171 HD
ATOM     19  H21 UNL     1      16.935  63.642  39.134  1.00  0.00     0.171 HD
ENDBRANCH  14  17
ENDBRANCH  13  14
ENDBRANCH  12  13
ENDBRANCH  11  12
ENDBRANCH   3  10
BRANCH   9  20
HETATM   20  N6  UNL     1      20.239  67.152  35.377  1.00  0.00    -0.234 N 
ATOM     21  H62 UNL     1      20.567  66.213  35.605  1.00  0.00     0.174 HD
ATOM     22  H61 UNL     1      20.897  67.931  35.336  1.00  0.00     0.174 HD
ENDBRANCH   9  20
BRANCH   6  23
HETATM   23  N4  UNL     1      16.976  69.137  32.811  1.00  0.00    -0.383 N 
ATOM     24  H42 UNL     1      17.358  70.072  32.672  1.00  0.00     0.157 HD
ATOM     25  H41 UNL     1      16.306  68.770  32.135  1.00  0.00     0.157 HD
ENDBRANCH   6  23
TORSDOF 7
ENDMDL
MODEL 4
REMARK VINA RESULT: -6.245887197      0.690      2.510
REMARK  7 active torsions:
REMARK  status: ('A' for Active; 'I' for Inactive)
REMARK    1  A    between atoms: C2_3  and  C3_4 
REMARK    2  A    between atoms: C4_5  and  C5_6 
REMARK    3  A    between atoms: C5_6  and  O1_7 
REMARK    4  A    between atoms: O1_7  and  S1_8 
REMARK    5  A    between atoms: S1_8  and  N2_9 
REMARK    6  A    between atoms: C7_16  and  N4_17 
REMARK    7  A    between atoms: C8_22  and  N6_23 
ROOT
HETATM    1  C1  UNL     1      19.081  66.474  37.464  1.00  0.00     0.176 C 
HETATM    2  N1  UNL     1      18.388  66.991  36.308  1.00  0.00    -0.178 N 
HETATM    3  C2  UNL     1      17.034  66.862  36.198  1.00  0.00     0.133 A 
HETATM    4  C6  UNL     1      16.357  67.353  35.092  1.00  0.00     0.126 A 
HETATM    5  N3  UNL     1      14.950  67.245  34.926  1.00  0.00    -0.095 NA
HETATM    6  C7  UNL     1      17.083  67.978  34.105  1.00  0.00     0.142 A 
HETATM    7  N5  UNL     1      18.410  68.088  34.245  1.00  0.00    -0.175 N 
ATOM      8  H5  UNL     1      18.946  68.552  33.511  1.00  0.00     0.186 HD
HETATM    9  C8  UNL     1      19.065  67.606  35.325  1.00  0.00     0.680 A 
ENDROOT
BRANCH   3  10
HETATM   10  C3  UNL     1      16.300  66.210  37.234  1.00  0.00    -0.044 C 
HETATM   11  C4  UNL     1      15.673  65.661  38.106  1.00  0.00    -0.072 C 
BRANCH  11  12
HETATM   12  C5  UNL     1      14.924  65.008  39.179  1.00  0.00     0.286 C 
BRANCH  12  13
HETATM   13  O1  UNL     1      13.837  65.815  39.560  1.00  0.00    -0.248 OA
BRANCH  13  14
HETATM   14  S1  UNL     1      12.935  64.920  40.662  1.00  0.00     0.356 S 
HETATM   15  O2  UNL     1      11.787  64.323  39.906  1.00  0.00    -0.176 OA
HETATM   16  O3  UNL     1      13.799  63.811  41.154  1.00  0.00    -0.176 OA
BRANCH  14  17
HETATM   17  N2  UNL     1      12.409  65.913  41.971  1.00  0.00    -0.306 N 
ATOM     18  H22 UNL     1      11.429  66.095  42.188  1.00  0.00     0.171 HD
ATOM     19  H21 UNL     1      13.207  66.282  42.487  1.00  0.00     0.171 HD
ENDBRANCH  14  17
ENDBRANCH  13  14
ENDBRANCH  12  13
ENDBRANCH  11  12
ENDBRANCH   3  10
BRANCH   9  20
HETATM   20  N6  UNL     1      20.350  67.718  35.449  1.00  0.00    -0.234 N 
ATOM     21  H62 UNL     1      20.931  66.933  35.742  1.00  0.00     0.174 HD
ATOM     22  H61 UNL     1      20.774  68.624  35.244  1.00  0.00     0.174 HD
ENDBRANCH   9  20
BRANCH   6  23
HETATM   23  N4  UNL     1      16.478  68.442  33.071  1.00  0.00    -0.383 N 
ATOM     24  H42 UNL     1      16.583  69.415  32.784  1.00  0.00     0.157 HD
ATOM     25  H41 UNL     1      15.878  67.826  32.522  1.00  0.00     0.157 HD
ENDBRANCH   6  23
TORSDOF 7
ENDMDL
MODEL 5
REMARK VINA RESULT: -6.227125476      1.643      1.750
REMARK  7 active torsions:
REMARK  status: ('A' for Active; 'I' for Inactive)
REMARK    1  A    between atoms: C2_3  and  C3_4 
REMARK    2  A    between atoms: C4_5  and  C5_6 
REMARK    3  A    between atoms: C5_6  and  O1_7 
REMARK    4  A    between atoms: O1_7  and  S1_8 
REMARK    5  A    between atoms: S1_8  and  N2_9 
REMARK    6  A    between atoms: C7_16  and  N4_17 
REMARK    7  A    between atoms: C8_22  and  N6_23 
ROOT
HETATM    1  C1  UNL     1      14.981  68.142  34.446  1.00  0.00     0.176 C 
HETATM    2  N1  UNL     1      16.379  67.883  34.695  1.00  0.00    -0.178 N 
HETATM    3  C2  UNL     1      16.761  67.107  35.751  1.00  0.00     0.133 A 
HETATM    4  C6  UNL     1      18.100  66.851  36.001  1.00  0.00     0.126 A 
HETATM    5  N3  UNL     1      18.554  66.052  37.085  1.00  0.00    -0.095 NA
HETATM    6  C7  UNL     1      19.039  67.397  35.157  1.00  0.00     0.142 A 
HETATM    7  N5  UNL     1      18.629  68.152  34.130  1.00  0.00    -0.175 N 
ATOM      8  H5  UNL     1      19.328  68.555  33.506  1.00  0.00     0.186 HD
HETATM    9  C8  UNL     1      17.322  68.400  33.892  1.00  0.00     0.680 A 
ENDROOT
BRANCH   3  10
HETATM   10  C3  UNL     1      15.770  66.550  36.614  1.00  0.00    -0.044 C 
HETATM   11  C4  UNL     1      14.927  66.084  37.341  1.00  0.00    -0.072 C 
BRANCH  11  12
HETATM   12  C5  UNL     1      13.919  65.522  38.240  1.00  0.00     0.286 C 
BRANCH  12  13
HETATM   13  O1  UNL     1      14.412  65.509  39.557  1.00  0.00    -0.248 OA
BRANCH  13  14
HETATM   14  S1  UNL     1      14.780  63.907  39.917  1.00  0.00     0.356 S 
HETATM   15  O2  UNL     1      14.051  63.563  41.181  1.00  0.00    -0.176 OA
HETATM   16  O3  UNL     1      14.236  63.063  38.818  1.00  0.00    -0.176 OA
BRANCH  14  17
HETATM   17  N2  UNL     1      16.485  63.691  40.067  1.00  0.00    -0.306 N 
ATOM     18  H22 UNL     1      16.943  63.359  40.917  1.00  0.00     0.171 HD
ATOM     19  H21 UNL     1      16.959  63.939  39.199  1.00  0.00     0.171 HD
ENDBRANCH  14  17
ENDBRANCH  13  14
ENDBRANCH  12  13
ENDBRANCH  11  12
ENDBRANCH   3  10
BRANCH   9  20
HETATM   20  N6  UNL     1      16.938  69.132  32.895  1.00  0.00    -0.234 N 
ATOM     21  H62 UNL     1      16.094  69.705  32.944  1.00  0.00     0.174 HD
ATOM     22  H61 UNL     1      17.506  69.125  32.048  1.00  0.00     0.174 HD
ENDBRANCH   9  20
BRANCH   6  23
HETATM   23  N4  UNL     1      20.286  67.173  35.368  1.00  0.00    -0.383 N 
ATOM     24  H42 UNL     1      20.879  66.747  34.655  1.00  0.00     0.157 HD
ATOM     25  H41 UNL     1      20.697  67.425  36.267  1.00  0.00     0.157 HD
ENDBRANCH   6  23
TORSDOF 7
ENDMDL
