MODEL 1
REMARK VINA RESULT: -7.477111479      0.000      0.000
REMARK  7 active torsions:
REMARK  status: ('A' for Active; 'I' for Inactive)
REMARK    1  A    between atoms: C3_3  and  C4_4 
REMARK    2  A    between atoms: C3_3  and  N1_7 
REMARK    3  A    between atoms: C3_3  and  N7_23 
REMARK    4  A    between atoms: C4_4  and  O1_5 
REMARK    5  A    between atoms: N1_7  and  C5_9 
REMARK    6  A    between atoms: C9_17  and  N5_18 
REMARK    7  A    between atoms: N7_23  and  O2_24 
ROOT
HETATM    1  C1  UNL     1      16.037  66.555  37.269  1.00  0.00     0.016 C 
HETATM    2  C2  UNL     1      17.228  66.618  37.095  1.00  0.00    -0.063 C 
HETATM    3  C3  UNL     1      18.698  66.714  36.891  1.00  0.00     0.227 C 
ENDROOT
BRANCH   3   4
HETATM    4  C4  UNL     1      19.257  67.248  38.202  1.00  0.00     0.230 C 
BRANCH   4   5
HETATM    5  O1  UNL     1      20.375  68.033  38.025  1.00  0.00    -0.396 OA
ATOM      6  H1  UNL     1      20.172  68.881  37.650  1.00  0.00     0.209 HD
ENDBRANCH   4   5
ENDBRANCH   3   4
BRANCH   3   7
HETATM    7  N1  UNL     1      18.930  67.654  35.893  1.00  0.00    -0.187 N 
ATOM      8  H1  UNL     1      19.289  68.538  36.254  1.00  0.00     0.181 HD
BRANCH   7   9
HETATM    9  C5  UNL     1      18.795  67.654  34.634  1.00  0.00     0.683 A 
HETATM   10  N2  UNL     1      19.685  67.130  33.782  1.00  0.00    -0.177 N 
HETATM   11  C6  UNL     1      19.462  67.174  32.469  1.00  0.00     0.156 A 
ATOM     12  H2  UNL     1      20.536  66.696  34.139  1.00  0.00     0.185 HD
HETATM   13  N3  UNL     1      20.402  66.619  31.553  1.00  0.00    -0.080 NA
HETATM   14  C7  UNL     1      18.327  67.748  31.898  1.00  0.00     0.130 A 
HETATM   15  C8  UNL     1      18.143  67.764  30.473  1.00  0.00     0.107 C 
HETATM   16  C9  UNL     1      17.433  68.278  32.799  1.00  0.00     0.141 A 
HETATM   17  N4  UNL     1      17.982  67.776  29.326  1.00  0.00    -0.191 NA
HETATM   18  N6  UNL     1      17.685  68.219  34.116  1.00  0.00    -0.175 N 
ATOM     19  H6  UNL     1      17.002  68.620  34.759  1.00  0.00     0.186 HD
BRANCH  16  20
HETATM   20  N5  UNL     1      16.364  68.823  32.346  1.00  0.00    -0.379 N 
HETATM   21  C10 UNL     1      15.728  69.969  32.967  1.00  0.00     0.147 C 
ATOM     22  H5  UNL     1      15.941  68.432  31.505  1.00  0.00     0.160 HD
ENDBRANCH  16  20
ENDBRANCH   7   9
ENDBRANCH   3   7
BRANCH   3  23
HETATM   23  N7  UNL     1      19.132  65.359  36.623  1.00  0.00    -0.055 NA
BRANCH  23  24
HETATM   24  O2  UNL     1      20.463  65.294  36.860  1.00  0.00    -0.293 OA
ATOM     25  H2  UNL     1      20.586  65.033  37.764  1.00  0.00     0.238 HD
ENDBRANCH  23  24
ENDBRANCH   3  23
TORSDOF 7
ENDMDL
MODEL 2
REMARK VINA RESULT: -7.273916997      1.472      2.702
REMARK  7 active torsions:
REMARK  status: ('A' for Active; 'I' for Inactive)
REMARK    1  A    between atoms: C3_3  and  C4_4 
REMARK    2  A    between atoms: C3_3  and  N1_7 
REMARK    3  A    between atoms: C3_3  and  N7_23 
REMARK    4  A    between atoms: C4_4  and  O1_5 
REMARK    5  A    between atoms: N1_7  and  C5_9 
REMARK    6  A    between atoms: C9_17  and  N5_18 
REMARK    7  A    between atoms: N7_23  and  O2_24 
ROOT
HETATM    1  C1  UNL     1      17.096  66.394  37.514  1.00  0.00     0.016 C 
HETATM    2  C2  UNL     1      18.029  66.779  36.855  1.00  0.00    -0.063 C 
HETATM    3  C3  UNL     1      19.178  67.274  36.050  1.00  0.00     0.227 C 
ENDROOT
BRANCH   3   4
HETATM    4  C4  UNL     1      19.947  68.210  36.972  1.00  0.00     0.230 C 
BRANCH   4   5
HETATM    5  O1  UNL     1      20.871  68.980  36.300  1.00  0.00    -0.396 OA
ATOM      6  H1  UNL     1      21.549  69.321  36.870  1.00  0.00     0.209 HD
ENDBRANCH   4   5
ENDBRANCH   3   4
BRANCH   3   7
HETATM    7  N1  UNL     1      18.669  68.014  34.989  1.00  0.00    -0.187 N 
ATOM      8  H1  UNL     1      18.718  69.021  35.145  1.00  0.00     0.181 HD
BRANCH   7   9
HETATM    9  C5  UNL     1      18.157  67.714  33.870  1.00  0.00     0.683 A 
HETATM   10  N2  UNL     1      16.841  67.589  33.655  1.00  0.00    -0.177 N 
HETATM   11  C6  UNL     1      16.388  67.269  32.443  1.00  0.00     0.156 A 
ATOM     12  H2  UNL     1      16.184  67.740  34.420  1.00  0.00     0.185 HD
HETATM   13  N3  UNL     1      14.990  67.135  32.202  1.00  0.00    -0.080 NA
HETATM   14  C7  UNL     1      17.216  67.046  31.344  1.00  0.00     0.130 A 
HETATM   15  C8  UNL     1      16.667  66.703  30.062  1.00  0.00     0.107 C 
HETATM   16  C9  UNL     1      18.562  67.180  31.598  1.00  0.00     0.141 A 
HETATM   17  N4  UNL     1      16.234  66.434  29.022  1.00  0.00    -0.191 NA
HETATM   18  N6  UNL     1      18.988  67.504  32.829  1.00  0.00    -0.175 N 
ATOM     19  H6  UNL     1      19.992  67.598  32.985  1.00  0.00     0.186 HD
BRANCH  16  20
HETATM   20  N5  UNL     1      19.384  66.990  30.633  1.00  0.00    -0.379 N 
HETATM   21  C10 UNL     1      20.545  66.125  30.734  1.00  0.00     0.147 C 
ATOM     22  H5  UNL     1      19.214  67.470  29.750  1.00  0.00     0.160 HD
ENDBRANCH  16  20
ENDBRANCH   7   9
ENDBRANCH   3   7
BRANCH   3  23
HETATM   23  N7  UNL     1      19.940  66.091  35.712  1.00  0.00    -0.055 NA
BRANCH  23  24
HETATM   24  O2  UNL     1      20.217  65.432  36.861  1.00  0.00    -0.293 OA
ATOM     25  H2  UNL     1      20.769  64.690  36.646  1.00  0.00     0.238 HD
ENDBRANCH  23  24
ENDBRANCH   3  23
TORSDOF 7
ENDMDL
MODEL 3
REMARK VINA RESULT: -7.260096148      0.853      2.497
REMARK  7 active torsions:
REMARK  status: ('A' for Active; 'I' for Inactive)
REMARK    1  A    between atoms: C3_3  and  C4_4 
REMARK    2  A    between atoms: C3_3  and  N1_7 
REMARK    3  A    between atoms: C3_3  and  N7_23 
REMARK    4  A    between atoms: C4_4  and  O1_5 
REMARK    5  A    between atoms: N1_7  and  C5_9 
REMARK    6  A    between atoms: C9_17  and  N5_18 
REMARK    7  A    between atoms: N7_23  and  O2_24 
ROOT
HETATM    1  C1  UNL     1      16.420  66.650  36.752  1.00  0.00     0.016 C 
HETATM    2  C2  UNL     1      17.617  66.761  36.662  1.00  0.00    -0.063 C 
HETATM    3  C3  UNL     1      19.092  66.919  36.558  1.00  0.00     0.227 C 
ENDROOT
BRANCH   3   4
HETATM    4  C4  UNL     1      19.519  67.608  37.846  1.00  0.00     0.230 C 
BRANCH   4   5
HETATM    5  O1  UNL     1      20.505  68.549  37.646  1.00  0.00    -0.396 OA
ATOM      6  H1  UNL     1      21.285  68.378  38.158  1.00  0.00     0.209 HD
ENDBRANCH   4   5
ENDBRANCH   3   4
BRANCH   3   7
HETATM    7  N1  UNL     1      19.357  67.768  35.489  1.00  0.00    -0.187 N 
ATOM      8  H1  UNL     1      19.994  68.526  35.732  1.00  0.00     0.181 HD
BRANCH   7   9
HETATM    9  C5  UNL     1      18.982  67.807  34.281  1.00  0.00     0.683 A 
HETATM   10  N2  UNL     1      17.851  68.390  33.863  1.00  0.00    -0.177 N 
HETATM   11  C6  UNL     1      17.533  68.384  32.569  1.00  0.00     0.156 A 
ATOM     12  H2  UNL     1      17.232  68.838  34.537  1.00  0.00     0.185 HD
HETATM   13  N3  UNL     1      16.332  69.002  32.114  1.00  0.00    -0.080 NA
HETATM   14  C7  UNL     1      18.322  67.794  31.583  1.00  0.00     0.130 A 
HETATM   15  C8  UNL     1      17.924  67.821  30.203  1.00  0.00     0.107 C 
HETATM   16  C9  UNL     1      19.476  67.204  32.044  1.00  0.00     0.141 A 
HETATM   17  N4  UNL     1      17.616  67.844  29.087  1.00  0.00    -0.191 NA
HETATM   18  N6  UNL     1      19.770  67.226  33.354  1.00  0.00    -0.175 N 
ATOM     19  H6  UNL     1      20.633  66.780  33.664  1.00  0.00     0.186 HD
BRANCH  16  20
HETATM   20  N5  UNL     1      20.252  66.640  31.193  1.00  0.00    -0.379 N 
HETATM   21  C10 UNL     1      20.163  65.236  30.841  1.00  0.00     0.147 C 
ATOM     22  H5  UNL     1      20.967  67.209  30.740  1.00  0.00     0.160 HD
ENDBRANCH  16  20
ENDBRANCH   7   9
ENDBRANCH   3   7
BRANCH   3  23
HETATM   23  N7  UNL     1      19.610  65.570  36.462  1.00  0.00    -0.055 NA
BRANCH  23  24
HETATM   24  O2  UNL     1      18.852  64.776  37.253  1.00  0.00    -0.293 OA
ATOM     25  H2  UNL     1      19.437  64.270  37.804  1.00  0.00     0.238 HD
ENDBRANCH  23  24
ENDBRANCH   3  23
TORSDOF 7
ENDMDL
MODEL 4
REMARK VINA RESULT: -6.930952378      2.819      5.686
REMARK  7 active torsions:
REMARK  status: ('A' for Active; 'I' for Inactive)
REMARK    1  A    between atoms: C3_3  and  C4_4 
REMARK    2  A    between atoms: C3_3  and  N1_7 
REMARK    3  A    between atoms: C3_3  and  N7_23 
REMARK    4  A    between atoms: C4_4  and  O1_5 
REMARK    5  A    between atoms: N1_7  and  C5_9 
REMARK    6  A    between atoms: C9_17  and  N5_18 
REMARK    7  A    between atoms: N7_23  and  O2_24 
ROOT
HETATM    1  C1  UNL     1      19.825  66.650  30.673  1.00  0.00     0.016 C 
HETATM    2  C2  UNL     1      18.916  67.158  31.280  1.00  0.00    -0.063 C 
HETATM    3  C3  UNL     1      17.805  67.804  32.028  1.00  0.00     0.227 C 
ENDROOT
BRANCH   3   4
HETATM    4  C4  UNL     1      17.551  69.126  31.317  1.00  0.00     0.230 C 
BRANCH   4   5
HETATM    5  O1  UNL     1      16.837  70.017  32.087  1.00  0.00    -0.396 OA
ATOM      6  H1  UNL     1      16.059  70.340  31.649  1.00  0.00     0.209 HD
ENDBRANCH   4   5
ENDBRANCH   3   4
BRANCH   3   7
HETATM    7  N1  UNL     1      18.255  68.072  33.317  1.00  0.00    -0.187 N 
ATOM      8  H1  UNL     1      18.783  68.942  33.381  1.00  0.00     0.181 HD
BRANCH   7   9
HETATM    9  C5  UNL     1      18.154  67.473  34.427  1.00  0.00     0.683 A 
HETATM   10  N2  UNL     1      19.151  66.795  35.010  1.00  0.00    -0.177 N 
HETATM   11  C6  UNL     1      18.957  66.193  36.183  1.00  0.00     0.156 A 
ATOM     12  H2  UNL     1      20.062  66.741  34.555  1.00  0.00     0.185 HD
HETATM   13  N3  UNL     1      20.012  65.470  36.812  1.00  0.00    -0.080 NA
HETATM   14  C7  UNL     1      17.745  66.217  36.871  1.00  0.00     0.130 A 
HETATM   15  C8  UNL     1      17.598  65.548  38.133  1.00  0.00     0.107 C 
HETATM   16  C9  UNL     1      16.741  66.920  36.246  1.00  0.00     0.141 A 
HETATM   17  N4  UNL     1      17.471  65.017  39.155  1.00  0.00    -0.191 NA
HETATM   18  N6  UNL     1      16.967  67.517  35.066  1.00  0.00    -0.175 N 
ATOM     19  H6  UNL     1      16.202  68.031  34.629  1.00  0.00     0.186 HD
BRANCH  16  20
HETATM   20  N5  UNL     1      15.597  66.986  36.822  1.00  0.00    -0.379 N 
HETATM   21  C10 UNL     1      14.489  67.768  36.307  1.00  0.00     0.147 C 
ATOM     22  H5  UNL     1      15.459  66.462  37.686  1.00  0.00     0.160 HD
ENDBRANCH  16  20
ENDBRANCH   7   9
ENDBRANCH   3   7
BRANCH   3  23
HETATM   23  N7  UNL     1      16.687  66.893  31.905  1.00  0.00    -0.055 NA
BRANCH  23  24
HETATM   24  O2  UNL     1      15.563  67.566  32.246  1.00  0.00    -0.293 OA
ATOM     25  H2  UNL     1      15.281  68.066  31.489  1.00  0.00     0.238 HD
ENDBRANCH  23  24
ENDBRANCH   3  23
TORSDOF 7
ENDMDL
MODEL 5
REMARK VINA RESULT: -6.928943497      1.626      1.670
REMARK  7 active torsions:
REMARK  status: ('A' for Active; 'I' for Inactive)
REMARK    1  A    between atoms: C3_3  and  C4_4 
REMARK    2  A    between atoms: C3_3  and  N1_7 
REMARK    3  A    between atoms: C3_3  and  N7_23 
REMARK    4  A    between atoms: C4_4  and  O1_5 
REMARK    5  A    between atoms: N1_7  and  C5_9 
REMARK    6  A    between atoms: C9_17  and  N5_18 
REMARK    7  A    between atoms: N7_23  and  O2_24 
ROOT
HETATM    1  C1  UNL     1      16.972  66.413  37.455  1.00  0.00     0.016 C 
HETATM    2  C2  UNL     1      17.926  66.778  36.815  1.00  0.00    -0.063 C 
HETATM    3  C3  UNL     1      19.100  67.250  36.034  1.00  0.00     0.227 C 
ENDROOT
BRANCH   3   4
HETATM    4  C4  UNL     1      19.879  68.157  36.977  1.00  0.00     0.230 C 
BRANCH   4   5
HETATM    5  O1  UNL     1      20.817  68.925  36.324  1.00  0.00    -0.396 OA
ATOM      6  H1  UNL     1      20.533  69.194  35.458  1.00  0.00     0.209 HD
ENDBRANCH   4   5
ENDBRANCH   3   4
BRANCH   3   7
HETATM    7  N1  UNL     1      18.629  68.014  34.971  1.00  0.00    -0.187 N 
ATOM      8  H1  UNL     1      18.642  69.015  35.163  1.00  0.00     0.181 HD
BRANCH   7   9
HETATM    9  C5  UNL     1      18.186  67.739  33.817  1.00  0.00     0.683 A 
HETATM   10  N2  UNL     1      18.960  67.486  32.755  1.00  0.00    -0.177 N 
HETATM   11  C6  UNL     1      18.409  67.205  31.575  1.00  0.00     0.156 A 
ATOM     12  H2  UNL     1      19.975  67.508  32.850  1.00  0.00     0.185 HD
HETATM   13  N3  UNL     1      19.224  66.933  30.438  1.00  0.00    -0.080 NA
HETATM   14  C7  UNL     1      17.033  67.154  31.359  1.00  0.00     0.130 A 
HETATM   15  C8  UNL     1      16.498  66.845  30.062  1.00  0.00     0.107 C 
HETATM   16  C9  UNL     1      16.264  67.420  32.470  1.00  0.00     0.141 A 
HETATM   17  N4  UNL     1      16.057  66.590  29.022  1.00  0.00    -0.191 NA
HETATM   18  N6  UNL     1      16.849  67.699  33.645  1.00  0.00    -0.175 N 
ATOM     19  H6  UNL     1      16.251  67.890  34.449  1.00  0.00     0.186 HD
BRANCH  16  20
HETATM   20  N5  UNL     1      14.988  67.391  32.346  1.00  0.00    -0.379 N 
HETATM   21  C10 UNL     1      14.136  66.484  33.091  1.00  0.00     0.147 C 
ATOM     22  H5  UNL     1      14.551  68.038  31.690  1.00  0.00     0.160 HD
ENDBRANCH  16  20
ENDBRANCH   7   9
ENDBRANCH   3   7
BRANCH   3  23
HETATM   23  N7  UNL     1      19.836  66.050  35.697  1.00  0.00    -0.055 NA
BRANCH  23  24
HETATM   24  O2  UNL     1      20.234  65.468  36.852  1.00  0.00    -0.293 OA
ATOM     25  H2  UNL     1      19.478  65.409  37.424  1.00  0.00     0.238 HD
ENDBRANCH  23  24
ENDBRANCH   3  23
TORSDOF 7
ENDMDL
