MODEL 1
REMARK VINA RESULT: -8.492073885      0.000      0.000
REMARK  3 active torsions:
REMARK  status: ('A' for Active; 'I' for Inactive)
REMARK    1  A    between atoms: C1_2  and  C2_4 
REMARK    2  A    between atoms: C5_10  and  N3_11 
REMARK    3  A    between atoms: N3_11  and  C6_13 
ROOT
HETATM    1  N3  UNL     1      19.854  67.174  33.637  1.00  0.00    -0.022 N 
ATOM      2  H3  UNL     1      20.681  66.771  33.195  1.00  0.00     0.203 HD
ENDROOT
BRANCH   1   3
HETATM    3  C5  UNL     1      18.900  67.652  32.918  1.00  0.00     0.700 A 
HETATM    4  N2  UNL     1      18.889  67.412  31.596  1.00  0.00    -0.155 N 
HETATM    5  C4  UNL     1      17.931  67.874  30.780  1.00  0.00     0.261 A 
ATOM      6  H2  UNL     1      19.643  66.853  31.195  1.00  0.00     0.187 HD
HETATM    7  C3  UNL     1      16.917  68.629  31.326  1.00  0.00     0.110 A 
HETATM    8  O2  UNL     1      17.976  67.612  29.535  1.00  0.00    -0.268 OA
HETATM    9  C2  UNL     1      16.925  68.879  32.684  1.00  0.00     0.119 A 
HETATM   10  N7  UNL     1      17.905  68.395  33.463  1.00  0.00    -0.186 N 
ATOM     11  H7  UNL     1      17.901  68.586  34.465  1.00  0.00     0.184 HD
BRANCH   9  12
HETATM   12  C1  UNL     1      15.826  69.691  33.248  1.00  0.00     0.282 C 
HETATM   13  N1  UNL     1      15.034  69.192  34.310  1.00  0.00    -0.056 NA
HETATM   14  O1  UNL     1      15.636  70.825  32.745  1.00  0.00    -0.269 OA
ENDBRANCH   9  12
ENDBRANCH   1   3
BRANCH   1  15
HETATM   15  C6  UNL     1      19.743  67.211  35.051  1.00  0.00     0.704 A 
HETATM   16  N4  UNL     1      19.219  66.190  35.759  1.00  0.00    -0.140 N 
HETATM   17  C7  UNL     1      19.133  66.269  37.099  1.00  0.00     0.342 A 
ATOM     18  H4  UNL     1      18.886  65.355  35.278  1.00  0.00     0.189 HD
HETATM   19  O3  UNL     1      18.645  65.324  37.798  1.00  0.00    -0.246 OA
HETATM   20  N5  UNL     1      19.564  67.358  37.753  1.00  0.00    -0.260 N 
HETATM   21  C8  UNL     1      20.082  68.361  37.033  1.00  0.00     0.342 A 
ATOM     22  H5  UNL     1      19.499  67.419  38.769  1.00  0.00     0.175 HD
HETATM   23  O4  UNL     1      20.493  69.398  37.656  1.00  0.00    -0.246 OA
HETATM   24  N6  UNL     1      20.187  68.325  35.694  1.00  0.00    -0.140 N 
ATOM     25  H6  UNL     1      20.587  69.107  35.176  1.00  0.00     0.189 HD
ENDBRANCH   1  15
TORSDOF 3
ENDMDL
MODEL 2
REMARK VINA RESULT: -8.460108159      0.761      1.954
REMARK  3 active torsions:
REMARK  status: ('A' for Active; 'I' for Inactive)
REMARK    1  A    between atoms: C1_2  and  C2_4 
REMARK    2  A    between atoms: C5_10  and  N3_11 
REMARK    3  A    between atoms: N3_11  and  C6_13 
ROOT
HETATM    1  N3  UNL     1      19.793  67.154  33.585  1.00  0.00    -0.022 N 
ATOM      2  H3  UNL     1      20.577  66.688  33.126  1.00  0.00     0.203 HD
ENDROOT
BRANCH   1   3
HETATM    3  C5  UNL     1      18.843  67.670  32.887  1.00  0.00     0.700 A 
HETATM    4  N2  UNL     1      18.845  67.508  31.553  1.00  0.00    -0.155 N 
HETATM    5  C4  UNL     1      17.891  68.014  30.759  1.00  0.00     0.261 A 
ATOM      6  H2  UNL     1      19.605  66.977  31.127  1.00  0.00     0.187 HD
HETATM    7  C3  UNL     1      16.869  68.731  31.339  1.00  0.00     0.110 A 
HETATM    8  O2  UNL     1      17.948  67.826  29.500  1.00  0.00    -0.268 OA
HETATM    9  C2  UNL     1      16.864  68.900  32.709  1.00  0.00     0.119 A 
HETATM   10  N7  UNL     1      17.840  68.375  33.467  1.00  0.00    -0.186 N 
ATOM     11  H7  UNL     1      17.827  68.507  34.478  1.00  0.00     0.184 HD
BRANCH   9  12
HETATM   12  C1  UNL     1      15.757  69.672  33.312  1.00  0.00     0.282 C 
HETATM   13  N1  UNL     1      15.309  70.874  32.714  1.00  0.00    -0.056 NA
HETATM   14  O1  UNL     1      15.246  69.214  34.363  1.00  0.00    -0.269 OA
ENDBRANCH   9  12
ENDBRANCH   1   3
BRANCH   1  15
HETATM   15  C6  UNL     1      19.740  67.239  35.001  1.00  0.00     0.704 A 
HETATM   16  N4  UNL     1      20.161  68.331  35.672  1.00  0.00    -0.140 N 
HETATM   17  C7  UNL     1      20.092  68.368  37.014  1.00  0.00     0.342 A 
ATOM     18  H4  UNL     1      20.534  69.131  35.160  1.00  0.00     0.189 HD
HETATM   19  O3  UNL     1      20.479  69.382  37.680  1.00  0.00    -0.246 OA
HETATM   20  N5  UNL     1      19.606  67.328  37.708  1.00  0.00    -0.260 N 
HETATM   21  C8  UNL     1      19.193  66.254  37.024  1.00  0.00     0.342 A 
ATOM     22  H5  UNL     1      19.553  67.355  38.726  1.00  0.00     0.175 HD
HETATM   23  O4  UNL     1      18.729  65.262  37.684  1.00  0.00    -0.246 OA
HETATM   24  N6  UNL     1      19.243  66.173  35.684  1.00  0.00    -0.140 N 
ATOM     25  H6  UNL     1      18.919  65.339  35.194  1.00  0.00     0.189 HD
ENDBRANCH   1  15
TORSDOF 3
ENDMDL
MODEL 3
REMARK VINA RESULT: -8.350898036      1.147      5.923
REMARK  3 active torsions:
REMARK  status: ('A' for Active; 'I' for Inactive)
REMARK    1  A    between atoms: C1_2  and  C2_4 
REMARK    2  A    between atoms: C5_10  and  N3_11 
REMARK    3  A    between atoms: N3_11  and  C6_13 
ROOT
HETATM    1  N3  UNL     1      19.892  67.017  33.834  1.00  0.00    -0.022 N 
ATOM      2  H3  UNL     1      20.719  66.498  33.537  1.00  0.00     0.203 HD
ENDROOT
BRANCH   1   3
HETATM    3  C5  UNL     1      19.660  67.213  35.084  1.00  0.00     0.700 A 
HETATM    4  N2  UNL     1      20.264  68.237  35.711  1.00  0.00    -0.155 N 
HETATM    5  C4  UNL     1      20.074  68.507  37.010  1.00  0.00     0.261 A 
ATOM      6  H2  UNL     1      20.894  68.834  35.176  1.00  0.00     0.187 HD
HETATM    7  C3  UNL     1      19.223  67.697  37.729  1.00  0.00     0.110 A 
HETATM    8  O2  UNL     1      20.675  69.492  37.549  1.00  0.00    -0.268 OA
HETATM    9  C2  UNL     1      18.601  66.644  37.088  1.00  0.00     0.119 A 
HETATM   10  N7  UNL     1      18.821  66.410  35.785  1.00  0.00    -0.186 N 
ATOM     11  H7  UNL     1      18.356  65.629  35.322  1.00  0.00     0.184 HD
BRANCH   9  12
HETATM   12  C1  UNL     1      17.691  65.788  37.878  1.00  0.00     0.282 C 
HETATM   13  N1  UNL     1      16.468  66.299  38.371  1.00  0.00    -0.056 NA
HETATM   14  O1  UNL     1      18.056  64.604  38.085  1.00  0.00    -0.269 OA
ENDBRANCH   9  12
ENDBRANCH   1   3
BRANCH   1  15
HETATM   15  C6  UNL     1      18.983  67.529  32.871  1.00  0.00     0.704 A 
HETATM   16  N4  UNL     1      18.012  68.408  33.194  1.00  0.00    -0.140 N 
HETATM   17  C7  UNL     1      17.174  68.868  32.248  1.00  0.00     0.342 A 
ATOM     18  H4  UNL     1      17.913  68.725  34.158  1.00  0.00     0.189 HD
HETATM   19  O3  UNL     1      16.247  69.698  32.518  1.00  0.00    -0.246 OA
HETATM   20  N5  UNL     1      17.285  68.464  30.974  1.00  0.00    -0.260 N 
HETATM   21  C8  UNL     1      18.255  67.592  30.673  1.00  0.00     0.342 A 
ATOM     22  H5  UNL     1      16.650  68.812  30.256  1.00  0.00     0.175 HD
HETATM   23  O4  UNL     1      18.363  67.208  29.459  1.00  0.00    -0.246 OA
HETATM   24  N6  UNL     1      19.115  67.107  31.584  1.00  0.00    -0.140 N 
ATOM     25  H6  UNL     1      19.844  66.444  31.320  1.00  0.00     0.189 HD
ENDBRANCH   1  15
TORSDOF 3
ENDMDL
MODEL 4
REMARK VINA RESULT: -8.300845248      1.122      5.827
REMARK  3 active torsions:
REMARK  status: ('A' for Active; 'I' for Inactive)
REMARK    1  A    between atoms: C1_2  and  C2_4 
REMARK    2  A    between atoms: C5_10  and  N3_11 
REMARK    3  A    between atoms: N3_11  and  C6_13 
ROOT
HETATM    1  N3  UNL     1      19.877  67.032  33.833  1.00  0.00    -0.022 N 
ATOM      2  H3  UNL     1      20.709  66.525  33.530  1.00  0.00     0.203 HD
ENDROOT
BRANCH   1   3
HETATM    3  C5  UNL     1      19.651  67.222  35.086  1.00  0.00     0.700 A 
HETATM    4  N2  UNL     1      20.259  68.241  35.716  1.00  0.00    -0.155 N 
HETATM    5  C4  UNL     1      20.075  68.504  37.018  1.00  0.00     0.261 A 
ATOM      6  H2  UNL     1      20.888  68.841  35.181  1.00  0.00     0.187 HD
HETATM    7  C3  UNL     1      19.227  67.691  37.736  1.00  0.00     0.110 A 
HETATM    8  O2  UNL     1      20.680  69.486  37.559  1.00  0.00    -0.268 OA
HETATM    9  C2  UNL     1      18.601  66.642  37.091  1.00  0.00     0.119 A 
HETATM   10  N7  UNL     1      18.815  66.416  35.786  1.00  0.00    -0.186 N 
ATOM     11  H7  UNL     1      18.348  65.638  35.320  1.00  0.00     0.184 HD
BRANCH   9  12
HETATM   12  C1  UNL     1      17.695  65.782  37.881  1.00  0.00     0.282 C 
HETATM   13  N1  UNL     1      16.472  66.291  38.380  1.00  0.00    -0.056 NA
HETATM   14  O1  UNL     1      18.060  64.597  38.081  1.00  0.00    -0.269 OA
ENDBRANCH   9  12
ENDBRANCH   1   3
BRANCH   1  15
HETATM   15  C6  UNL     1      18.957  67.537  32.878  1.00  0.00     0.704 A 
HETATM   16  N4  UNL     1      19.006  67.188  31.577  1.00  0.00    -0.140 N 
HETATM   17  C7  UNL     1      18.113  67.691  30.707  1.00  0.00     0.342 A 
ATOM     18  H4  UNL     1      19.724  66.541  31.250  1.00  0.00     0.189 HD
HETATM   19  O3  UNL     1      18.130  67.383  29.471  1.00  0.00    -0.246 OA
HETATM   20  N5  UNL     1      17.161  68.545  31.113  1.00  0.00    -0.260 N 
HETATM   21  C8  UNL     1      17.128  68.879  32.409  1.00  0.00     0.342 A 
ATOM     22  H5  UNL     1      16.483  68.927  30.454  1.00  0.00     0.175 HD
HETATM   23  O4  UNL     1      16.221  69.692  32.797  1.00  0.00    -0.246 OA
HETATM   24  N6  UNL     1      17.999  68.401  33.312  1.00  0.00    -0.140 N 
ATOM     25  H6  UNL     1      17.945  68.676  34.293  1.00  0.00     0.189 HD
ENDBRANCH   1  15
TORSDOF 3
ENDMDL
MODEL 5
REMARK VINA RESULT: -8.081094057      1.613      2.561
REMARK  3 active torsions:
REMARK  status: ('A' for Active; 'I' for Inactive)
REMARK    1  A    between atoms: C1_2  and  C2_4 
REMARK    2  A    between atoms: C5_10  and  N3_11 
REMARK    3  A    between atoms: N3_11  and  C6_13 
ROOT
HETATM    1  N3  UNL     1      18.711  67.453  33.833  1.00  0.00    -0.022 N 
ATOM      2  H3  UNL     1      19.267  66.928  33.157  1.00  0.00     0.203 HD
ENDROOT
BRANCH   1   3
HETATM    3  C5  UNL     1      17.682  68.123  33.449  1.00  0.00     0.700 A 
HETATM    4  N2  UNL     1      16.601  68.181  34.246  1.00  0.00    -0.155 N 
HETATM    5  C4  UNL     1      15.492  68.857  33.918  1.00  0.00     0.261 A 
ATOM      6  H2  UNL     1      16.626  67.688  35.139  1.00  0.00     0.187 HD
HETATM    7  C3  UNL     1      15.463  69.520  32.711  1.00  0.00     0.110 A 
HETATM    8  O2  UNL     1      14.499  68.875  34.716  1.00  0.00    -0.268 OA
HETATM    9  C2  UNL     1      16.571  69.462  31.889  1.00  0.00     0.119 A 
HETATM   10  N7  UNL     1      17.661  68.772  32.258  1.00  0.00    -0.186 N 
ATOM     11  H7  UNL     1      18.474  68.736  31.643  1.00  0.00     0.184 HD
BRANCH   9  12
HETATM   12  C1  UNL     1      16.519  70.180  30.599  1.00  0.00     0.282 C 
HETATM   13  N1  UNL     1      16.060  71.518  30.537  1.00  0.00    -0.056 NA
HETATM   14  O1  UNL     1      16.896  69.553  29.578  1.00  0.00    -0.269 OA
ENDBRANCH   9  12
ENDBRANCH   1   3
BRANCH   1  15
HETATM   15  C6  UNL     1      19.065  67.451  35.207  1.00  0.00     0.704 A 
HETATM   16  N4  UNL     1      18.679  66.471  36.049  1.00  0.00    -0.140 N 
HETATM   17  C7  UNL     1      19.037  66.510  37.344  1.00  0.00     0.342 A 
ATOM     18  H4  UNL     1      18.113  65.696  35.702  1.00  0.00     0.189 HD
HETATM   19  O3  UNL     1      18.692  65.601  38.165  1.00  0.00    -0.246 OA
HETATM   20  N5  UNL     1      19.781  67.519  37.822  1.00  0.00    -0.260 N 
HETATM   21  C8  UNL     1      20.155  68.483  36.972  1.00  0.00     0.342 A 
ATOM     22  H5  UNL     1      20.053  67.550  38.805  1.00  0.00     0.175 HD
HETATM   23  O4  UNL     1      20.864  69.444  37.427  1.00  0.00    -0.246 OA
HETATM   24  N6  UNL     1      19.820  68.484  35.671  1.00  0.00    -0.140 N 
ATOM     25  H6  UNL     1      20.123  69.234  35.050  1.00  0.00     0.189 HD
ENDBRANCH   1  15
TORSDOF 3
ENDMDL
