MODEL 1
REMARK VINA RESULT: -8.888842174      0.000      0.000
REMARK  17 active torsions:
REMARK  status: ('A' for Active; 'I' for Inactive)
REMARK    1  A    between atoms: C2_2  and  O2_4 
REMARK    2  A    between atoms: O2_4  and  C3_5 
REMARK    3  A    between atoms: C3_5  and  C4_6 
REMARK    4  A    between atoms: C4_6  and  O3_7 
REMARK    5  A    between atoms: O3_7  and  C5_8 
REMARK       I    between atoms: C5_8  and  N1_10 
REMARK    6  A    between atoms: N1_10  and  C6_12 
REMARK    7  A    between atoms: C6_12  and  C7_13 
REMARK    8  A    between atoms: C6_12  and  C9_20 
REMARK       I    between atoms: C7_13  and  N2_15 
REMARK       I    between atoms: N2_15  and  C8_17 
REMARK    9  A    between atoms: C11_23  and  N5_24 
REMARK   10  A    between atoms: N5_24  and  C12_26 
REMARK   11  A    between atoms: N10_42  and  C20_43 
REMARK   12  A    between atoms: C20_43  and  C21_44 
REMARK   13  A    between atoms: C21_44  and  O8_45 
REMARK   14  A    between atoms: C21_44  and  C22_47 
REMARK   15  A    between atoms: C22_47  and  O9_48 
REMARK   16  A    between atoms: C22_47  and  C23_50 
REMARK   17  A    between atoms: C23_50  and  O10_51 
ROOT
HETATM    1  C9  UNL     1       5.068   5.973  29.752  1.00  0.00     0.084 A 
HETATM    2  C10 UNL     1       4.975   7.167  29.104  1.00  0.00     0.155 A 
HETATM    3  N4  UNL     1       4.825   8.120  30.048  1.00  0.00    -0.086 N 
HETATM    4  C11 UNL     1       4.808   9.459  29.870  1.00  0.00     0.700 A 
HETATM    5  N6  UNL     1       4.790  10.263  30.954  1.00  0.00    -0.184 N 
ATOM      6  H6  UNL     1       4.785  11.275  30.828  1.00  0.00     0.184 HD
HETATM    7  C15 UNL     1       4.778   9.756  32.177  1.00  0.00     0.126 A 
HETATM    8  C16 UNL     1       4.797  10.600  33.251  1.00  0.00     0.117 A 
HETATM    9  C17 UNL     1       4.835  11.961  33.355  1.00  0.00     0.054 A 
HETATM   10  C18 UNL     1       4.873  13.054  32.384  1.00  0.00     0.072 C 
HETATM   11  N7  UNL     1       4.872  12.196  34.708  1.00  0.00    -0.288 N 
ATOM     12  H7  UNL     1       4.907  13.116  35.146  1.00  0.00     0.188 HD
HETATM   13  N8  UNL     1       4.856  11.057  35.346  1.00  0.00    -0.231 N 
ATOM     14  H8  UNL     1       4.875  10.949  36.360  1.00  0.00     0.209 HD
HETATM   15  N9  UNL     1       4.812  10.051  34.460  1.00  0.00    -0.186 N 
HETATM   16  C19 UNL     1       4.795   8.736  34.637  1.00  0.00     0.351 A 
HETATM   17  O7  UNL     1       4.808   8.254  35.781  1.00  0.00    -0.244 OA
HETATM   18  N10 UNL     1       4.773   7.837  33.573  1.00  0.00    -0.278 N 
HETATM   19  C24 UNL     1       4.782   8.343  32.359  1.00  0.00     0.168 A 
HETATM   20  N11 UNL     1       4.814   7.549  31.244  1.00  0.00    -0.179 N 
HETATM   21  C25 UNL     1       4.969   6.235  31.132  1.00  0.00     0.283 A 
HETATM   22  O11 UNL     1       5.053   5.266  31.844  1.00  0.00    -0.265 OA
ENDROOT
BRANCH   1  23
HETATM   23  C6  UNL     1       5.193   4.670  29.092  1.00  0.00     0.122 C 
BRANCH  23  24
HETATM   24  N1  UNL     1       6.307   4.420  28.307  1.00  0.00    -0.297 N 
HETATM   25  C5  UNL     1       7.681   4.579  28.637  1.00  0.00     0.365 C 
HETATM   26  O4  UNL     1       8.168   4.970  29.730  1.00  0.00    -0.238 OA
ATOM     27  H1  UNL     1       6.116   4.077  27.366  1.00  0.00     0.171 HD
BRANCH  25  28
HETATM   28  O3  UNL     1       8.656   4.274  27.667  1.00  0.00    -0.302 OA
BRANCH  28  29
HETATM   29  C4  UNL     1       9.274   3.084  27.396  1.00  0.00     0.207 C 
BRANCH  29  30
HETATM   30  C3  UNL     1      10.766   3.178  27.297  1.00  0.00     0.205 C 
BRANCH  30  31
HETATM   31  O2  UNL     1      11.399   2.226  26.496  1.00  0.00    -0.320 OA
BRANCH  31  32
HETATM   32  C2  UNL     1      11.651   0.949  26.820  1.00  0.00     0.254 C 
HETATM   33  C1  UNL     1      10.915  -0.209  26.204  1.00  0.00     0.126 C 
HETATM   34  O1  UNL     1      12.541   0.656  27.669  1.00  0.00    -0.266 OA
ENDBRANCH  31  32
ENDBRANCH  30  31
ENDBRANCH  29  30
ENDBRANCH  28  29
ENDBRANCH  25  28
ENDBRANCH  23  24
BRANCH  23  35
HETATM   35  C7  UNL     1       3.850   4.186  28.750  1.00  0.00     0.277 C 
HETATM   36  O5  UNL     1       3.402   4.189  27.590  1.00  0.00    -0.266 OA
HETATM   37  N2  UNL     1       2.969   3.680  29.772  1.00  0.00    -0.276 N 
HETATM   38  C8  UNL     1       1.670   3.195  29.407  1.00  0.00     0.335 C 
ATOM     39  H2  UNL     1       3.268   3.666  30.747  1.00  0.00     0.173 HD
HETATM   40  N3  UNL     1       0.801   2.715  30.436  1.00  0.00    -0.040 NA
HETATM   41  O6  UNL     1       1.331   3.205  28.199  1.00  0.00    -0.251 OA
ENDBRANCH  23  35
ENDBRANCH   1  23
BRANCH   4  42
HETATM   42  N5  UNL     1       4.788   9.978  28.765  1.00  0.00    -0.220 N 
ATOM     43  H5  UNL     1       3.785  10.077  28.608  1.00  0.00     0.178 HD
BRANCH  42  44
HETATM   44  C12 UNL     1       5.283  10.496  27.635  1.00  0.00     0.091 C 
HETATM   45  C13 UNL     1       5.006   9.764  26.330  1.00  0.00     0.032 C 
HETATM   46  C14 UNL     1       6.830  10.658  27.627  1.00  0.00     0.032 C 
ENDBRANCH  42  44
ENDBRANCH   4  42
BRANCH  18  47
HETATM   47  C20 UNL     1       4.495   6.510  33.991  1.00  0.00     0.170 C 
BRANCH  47  48
HETATM   48  C21 UNL     1       2.950   6.402  34.166  1.00  0.00     0.167 C 
BRANCH  48  49
HETATM   49  O8  UNL     1       2.567   6.414  35.514  1.00  0.00    -0.391 OA
ATOM     50  H8  UNL     1       2.012   5.677  35.736  1.00  0.00     0.210 HD
ENDBRANCH  48  49
BRANCH  48  51
HETATM   51  C22 UNL     1       2.477   4.999  33.716  1.00  0.00     0.172 C 
BRANCH  51  52
HETATM   52  O9  UNL     1       1.945   5.000  32.427  1.00  0.00    -0.391 OA
ATOM     53  H9  UNL     1       1.922   4.132  32.041  1.00  0.00     0.210 HD
ENDBRANCH  51  52
BRANCH  51  54
HETATM   54  C23 UNL     1       1.366   4.552  34.626  1.00  0.00     0.198 C 
BRANCH  54  55
HETATM   55  O10 UNL     1       1.665   3.598  35.551  1.00  0.00    -0.398 OA
ATOM     56  H10 UNL     1       1.027   3.443  36.238  1.00  0.00     0.209 HD
ENDBRANCH  54  55
ENDBRANCH  51  54
ENDBRANCH  48  51
ENDBRANCH  47  48
ENDBRANCH  18  47
TORSDOF 17
ENDMDL
MODEL 2
REMARK VINA RESULT: -8.400823852      3.010      5.888
REMARK  17 active torsions:
REMARK  status: ('A' for Active; 'I' for Inactive)
REMARK    1  A    between atoms: C2_2  and  O2_4 
REMARK    2  A    between atoms: O2_4  and  C3_5 
REMARK    3  A    between atoms: C3_5  and  C4_6 
REMARK    4  A    between atoms: C4_6  and  O3_7 
REMARK    5  A    between atoms: O3_7  and  C5_8 
REMARK       I    between atoms: C5_8  and  N1_10 
REMARK    6  A    between atoms: N1_10  and  C6_12 
REMARK    7  A    between atoms: C6_12  and  C7_13 
REMARK    8  A    between atoms: C6_12  and  C9_20 
REMARK       I    between atoms: C7_13  and  N2_15 
REMARK       I    between atoms: N2_15  and  C8_17 
REMARK    9  A    between atoms: C11_23  and  N5_24 
REMARK   10  A    between atoms: N5_24  and  C12_26 
REMARK   11  A    between atoms: N10_42  and  C20_43 
REMARK   12  A    between atoms: C20_43  and  C21_44 
REMARK   13  A    between atoms: C21_44  and  O8_45 
REMARK   14  A    between atoms: C21_44  and  C22_47 
REMARK   15  A    between atoms: C22_47  and  O9_48 
REMARK   16  A    between atoms: C22_47  and  C23_50 
REMARK   17  A    between atoms: C23_50  and  O10_51 
ROOT
HETATM    1  C9  UNL     1       3.438   6.235  29.824  1.00  0.00     0.084 A 
HETATM    2  C10 UNL     1       2.889   6.687  30.985  1.00  0.00     0.155 A 
HETATM    3  N4  UNL     1       2.615   7.996  30.811  1.00  0.00    -0.086 N 
HETATM    4  C11 UNL     1       1.959   8.819  31.658  1.00  0.00     0.700 A 
HETATM    5  N6  UNL     1       1.652  10.069  31.250  1.00  0.00    -0.184 N 
ATOM      6  H6  UNL     1       1.151  10.694  31.880  1.00  0.00     0.184 HD
HETATM    7  C15 UNL     1       1.993  10.494  30.043  1.00  0.00     0.126 A 
HETATM    8  C16 UNL     1       1.634  11.751  29.650  1.00  0.00     0.117 A 
HETATM    9  C17 UNL     1       0.939  12.749  30.272  1.00  0.00     0.054 A 
HETATM   10  C18 UNL     1       0.304  12.882  31.582  1.00  0.00     0.072 C 
HETATM   11  N7  UNL     1       0.882  13.754  29.337  1.00  0.00    -0.288 N 
ATOM     12  H7  UNL     1       0.429  14.658  29.470  1.00  0.00     0.188 HD
HETATM   13  N8  UNL     1       1.498  13.372  28.251  1.00  0.00    -0.231 N 
ATOM     14  H8  UNL     1       1.602  13.931  27.404  1.00  0.00     0.209 HD
HETATM   15  N9  UNL     1       1.971  12.129  28.422  1.00  0.00    -0.186 N 
HETATM   16  C19 UNL     1       2.644  11.333  27.600  1.00  0.00     0.351 A 
HETATM   17  O7  UNL     1       2.945  11.716  26.459  1.00  0.00    -0.244 OA
HETATM   18  N10 UNL     1       3.034  10.044  27.958  1.00  0.00    -0.278 N 
HETATM   19  C24 UNL     1       2.696   9.626  29.158  1.00  0.00     0.168 A 
HETATM   20  N11 UNL     1       2.985   8.359  29.591  1.00  0.00    -0.179 N 
HETATM   21  C25 UNL     1       3.488   7.322  28.932  1.00  0.00     0.283 A 
HETATM   22  O11 UNL     1       3.938   7.070  27.841  1.00  0.00    -0.265 OA
ENDROOT
BRANCH   1  23
HETATM   23  C6  UNL     1       3.926   4.869  29.604  1.00  0.00     0.122 C 
BRANCH  23  24
HETATM   24  N1  UNL     1       5.265   4.677  29.305  1.00  0.00    -0.297 N 
HETATM   25  C5  UNL     1       6.368   4.568  30.196  1.00  0.00     0.365 C 
HETATM   26  O4  UNL     1       6.346   4.610  31.454  1.00  0.00    -0.238 OA
ATOM     27  H1  UNL     1       5.491   4.604  28.313  1.00  0.00     0.171 HD
BRANCH  25  28
HETATM   28  O3  UNL     1       7.660   4.386  29.665  1.00  0.00    -0.302 OA
BRANCH  28  29
HETATM   29  C4  UNL     1       8.129   4.648  28.406  1.00  0.00     0.207 C 
BRANCH  29  30
HETATM   30  C3  UNL     1       8.788   3.478  27.743  1.00  0.00     0.205 C 
BRANCH  30  31
HETATM   31  O2  UNL     1      10.184   3.483  27.710  1.00  0.00    -0.320 OA
BRANCH  31  32
HETATM   32  C2  UNL     1      10.965   2.860  26.815  1.00  0.00     0.254 C 
HETATM   33  C1  UNL     1      11.295   1.395  26.900  1.00  0.00     0.126 C 
HETATM   34  O1  UNL     1      11.464   3.489  25.837  1.00  0.00    -0.266 OA
ENDBRANCH  31  32
ENDBRANCH  30  31
ENDBRANCH  29  30
ENDBRANCH  28  29
ENDBRANCH  25  28
ENDBRANCH  23  24
BRANCH  23  35
HETATM   35  C7  UNL     1       2.850   4.078  28.995  1.00  0.00     0.277 C 
HETATM   36  O5  UNL     1       2.788   3.842  27.776  1.00  0.00    -0.266 OA
HETATM   37  N2  UNL     1       1.791   3.533  29.805  1.00  0.00    -0.276 N 
HETATM   38  C8  UNL     1       0.763   2.746  29.187  1.00  0.00     0.335 C 
ATOM     39  H2  UNL     1       1.772   3.705  30.810  1.00  0.00     0.173 HD
HETATM   40  N3  UNL     1      -0.292   2.231  30.003  1.00  0.00    -0.040 NA
HETATM   41  O6  UNL     1       0.817   2.533  27.952  1.00  0.00    -0.251 OA
ENDBRANCH  23  35
ENDBRANCH   1  23
BRANCH   4  42
HETATM   42  N5  UNL     1       1.648   8.489  32.791  1.00  0.00    -0.220 N 
ATOM     43  H5  UNL     1       0.713   8.109  32.640  1.00  0.00     0.178 HD
BRANCH  42  44
HETATM   44  C12 UNL     1       1.788   8.322  34.112  1.00  0.00     0.091 C 
HETATM   45  C13 UNL     1       3.101   8.749  34.752  1.00  0.00     0.032 C 
HETATM   46  C14 UNL     1       1.622   6.853  34.593  1.00  0.00     0.032 C 
ENDBRANCH  42  44
ENDBRANCH   4  42
BRANCH  18  47
HETATM   47  C20 UNL     1       3.955   9.483  27.036  1.00  0.00     0.170 C 
BRANCH  47  48
HETATM   48  C21 UNL     1       3.172   9.218  25.715  1.00  0.00     0.167 C 
BRANCH  48  49
HETATM   49  O8  UNL     1       2.483   7.998  25.742  1.00  0.00    -0.391 OA
ATOM     50  H8  UNL     1       1.618   8.065  25.356  1.00  0.00     0.210 HD
ENDBRANCH  48  49
BRANCH  48  51
HETATM   51  C22 UNL     1       4.173   8.989  24.558  1.00  0.00     0.172 C 
BRANCH  51  52
HETATM   52  O9  UNL     1       5.495   8.920  24.998  1.00  0.00    -0.391 OA
ATOM     53  H9  UNL     1       5.744   8.044  25.270  1.00  0.00     0.210 HD
ENDBRANCH  51  52
BRANCH  51  54
HETATM   54  C23 UNL     1       4.105  10.165  23.623  1.00  0.00     0.198 C 
BRANCH  54  55
HETATM   55  O10 UNL     1       2.981  10.932  23.670  1.00  0.00    -0.398 OA
ATOM     56  H10 UNL     1       2.746  11.406  22.880  1.00  0.00     0.209 HD
ENDBRANCH  54  55
ENDBRANCH  51  54
ENDBRANCH  48  51
ENDBRANCH  47  48
ENDBRANCH  18  47
TORSDOF 17
ENDMDL
MODEL 3
REMARK VINA RESULT: -8.395763279      2.403      5.055
REMARK  17 active torsions:
REMARK  status: ('A' for Active; 'I' for Inactive)
REMARK    1  A    between atoms: C2_2  and  O2_4 
REMARK    2  A    between atoms: O2_4  and  C3_5 
REMARK    3  A    between atoms: C3_5  and  C4_6 
REMARK    4  A    between atoms: C4_6  and  O3_7 
REMARK    5  A    between atoms: O3_7  and  C5_8 
REMARK       I    between atoms: C5_8  and  N1_10 
REMARK    6  A    between atoms: N1_10  and  C6_12 
REMARK    7  A    between atoms: C6_12  and  C7_13 
REMARK    8  A    between atoms: C6_12  and  C9_20 
REMARK       I    between atoms: C7_13  and  N2_15 
REMARK       I    between atoms: N2_15  and  C8_17 
REMARK    9  A    between atoms: C11_23  and  N5_24 
REMARK   10  A    between atoms: N5_24  and  C12_26 
REMARK   11  A    between atoms: N10_42  and  C20_43 
REMARK   12  A    between atoms: C20_43  and  C21_44 
REMARK   13  A    between atoms: C21_44  and  O8_45 
REMARK   14  A    between atoms: C21_44  and  C22_47 
REMARK   15  A    between atoms: C22_47  and  O9_48 
REMARK   16  A    between atoms: C22_47  and  C23_50 
REMARK   17  A    between atoms: C23_50  and  O10_51 
ROOT
HETATM    1  C9  UNL     1       5.394   5.755  29.803  1.00  0.00     0.084 A 
HETATM    2  C10 UNL     1       5.456   5.856  31.160  1.00  0.00     0.155 A 
HETATM    3  N4  UNL     1       5.515   7.171  31.457  1.00  0.00    -0.086 N 
HETATM    4  C11 UNL     1       5.472   7.741  32.681  1.00  0.00     0.700 A 
HETATM    5  N6  UNL     1       5.400   9.086  32.775  1.00  0.00    -0.184 N 
ATOM      6  H6  UNL     1       5.360   9.523  33.695  1.00  0.00     0.184 HD
HETATM    7  C15 UNL     1       5.382   9.844  31.689  1.00  0.00     0.126 A 
HETATM    8  C16 UNL     1       5.272  11.198  31.821  1.00  0.00     0.117 A 
HETATM    9  C17 UNL     1       5.160  12.014  32.911  1.00  0.00     0.054 A 
HETATM   10  C18 UNL     1       5.111  11.780  34.354  1.00  0.00     0.072 C 
HETATM   11  N7  UNL     1       5.050  13.275  32.379  1.00  0.00    -0.288 N 
ATOM     12  H7  UNL     1       4.949  14.136  32.918  1.00  0.00     0.188 HD
HETATM   13  N8  UNL     1       5.094  13.202  31.076  1.00  0.00    -0.231 N 
ATOM     14  H8  UNL     1       5.035  13.996  30.439  1.00  0.00     0.209 HD
HETATM   15  N9  UNL     1       5.229  11.920  30.707  1.00  0.00    -0.186 N 
HETATM   16  C19 UNL     1       5.305  11.364  29.504  1.00  0.00     0.351 A 
HETATM   17  O7  UNL     1       5.263  12.067  28.481  1.00  0.00    -0.244 OA
HETATM   18  N10 UNL     1       5.421   9.988  29.320  1.00  0.00    -0.278 N 
HETATM   19  C24 UNL     1       5.441   9.238  30.400  1.00  0.00     0.168 A 
HETATM   20  N11 UNL     1       5.501   7.871  30.332  1.00  0.00    -0.179 N 
HETATM   21  C25 UNL     1       5.417   7.062  29.283  1.00  0.00     0.283 A 
HETATM   22  O11 UNL     1       5.349   7.136  28.081  1.00  0.00    -0.265 OA
ENDROOT
BRANCH   1  23
HETATM   23  C6  UNL     1       5.366   4.492  29.058  1.00  0.00     0.122 C 
BRANCH  23  24
HETATM   24  N1  UNL     1       6.412   4.196  28.200  1.00  0.00    -0.297 N 
HETATM   25  C5  UNL     1       7.811   4.304  28.434  1.00  0.00     0.365 C 
HETATM   26  O4  UNL     1       8.387   4.680  29.488  1.00  0.00    -0.238 OA
ATOM     27  H1  UNL     1       6.144   3.857  27.276  1.00  0.00     0.171 HD
BRANCH  25  28
HETATM   28  O3  UNL     1       8.704   3.958  27.401  1.00  0.00    -0.302 OA
BRANCH  28  29
HETATM   29  C4  UNL     1       9.536   2.877  27.293  1.00  0.00     0.207 C 
BRANCH  29  30
HETATM   30  C3  UNL     1      10.932   3.218  26.870  1.00  0.00     0.205 C 
BRANCH  30  31
HETATM   31  O2  UNL     1      11.693   2.178  26.333  1.00  0.00    -0.320 OA
BRANCH  31  32
HETATM   32  C2  UNL     1      11.778   0.924  26.804  1.00  0.00     0.254 C 
HETATM   33  C1  UNL     1      10.945  -0.207  26.266  1.00  0.00     0.126 C 
HETATM   34  O1  UNL     1      12.583   0.631  27.733  1.00  0.00    -0.266 OA
ENDBRANCH  31  32
ENDBRANCH  30  31
ENDBRANCH  29  30
ENDBRANCH  28  29
ENDBRANCH  25  28
ENDBRANCH  23  24
BRANCH  23  35
HETATM   35  C7  UNL     1       3.968   4.153  28.760  1.00  0.00     0.277 C 
HETATM   36  O5  UNL     1       3.429   4.399  27.667  1.00  0.00    -0.266 OA
HETATM   37  N2  UNL     1       3.141   3.512  29.750  1.00  0.00    -0.276 N 
HETATM   38  C8  UNL     1       1.786   3.174  29.425  1.00  0.00     0.335 C 
ATOM     39  H2  UNL     1       3.517   3.299  30.674  1.00  0.00     0.173 HD
HETATM   40  N3  UNL     1       0.973   2.556  30.426  1.00  0.00    -0.040 NA
HETATM   41  O6  UNL     1       1.351   3.429  28.276  1.00  0.00    -0.251 OA
ENDBRANCH  23  35
ENDBRANCH   1  23
BRANCH   4  42
HETATM   42  N5  UNL     1       5.517   7.091  33.713  1.00  0.00    -0.220 N 
ATOM     43  H5  UNL     1       6.518   6.918  33.799  1.00  0.00     0.178 HD
BRANCH  42  44
HETATM   44  C12 UNL     1       5.049   6.468  34.802  1.00  0.00     0.091 C 
HETATM   45  C13 UNL     1       3.574   6.099  34.837  1.00  0.00     0.032 C 
HETATM   46  C14 UNL     1       5.247   7.257  36.127  1.00  0.00     0.032 C 
ENDBRANCH  42  44
ENDBRANCH   4  42
BRANCH  18  47
HETATM   47  C20 UNL     1       5.745   9.647  27.982  1.00  0.00     0.170 C 
BRANCH  47  48
HETATM   48  C21 UNL     1       4.503   9.998  27.109  1.00  0.00     0.167 C 
BRANCH  48  49
HETATM   49  O8  UNL     1       3.616   8.920  26.991  1.00  0.00    -0.391 OA
ATOM     50  H8  UNL     1       2.732   9.203  26.793  1.00  0.00     0.210 HD
ENDBRANCH  48  49
BRANCH  48  51
HETATM   51  C22 UNL     1       4.946  10.205  25.641  1.00  0.00     0.172 C 
BRANCH  51  52
HETATM   52  O9  UNL     1       5.628  11.406  25.450  1.00  0.00    -0.391 OA
ATOM     53  H9  UNL     1       6.459  11.288  25.005  1.00  0.00     0.210 HD
ENDBRANCH  51  52
BRANCH  51  54
HETATM   54  C23 UNL     1       3.719  10.278  24.774  1.00  0.00     0.198 C 
BRANCH  54  55
HETATM   55  O10 UNL     1       3.217   9.102  24.305  1.00  0.00    -0.398 OA
ATOM     56  H10 UNL     1       2.679   8.592  24.899  1.00  0.00     0.209 HD
ENDBRANCH  54  55
ENDBRANCH  51  54
ENDBRANCH  48  51
ENDBRANCH  47  48
ENDBRANCH  18  47
TORSDOF 17
ENDMDL
MODEL 4
REMARK VINA RESULT: -8.304913637      2.664      4.518
REMARK  17 active torsions:
REMARK  status: ('A' for Active; 'I' for Inactive)
REMARK    1  A    between atoms: C2_2  and  O2_4 
REMARK    2  A    between atoms: O2_4  and  C3_5 
REMARK    3  A    between atoms: C3_5  and  C4_6 
REMARK    4  A    between atoms: C4_6  and  O3_7 
REMARK    5  A    between atoms: O3_7  and  C5_8 
REMARK       I    between atoms: C5_8  and  N1_10 
REMARK    6  A    between atoms: N1_10  and  C6_12 
REMARK    7  A    between atoms: C6_12  and  C7_13 
REMARK    8  A    between atoms: C6_12  and  C9_20 
REMARK       I    between atoms: C7_13  and  N2_15 
REMARK       I    between atoms: N2_15  and  C8_17 
REMARK    9  A    between atoms: C11_23  and  N5_24 
REMARK   10  A    between atoms: N5_24  and  C12_26 
REMARK   11  A    between atoms: N10_42  and  C20_43 
REMARK   12  A    between atoms: C20_43  and  C21_44 
REMARK   13  A    between atoms: C21_44  and  O8_45 
REMARK   14  A    between atoms: C21_44  and  C22_47 
REMARK   15  A    between atoms: C22_47  and  O9_48 
REMARK   16  A    between atoms: C22_47  and  C23_50 
REMARK   17  A    between atoms: C23_50  and  O10_51 
ROOT
HETATM    1  C9  UNL     1       3.650   6.918  29.249  1.00  0.00     0.084 A 
HETATM    2  C10 UNL     1       3.248   8.171  29.598  1.00  0.00     0.155 A 
HETATM    3  N4  UNL     1       2.681   8.081  30.819  1.00  0.00    -0.086 N 
HETATM    4  C11 UNL     1       2.247   9.092  31.602  1.00  0.00     0.700 A 
HETATM    5  N6  UNL     1       1.835   8.818  32.858  1.00  0.00    -0.184 N 
ATOM      6  H6  UNL     1       1.514   9.577  33.458  1.00  0.00     0.184 HD
HETATM    7  C15 UNL     1       1.844   7.577  33.321  1.00  0.00     0.126 A 
HETATM    8  C16 UNL     1       1.456   7.341  34.608  1.00  0.00     0.117 A 
HETATM    9  C17 UNL     1       1.031   8.166  35.610  1.00  0.00     0.054 A 
HETATM   10  C18 UNL     1       0.825   9.610  35.719  1.00  0.00     0.072 C 
HETATM   11  N7  UNL     1       0.826   7.324  36.676  1.00  0.00    -0.288 N 
ATOM     12  H7  UNL     1       0.504   7.612  37.601  1.00  0.00     0.188 HD
HETATM   13  N8  UNL     1       1.109   6.100  36.323  1.00  0.00    -0.231 N 
ATOM     14  H8  UNL     1       1.040   5.281  36.928  1.00  0.00     0.209 HD
HETATM   15  N9  UNL     1       1.504   6.087  35.042  1.00  0.00    -0.186 N 
HETATM   16  C19 UNL     1       1.899   5.087  34.264  1.00  0.00     0.351 A 
HETATM   17  O7  UNL     1       1.933   3.925  34.699  1.00  0.00    -0.244 OA
HETATM   18  N10 UNL     1       2.302   5.279  32.943  1.00  0.00    -0.278 N 
HETATM   19  C24 UNL     1       2.290   6.512  32.486  1.00  0.00     0.168 A 
HETATM   20  N11 UNL     1       2.715   6.818  31.220  1.00  0.00    -0.179 N 
HETATM   21  C25 UNL     1       3.305   6.057  30.307  1.00  0.00     0.283 A 
HETATM   22  O11 UNL     1       3.617   4.902  30.150  1.00  0.00    -0.265 OA
ENDROOT
BRANCH   1  23
HETATM   23  C6  UNL     1       4.275   6.564  27.970  1.00  0.00     0.122 C 
BRANCH  23  24
HETATM   24  N1  UNL     1       5.513   5.943  27.978  1.00  0.00    -0.297 N 
HETATM   25  C5  UNL     1       6.783   6.498  28.296  1.00  0.00     0.365 C 
HETATM   26  O4  UNL     1       7.039   7.677  28.652  1.00  0.00    -0.238 OA
ATOM     27  H1  UNL     1       5.514   4.956  27.722  1.00  0.00     0.171 HD
BRANCH  25  28
HETATM   28  O3  UNL     1       7.924   5.675  28.223  1.00  0.00    -0.302 OA
BRANCH  28  29
HETATM   29  C4  UNL     1       8.098   4.386  28.647  1.00  0.00     0.207 C 
BRANCH  29  30
HETATM   30  C3  UNL     1       8.774   3.498  27.648  1.00  0.00     0.205 C 
BRANCH  30  31
HETATM   31  O2  UNL     1      10.170   3.497  27.656  1.00  0.00    -0.320 OA
BRANCH  31  32
HETATM   32  C2  UNL     1      10.975   2.872  26.784  1.00  0.00     0.254 C 
HETATM   33  C1  UNL     1      11.350   1.421  26.916  1.00  0.00     0.126 C 
HETATM   34  O1  UNL     1      11.458   3.485  25.789  1.00  0.00    -0.266 OA
ENDBRANCH  31  32
ENDBRANCH  30  31
ENDBRANCH  29  30
ENDBRANCH  28  29
ENDBRANCH  25  28
ENDBRANCH  23  24
BRANCH  23  35
HETATM   35  C7  UNL     1       3.889   7.564  26.966  1.00  0.00     0.277 C 
HETATM   36  O5  UNL     1       2.752   7.623  26.469  1.00  0.00    -0.266 OA
HETATM   37  N2  UNL     1       4.841   8.540  26.499  1.00  0.00    -0.276 N 
HETATM   38  C8  UNL     1       4.432   9.518  25.533  1.00  0.00     0.335 C 
ATOM     39  H2  UNL     1       5.797   8.535  26.853  1.00  0.00     0.173 HD
HETATM   40  N3  UNL     1       5.395  10.466  25.066  1.00  0.00    -0.040 NA
HETATM   41  O6  UNL     1       3.246   9.515  25.125  1.00  0.00    -0.251 OA
ENDBRANCH  23  35
ENDBRANCH   1  23
BRANCH   4  42
HETATM   42  N5  UNL     1       2.190  10.249  31.215  1.00  0.00    -0.220 N 
ATOM     43  H5  UNL     1       3.145  10.565  31.388  1.00  0.00     0.178 HD
BRANCH  42  44
HETATM   44  C12 UNL     1       1.637  11.354  30.702  1.00  0.00     0.091 C 
HETATM   45  C13 UNL     1       1.242  11.342  29.233  1.00  0.00     0.032 C 
HETATM   46  C14 UNL     1       2.522  12.628  30.819  1.00  0.00     0.032 C 
ENDBRANCH  42  44
ENDBRANCH   4  42
BRANCH  18  47
HETATM   47  C20 UNL     1       2.427   4.057  32.234  1.00  0.00     0.170 C 
BRANCH  47  48
HETATM   48  C21 UNL     1       1.105   3.857  31.435  1.00  0.00     0.167 C 
BRANCH  48  49
HETATM   49  O8  UNL     1       0.011   3.605  32.274  1.00  0.00    -0.391 OA
ATOM     50  H8  UNL     1      -0.707   4.206  32.118  1.00  0.00     0.210 HD
ENDBRANCH  48  49
BRANCH  48  51
HETATM   51  C22 UNL     1       1.187   2.544  30.620  1.00  0.00     0.172 C 
BRANCH  51  52
HETATM   52  O9  UNL     1       2.490   2.062  30.509  1.00  0.00    -0.391 OA
ATOM     53  H9  UNL     1       2.780   1.994  29.607  1.00  0.00     0.210 HD
ENDBRANCH  51  52
BRANCH  51  54
HETATM   54  C23 UNL     1       0.723   2.820  29.216  1.00  0.00     0.198 C 
BRANCH  54  55
HETATM   55  O10 UNL     1       1.576   3.498  28.400  1.00  0.00    -0.398 OA
ATOM     56  H10 UNL     1       1.235   4.267  27.958  1.00  0.00     0.209 HD
ENDBRANCH  54  55
ENDBRANCH  51  54
ENDBRANCH  48  51
ENDBRANCH  47  48
ENDBRANCH  18  47
TORSDOF 17
ENDMDL
MODEL 5
REMARK VINA RESULT: -8.296163011      2.796      5.413
REMARK  17 active torsions:
REMARK  status: ('A' for Active; 'I' for Inactive)
REMARK    1  A    between atoms: C2_2  and  O2_4 
REMARK    2  A    between atoms: O2_4  and  C3_5 
REMARK    3  A    between atoms: C3_5  and  C4_6 
REMARK    4  A    between atoms: C4_6  and  O3_7 
REMARK    5  A    between atoms: O3_7  and  C5_8 
REMARK       I    between atoms: C5_8  and  N1_10 
REMARK    6  A    between atoms: N1_10  and  C6_12 
REMARK    7  A    between atoms: C6_12  and  C7_13 
REMARK    8  A    between atoms: C6_12  and  C9_20 
REMARK       I    between atoms: C7_13  and  N2_15 
REMARK       I    between atoms: N2_15  and  C8_17 
REMARK    9  A    between atoms: C11_23  and  N5_24 
REMARK   10  A    between atoms: N5_24  and  C12_26 
REMARK   11  A    between atoms: N10_42  and  C20_43 
REMARK   12  A    between atoms: C20_43  and  C21_44 
REMARK   13  A    between atoms: C21_44  and  O8_45 
REMARK   14  A    between atoms: C21_44  and  C22_47 
REMARK   15  A    between atoms: C22_47  and  O9_48 
REMARK   16  A    between atoms: C22_47  and  C23_50 
REMARK   17  A    between atoms: C23_50  and  O10_51 
ROOT
HETATM    1  C9  UNL     1       4.063   6.043  31.027  1.00  0.00     0.084 A 
HETATM    2  C10 UNL     1       4.172   6.756  32.182  1.00  0.00     0.155 A 
HETATM    3  N4  UNL     1       3.661   7.981  31.942  1.00  0.00    -0.086 N 
HETATM    4  C11 UNL     1       3.459   8.977  32.833  1.00  0.00     0.700 A 
HETATM    5  N6  UNL     1       2.803  10.087  32.435  1.00  0.00    -0.184 N 
ATOM      6  H6  UNL     1       2.639  10.840  33.103  1.00  0.00     0.184 HD
HETATM    7  C15 UNL     1       2.369  10.212  31.190  1.00  0.00     0.126 A 
HETATM    8  C16 UNL     1       1.677  11.333  30.832  1.00  0.00     0.117 A 
HETATM    9  C17 UNL     1       1.294  12.444  31.529  1.00  0.00     0.054 A 
HETATM   10  C18 UNL     1       1.460  12.881  32.915  1.00  0.00     0.072 C 
HETATM   11  N7  UNL     1       0.595  13.193  30.614  1.00  0.00    -0.288 N 
ATOM     12  H7  UNL     1       0.161  14.097  30.801  1.00  0.00     0.188 HD
HETATM   13  N8  UNL     1       0.571  12.567  29.469  1.00  0.00    -0.231 N 
ATOM     14  H8  UNL     1       0.118  12.907  28.621  1.00  0.00     0.209 HD
HETATM   15  N9  UNL     1       1.236  11.407  29.582  1.00  0.00    -0.186 N 
HETATM   16  C19 UNL     1       1.462  10.445  28.696  1.00  0.00     0.351 A 
HETATM   17  O7  UNL     1       1.037  10.544  27.534  1.00  0.00    -0.244 OA
HETATM   18  N10 UNL     1       2.165   9.285  29.015  1.00  0.00    -0.278 N 
HETATM   19  C24 UNL     1       2.597   9.165  30.251  1.00  0.00     0.168 A 
HETATM   20  N11 UNL     1       3.254   8.043  30.683  1.00  0.00    -0.179 N 
HETATM   21  C25 UNL     1       3.463   6.884  30.071  1.00  0.00     0.283 A 
HETATM   22  O11 UNL     1       3.281   6.381  28.989  1.00  0.00    -0.265 OA
ENDROOT
BRANCH   1  23
HETATM   23  C6  UNL     1       4.545   4.671  30.840  1.00  0.00     0.122 C 
BRANCH  23  24
HETATM   24  N1  UNL     1       5.672   4.457  30.063  1.00  0.00    -0.297 N 
HETATM   25  C5  UNL     1       7.023   4.799  30.344  1.00  0.00     0.365 C 
HETATM   26  O4  UNL     1       7.475   5.359  31.377  1.00  0.00    -0.238 OA
ATOM     27  H1  UNL     1       5.511   3.992  29.169  1.00  0.00     0.171 HD
BRANCH  25  28
HETATM   28  O3  UNL     1       8.016   4.495  29.392  1.00  0.00    -0.302 OA
BRANCH  28  29
HETATM   29  C4  UNL     1       7.938   4.479  28.026  1.00  0.00     0.207 C 
BRANCH  29  30
HETATM   30  C3  UNL     1       8.743   3.394  27.379  1.00  0.00     0.205 C 
BRANCH  30  31
HETATM   31  O2  UNL     1      10.129   3.466  27.537  1.00  0.00    -0.320 OA
BRANCH  31  32
HETATM   32  C2  UNL     1      11.053   2.884  26.758  1.00  0.00     0.254 C 
HETATM   33  C1  UNL     1      11.492   1.457  26.939  1.00  0.00     0.126 C 
HETATM   34  O1  UNL     1      11.603   3.521  25.814  1.00  0.00    -0.266 OA
ENDBRANCH  31  32
ENDBRANCH  30  31
ENDBRANCH  29  30
ENDBRANCH  28  29
ENDBRANCH  25  28
ENDBRANCH  23  24
BRANCH  23  35
HETATM   35  C7  UNL     1       3.392   3.763  30.841  1.00  0.00     0.277 C 
HETATM   36  O5  UNL     1       2.985   3.184  31.863  1.00  0.00    -0.266 OA
HETATM   37  N2  UNL     1       2.669   3.492  29.624  1.00  0.00    -0.276 N 
HETATM   38  C8  UNL     1       1.534   2.617  29.657  1.00  0.00     0.335 C 
ATOM     39  H2  UNL     1       2.963   3.921  28.747  1.00  0.00     0.173 HD
HETATM   40  N3  UNL     1       0.841   2.344  28.437  1.00  0.00    -0.040 NA
HETATM   41  O6  UNL     1       1.181   2.116  30.752  1.00  0.00    -0.251 OA
ENDBRANCH  23  35
ENDBRANCH   1  23
BRANCH   4  42
HETATM   42  N5  UNL     1       3.863   8.926  33.984  1.00  0.00    -0.220 N 
ATOM     43  H5  UNL     1       4.684   9.530  33.935  1.00  0.00     0.178 HD
BRANCH  42  44
HETATM   44  C12 UNL     1       3.884   8.559  35.270  1.00  0.00     0.091 C 
HETATM   45  C13 UNL     1       5.087   7.774  35.771  1.00  0.00     0.032 C 
HETATM   46  C14 UNL     1       2.681   7.676  35.705  1.00  0.00     0.032 C 
ENDBRANCH  42  44
ENDBRANCH   4  42
BRANCH  18  47
HETATM   47  C20 UNL     1       2.509   8.528  27.865  1.00  0.00     0.170 C 
BRANCH  47  48
HETATM   48  C21 UNL     1       3.623   9.320  27.116  1.00  0.00     0.167 C 
BRANCH  48  49
HETATM   49  O8  UNL     1       3.189   9.800  25.873  1.00  0.00    -0.391 OA
ATOM     50  H8  UNL     1       2.392  10.310  25.944  1.00  0.00     0.210 HD
ENDBRANCH  48  49
BRANCH  48  51
HETATM   51  C22 UNL     1       4.756   8.350  26.701  1.00  0.00     0.172 C 
BRANCH  51  52
HETATM   52  O9  UNL     1       5.596   8.020  27.764  1.00  0.00    -0.391 OA
ATOM     53  H9  UNL     1       6.341   7.497  27.492  1.00  0.00     0.210 HD
ENDBRANCH  51  52
BRANCH  51  54
HETATM   54  C23 UNL     1       5.622   9.031  25.678  1.00  0.00     0.198 C 
BRANCH  54  55
HETATM   55  O10 UNL     1       5.504   8.616  24.387  1.00  0.00    -0.398 OA
ATOM     56  H10 UNL     1       6.162   8.920  23.772  1.00  0.00     0.209 HD
ENDBRANCH  54  55
ENDBRANCH  51  54
ENDBRANCH  48  51
ENDBRANCH  47  48
ENDBRANCH  18  47
TORSDOF 17
ENDMDL
