MODEL 1
REMARK VINA RESULT: -10.413909140      0.000      0.000
REMARK  12 active torsions:
REMARK  status: ('A' for Active; 'I' for Inactive)
REMARK       I    between atoms: C2_2  and  N1_4 
REMARK    1  A    between atoms: N2_6  and  C4_8 
REMARK    2  A    between atoms: C6_12  and  S1_13 
REMARK    3  A    between atoms: S1_13  and  N4_16 
REMARK       I    between atoms: N4_16  and  C7_18 
REMARK    4  A    between atoms: C7_18  and  C8_20 
REMARK    5  A    between atoms: C8_20  and  C9_21 
REMARK    6  A    between atoms: C9_21  and  C10_22 
REMARK    7  A    between atoms: C10_22  and  S2_23 
REMARK    8  A    between atoms: S2_23  and  C11_24 
REMARK    9  A    between atoms: N6_32  and  N7_33 
REMARK   10  A    between atoms: C18_44  and  N12_45 
REMARK   11  A    between atoms: N12_45  and  C19_47 
REMARK   12  A    between atoms: C19_47  and  C20_48 
ROOT
HETATM    1  C4  UNL     1       0.962   4.296  34.023  1.00  0.00     0.701 A 
HETATM    2  N3  UNL     1      -0.130   4.906  34.596  1.00  0.00    -0.170 N 
ATOM      3  H3  UNL     1      -0.982   5.188  34.114  1.00  0.00     0.186 HD
HETATM    4  C5  UNL     1       0.127   5.063  35.900  1.00  0.00     0.188 A 
HETATM    5  C6  UNL     1      -0.423   5.542  37.094  1.00  0.00     0.170 A 
HETATM    6  C16 UNL     1       0.499   5.328  38.096  1.00  0.00     0.160 A 
HETATM    7  N8  UNL     1       0.337   5.665  39.467  1.00  0.00    -0.079 NA
HETATM    8  N9  UNL     1       1.569   4.739  37.510  1.00  0.00    -0.263 N 
ATOM      9  H9  UNL     1       2.421   4.459  37.997  1.00  0.00     0.190 HD
HETATM   10  N10 UNL     1       1.348   4.580  36.195  1.00  0.00    -0.162 N 
HETATM   11  N11 UNL     1       1.820   4.128  35.049  1.00  0.00    -0.109 N 
ATOM     12  H11 UNL     1       2.739   3.696  34.949  1.00  0.00     0.208 HD
ENDROOT
BRANCH   5  13
HETATM   13  S1  UNL     1      -1.976   6.292  37.227  1.00  0.00     0.272 S 
HETATM   14  O2  UNL     1      -1.869   7.798  37.003  1.00  0.00    -0.200 OA
HETATM   15  O3  UNL     1      -2.922   5.795  36.139  1.00  0.00    -0.200 OA
BRANCH  13  16
HETATM   16  N4  UNL     1      -2.739   6.008  38.735  1.00  0.00    -0.250 N 
HETATM   17  C7  UNL     1      -3.138   4.717  39.174  1.00  0.00     0.231 C 
HETATM   18  O4  UNL     1      -2.932   3.737  38.429  1.00  0.00    -0.273 OA
ATOM     19  H4  UNL     1      -2.916   6.804  39.348  1.00  0.00     0.181 HD
BRANCH  17  20
HETATM   20  C8  UNL     1      -3.779   4.550  40.488  1.00  0.00     0.104 C 
BRANCH  20  21
HETATM   21  C9  UNL     1      -3.596   5.656  41.452  1.00  0.00     0.020 C 
BRANCH  21  22
HETATM   22  C10 UNL     1      -2.226   5.827  42.018  1.00  0.00     0.081 C 
BRANCH  22  23
HETATM   23  S2  UNL     1      -1.793   7.615  41.957  1.00  0.00    -0.110 SA
BRANCH  23  24
HETATM   24  C11 UNL     1      -0.922   8.061  43.462  1.00  0.00     0.102 A 
HETATM   25  C12 UNL     1      -0.331   7.064  44.193  1.00  0.00     0.113 A 
HETATM   26  C13 UNL     1       0.326   7.450  45.345  1.00  0.00     0.253 A 
HETATM   27  O5  UNL     1       0.887   6.557  46.049  1.00  0.00    -0.268 OA
HETATM   28  N5  UNL     1       0.346   8.748  45.670  1.00  0.00    -0.269 N 
HETATM   29  C14 UNL     1       1.047   9.138  46.892  1.00  0.00     0.164 C 
HETATM   30  C15 UNL     1      -0.236   9.724  44.949  1.00  0.00     0.350 A 
HETATM   31  O6  UNL     1      -0.200  10.934  45.283  1.00  0.00    -0.244 OA
HETATM   32  N6  UNL     1      -0.877   9.358  43.830  1.00  0.00    -0.205 N 
BRANCH  32  33
HETATM   33  N7  UNL     1      -1.480  10.350  43.056  1.00  0.00    -0.334 N 
ATOM     34  H72 UNL     1      -1.403  10.288  42.041  1.00  0.00     0.177 HD
ATOM     35  H71 UNL     1      -1.995  11.117  43.487  1.00  0.00     0.177 HD
ENDBRANCH  32  33
ENDBRANCH  23  24
ENDBRANCH  22  23
ENDBRANCH  21  22
ENDBRANCH  20  21
ENDBRANCH  17  20
ENDBRANCH  13  16
ENDBRANCH   5  13
BRANCH   1  36
HETATM   36  N2  UNL     1       1.044   3.938  32.690  1.00  0.00    -0.174 N 
HETATM   37  C3  UNL     1       1.883   3.922  31.787  1.00  0.00     0.138 A 
HETATM   38  N1  UNL     1       1.502   3.454  30.549  1.00  0.00    -0.218 N 
HETATM   39  C17 UNL     1       3.175   4.357  31.944  1.00  0.00     0.098 A 
HETATM   40  C2  UNL     1       0.154   2.997  30.370  1.00  0.00     0.229 C 
HETATM   41  C21 UNL     1       2.398   3.448  29.572  1.00  0.00     0.336 A 
HETATM   42  C1  UNL     1      -0.352   2.468  29.086  1.00  0.00     0.118 C 
HETATM   43  O1  UNL     1      -0.664   3.041  31.348  1.00  0.00    -0.273 OA
HETATM   44  N14 UNL     1       3.684   3.877  29.707  1.00  0.00    -0.294 N 
HETATM   45  O8  UNL     1       2.088   3.024  28.410  1.00  0.00    -0.246 OA
HETATM   46  C18 UNL     1       4.110   4.345  30.904  1.00  0.00     0.108 A 
ATOM     47  H14 UNL     1       4.322   3.845  28.911  1.00  0.00     0.172 HD
ATOM     48  H2  UNL     1       0.148   3.582  32.357  1.00  0.00     0.186 HD
BRANCH  46  49
HETATM   49  N12 UNL     1       5.429   4.813  31.089  1.00  0.00    -0.368 N 
ATOM     50  H12 UNL     1       5.570   5.734  31.505  1.00  0.00     0.161 HD
BRANCH  49  51
HETATM   51  C19 UNL     1       6.569   4.045  30.715  1.00  0.00     0.220 C 
BRANCH  51  52
HETATM   52  C20 UNL     1       7.603   4.968  30.138  1.00  0.00     0.248 C 
HETATM   53  N13 UNL     1       7.719   4.985  28.704  1.00  0.00    -0.061 NA
HETATM   54  O7  UNL     1       8.344   5.699  30.822  1.00  0.00    -0.275 OA
ENDBRANCH  51  52
ENDBRANCH  49  51
ENDBRANCH  46  49
ENDBRANCH   1  36
TORSDOF 12
ENDMDL
MODEL 2
REMARK VINA RESULT: -10.029295679      2.009      4.098
REMARK  12 active torsions:
REMARK  status: ('A' for Active; 'I' for Inactive)
REMARK       I    between atoms: C2_2  and  N1_4 
REMARK    1  A    between atoms: N2_6  and  C4_8 
REMARK    2  A    between atoms: C6_12  and  S1_13 
REMARK    3  A    between atoms: S1_13  and  N4_16 
REMARK       I    between atoms: N4_16  and  C7_18 
REMARK    4  A    between atoms: C7_18  and  C8_20 
REMARK    5  A    between atoms: C8_20  and  C9_21 
REMARK    6  A    between atoms: C9_21  and  C10_22 
REMARK    7  A    between atoms: C10_22  and  S2_23 
REMARK    8  A    between atoms: S2_23  and  C11_24 
REMARK    9  A    between atoms: N6_32  and  N7_33 
REMARK   10  A    between atoms: C18_44  and  N12_45 
REMARK   11  A    between atoms: N12_45  and  C19_47 
REMARK   12  A    between atoms: C19_47  and  C20_48 
ROOT
HETATM    1  C4  UNL     1       3.090   6.675  33.122  1.00  0.00     0.701 A 
HETATM    2  N3  UNL     1       2.376   5.755  33.854  1.00  0.00    -0.170 N 
ATOM      3  H3  UNL     1       2.644   4.787  34.029  1.00  0.00     0.186 HD
HETATM    4  C5  UNL     1       1.266   6.357  34.297  1.00  0.00     0.188 A 
HETATM    5  C6  UNL     1       0.113   6.146  35.061  1.00  0.00     0.170 A 
HETATM    6  C16 UNL     1      -0.598   7.326  35.083  1.00  0.00     0.160 A 
HETATM    7  N8  UNL     1      -1.832   7.548  35.751  1.00  0.00    -0.079 NA
HETATM    8  N9  UNL     1       0.115   8.214  34.347  1.00  0.00    -0.263 N 
ATOM      9  H9  UNL     1      -0.158   9.182  34.175  1.00  0.00     0.190 HD
HETATM   10  N10 UNL     1       1.231   7.635  33.876  1.00  0.00    -0.162 N 
HETATM   11  N11 UNL     1       2.338   7.792  33.176  1.00  0.00    -0.109 N 
ATOM     12  H11 UNL     1       2.598   8.668  32.722  1.00  0.00     0.208 HD
ENDROOT
BRANCH   5  13
HETATM   13  S1  UNL     1      -0.313   4.640  35.798  1.00  0.00     0.272 S 
HETATM   14  O2  UNL     1      -0.852   3.663  34.756  1.00  0.00    -0.200 OA
HETATM   15  O3  UNL     1       0.912   3.952  36.392  1.00  0.00    -0.200 OA
BRANCH  13  16
HETATM   16  N4  UNL     1      -1.467   4.804  37.055  1.00  0.00    -0.250 N 
HETATM   17  C7  UNL     1      -1.177   5.420  38.302  1.00  0.00     0.231 C 
HETATM   18  O4  UNL     1      -0.026   5.862  38.502  1.00  0.00    -0.273 OA
ATOM     19  H4  UNL     1      -2.407   4.440  36.901  1.00  0.00     0.181 HD
BRANCH  17  20
HETATM   20  C8  UNL     1      -2.223   5.533  39.330  1.00  0.00     0.104 C 
BRANCH  20  21
HETATM   21  C9  UNL     1      -1.861   5.070  40.687  1.00  0.00     0.020 C 
BRANCH  21  22
HETATM   22  C10 UNL     1      -2.435   5.839  41.829  1.00  0.00     0.081 C 
BRANCH  22  23
HETATM   23  S2  UNL     1      -1.843   7.578  41.714  1.00  0.00    -0.110 SA
BRANCH  23  24
HETATM   24  C11 UNL     1      -0.962   7.999  43.220  1.00  0.00     0.102 A 
HETATM   25  C12 UNL     1      -0.403   6.986  43.954  1.00  0.00     0.113 A 
HETATM   26  C13 UNL     1       0.263   7.353  45.107  1.00  0.00     0.253 A 
HETATM   27  O5  UNL     1       0.794   6.445  45.814  1.00  0.00    -0.268 OA
HETATM   28  N5  UNL     1       0.323   8.651  45.429  1.00  0.00    -0.269 N 
HETATM   29  C14 UNL     1       1.034   9.021  46.652  1.00  0.00     0.164 C 
HETATM   30  C15 UNL     1      -0.227   9.643  44.705  1.00  0.00     0.350 A 
HETATM   31  O6  UNL     1      -0.153  10.853  45.036  1.00  0.00    -0.244 OA
HETATM   32  N6  UNL     1      -0.876   9.296  43.585  1.00  0.00    -0.205 N 
BRANCH  32  33
HETATM   33  N7  UNL     1      -1.446  10.304  42.808  1.00  0.00    -0.334 N 
ATOM     34  H72 UNL     1      -2.377  10.639  43.054  1.00  0.00     0.177 HD
ATOM     35  H71 UNL     1      -0.946  10.707  42.016  1.00  0.00     0.177 HD
ENDBRANCH  32  33
ENDBRANCH  23  24
ENDBRANCH  22  23
ENDBRANCH  21  22
ENDBRANCH  20  21
ENDBRANCH  17  20
ENDBRANCH  13  16
ENDBRANCH   5  13
BRANCH   1  36
HETATM   36  N2  UNL     1       4.318   6.422  32.538  1.00  0.00    -0.174 N 
HETATM   37  C3  UNL     1       4.808   5.646  31.716  1.00  0.00     0.138 A 
HETATM   38  N1  UNL     1       6.147   5.767  31.420  1.00  0.00    -0.218 N 
HETATM   39  C17 UNL     1       4.094   4.658  31.086  1.00  0.00     0.098 A 
HETATM   40  C2  UNL     1       6.908   6.794  32.073  1.00  0.00     0.229 C 
HETATM   41  C21 UNL     1       6.681   4.924  30.546  1.00  0.00     0.336 A 
HETATM   42  C1  UNL     1       8.346   7.013  31.819  1.00  0.00     0.118 C 
HETATM   43  O1  UNL     1       6.337   7.565  32.914  1.00  0.00    -0.273 OA
HETATM   44  N14 UNL     1       5.990   3.936  29.912  1.00  0.00    -0.294 N 
HETATM   45  O8  UNL     1       7.917   5.000  30.244  1.00  0.00    -0.246 OA
HETATM   46  C18 UNL     1       4.669   3.776  30.165  1.00  0.00     0.108 A 
ATOM     47  H14 UNL     1       6.465   3.322  29.250  1.00  0.00     0.172 HD
ATOM     48  H2  UNL     1       5.024   7.068  32.890  1.00  0.00     0.186 HD
BRANCH  46  49
HETATM   49  N12 UNL     1       3.915   2.758  29.543  1.00  0.00    -0.368 N 
ATOM     50  H12 UNL     1       4.298   2.294  28.719  1.00  0.00     0.161 HD
BRANCH  49  51
HETATM   51  C19 UNL     1       2.636   2.357  30.026  1.00  0.00     0.220 C 
BRANCH  51  52
HETATM   52  C20 UNL     1       1.582   2.903  29.107  1.00  0.00     0.248 C 
HETATM   53  N13 UNL     1       0.214   2.687  29.499  1.00  0.00    -0.061 NA
HETATM   54  O7  UNL     1       1.828   3.517  28.051  1.00  0.00    -0.275 OA
ENDBRANCH  51  52
ENDBRANCH  49  51
ENDBRANCH  46  49
ENDBRANCH   1  36
TORSDOF 12
ENDMDL
MODEL 3
REMARK VINA RESULT: -10.012668372      1.472      2.237
REMARK  12 active torsions:
REMARK  status: ('A' for Active; 'I' for Inactive)
REMARK       I    between atoms: C2_2  and  N1_4 
REMARK    1  A    between atoms: N2_6  and  C4_8 
REMARK    2  A    between atoms: C6_12  and  S1_13 
REMARK    3  A    between atoms: S1_13  and  N4_16 
REMARK       I    between atoms: N4_16  and  C7_18 
REMARK    4  A    between atoms: C7_18  and  C8_20 
REMARK    5  A    between atoms: C8_20  and  C9_21 
REMARK    6  A    between atoms: C9_21  and  C10_22 
REMARK    7  A    between atoms: C10_22  and  S2_23 
REMARK    8  A    between atoms: S2_23  and  C11_24 
REMARK    9  A    between atoms: N6_32  and  N7_33 
REMARK   10  A    between atoms: C18_44  and  N12_45 
REMARK   11  A    between atoms: N12_45  and  C19_47 
REMARK   12  A    between atoms: C19_47  and  C20_48 
ROOT
HETATM    1  C4  UNL     1       0.893   4.321  34.102  1.00  0.00     0.701 A 
HETATM    2  N3  UNL     1      -0.300   4.630  34.714  1.00  0.00    -0.170 N 
ATOM      3  H3  UNL     1      -1.215   4.664  34.264  1.00  0.00     0.186 HD
HETATM    4  C5  UNL     1      -0.046   4.876  36.004  1.00  0.00     0.188 A 
HETATM    5  C6  UNL     1      -0.659   5.216  37.215  1.00  0.00     0.170 A 
HETATM    6  C16 UNL     1       0.323   5.277  38.180  1.00  0.00     0.160 A 
HETATM    7  N8  UNL     1       0.129   5.587  39.553  1.00  0.00    -0.079 NA
HETATM    8  N9  UNL     1       1.489   4.983  37.556  1.00  0.00    -0.263 N 
ATOM      9  H9  UNL     1       2.402   4.949  38.010  1.00  0.00     0.190 HD
HETATM   10  N10 UNL     1       1.269   4.742  36.253  1.00  0.00    -0.162 N 
HETATM   11  N11 UNL     1       1.802   4.409  35.093  1.00  0.00    -0.109 N 
ATOM     12  H11 UNL     1       2.799   4.236  34.959  1.00  0.00     0.208 HD
ENDROOT
BRANCH   5  13
HETATM   13  S1  UNL     1      -2.350   5.528  37.405  1.00  0.00     0.272 S 
HETATM   14  O2  UNL     1      -3.063   5.481  36.056  1.00  0.00    -0.200 OA
HETATM   15  O3  UNL     1      -3.018   4.444  38.246  1.00  0.00    -0.200 OA
BRANCH  13  16
HETATM   16  N4  UNL     1      -2.681   7.033  38.156  1.00  0.00    -0.250 N 
HETATM   17  C7  UNL     1      -2.377   8.285  37.558  1.00  0.00     0.231 C 
HETATM   18  O4  UNL     1      -1.837   8.299  36.432  1.00  0.00    -0.273 OA
ATOM     19  H4  UNL     1      -3.118   7.029  39.078  1.00  0.00     0.181 HD
BRANCH  17  20
HETATM   20  C8  UNL     1      -2.701   9.536  38.260  1.00  0.00     0.104 C 
BRANCH  20  21
HETATM   21  C9  UNL     1      -1.671  10.053  39.188  1.00  0.00     0.020 C 
BRANCH  21  22
HETATM   22  C10 UNL     1      -2.031  10.079  40.635  1.00  0.00     0.081 C 
BRANCH  22  23
HETATM   23  S2  UNL     1      -1.857   8.373  41.306  1.00  0.00    -0.110 SA
BRANCH  23  24
HETATM   24  C11 UNL     1      -1.055   8.452  42.911  1.00  0.00     0.102 A 
HETATM   25  C12 UNL     1      -0.912   9.676  43.509  1.00  0.00     0.113 A 
HETATM   26  C13 UNL     1      -0.288   9.693  44.741  1.00  0.00     0.253 A 
HETATM   27  O5  UNL     1      -0.137  10.807  45.327  1.00  0.00    -0.268 OA
HETATM   28  N5  UNL     1       0.130   8.535  45.265  1.00  0.00    -0.269 N 
HETATM   29  C14 UNL     1       0.787   8.571  46.570  1.00  0.00     0.164 C 
HETATM   30  C15 UNL     1      -0.013   7.334  44.674  1.00  0.00     0.350 A 
HETATM   31  O6  UNL     1       0.392   6.264  45.194  1.00  0.00    -0.244 OA
HETATM   32  N6  UNL     1      -0.617   7.309  43.478  1.00  0.00    -0.205 N 
BRANCH  32  33
HETATM   33  N7  UNL     1      -0.789   6.077  42.847  1.00  0.00    -0.334 N 
ATOM     34  H72 UNL     1      -1.715   5.838  42.493  1.00  0.00     0.177 HD
ATOM     35  H71 UNL     1      -0.010   5.429  42.732  1.00  0.00     0.177 HD
ENDBRANCH  32  33
ENDBRANCH  23  24
ENDBRANCH  22  23
ENDBRANCH  21  22
ENDBRANCH  20  21
ENDBRANCH  17  20
ENDBRANCH  13  16
ENDBRANCH   5  13
BRANCH   1  36
HETATM   36  N2  UNL     1       1.018   3.970  32.770  1.00  0.00    -0.174 N 
HETATM   37  C3  UNL     1       1.880   3.977  31.889  1.00  0.00     0.138 A 
HETATM   38  N1  UNL     1       1.542   3.505  30.641  1.00  0.00    -0.218 N 
HETATM   39  C17 UNL     1       3.157   4.440  32.081  1.00  0.00     0.098 A 
HETATM   40  C2  UNL     1       0.209   3.018  30.424  1.00  0.00     0.229 C 
HETATM   41  C21 UNL     1       2.463   3.524  29.687  1.00  0.00     0.336 A 
HETATM   42  C1  UNL     1      -0.250   2.483  29.126  1.00  0.00     0.118 C 
HETATM   43  O1  UNL     1      -0.634   3.039  31.381  1.00  0.00    -0.273 OA
HETATM   44  N14 UNL     1       3.735   3.981  29.857  1.00  0.00    -0.294 N 
HETATM   45  O8  UNL     1       2.194   3.097  28.516  1.00  0.00    -0.246 OA
HETATM   46  C18 UNL     1       4.119   4.454  31.066  1.00  0.00     0.108 A 
ATOM     47  H14 UNL     1       4.394   3.967  29.078  1.00  0.00     0.172 HD
ATOM     48  H2  UNL     1       0.139   3.595  32.412  1.00  0.00     0.186 HD
BRANCH  46  49
HETATM   49  N12 UNL     1       5.421   4.951  31.287  1.00  0.00    -0.368 N 
ATOM     50  H12 UNL     1       5.532   5.910  31.620  1.00  0.00     0.161 HD
BRANCH  49  51
HETATM   51  C19 UNL     1       6.586   4.162  31.062  1.00  0.00     0.220 C 
BRANCH  51  52
HETATM   52  C20 UNL     1       7.610   5.007  30.360  1.00  0.00     0.248 C 
HETATM   53  N13 UNL     1       7.941   4.627  29.012  1.00  0.00    -0.061 NA
HETATM   54  O7  UNL     1       8.172   5.992  30.875  1.00  0.00    -0.275 OA
ENDBRANCH  51  52
ENDBRANCH  49  51
ENDBRANCH  46  49
ENDBRANCH   1  36
TORSDOF 12
ENDMDL
MODEL 4
REMARK VINA RESULT: -9.924374112      7.136     11.515
REMARK  12 active torsions:
REMARK  status: ('A' for Active; 'I' for Inactive)
REMARK       I    between atoms: C2_2  and  N1_4 
REMARK    1  A    between atoms: N2_6  and  C4_8 
REMARK    2  A    between atoms: C6_12  and  S1_13 
REMARK    3  A    between atoms: S1_13  and  N4_16 
REMARK       I    between atoms: N4_16  and  C7_18 
REMARK    4  A    between atoms: C7_18  and  C8_20 
REMARK    5  A    between atoms: C8_20  and  C9_21 
REMARK    6  A    between atoms: C9_21  and  C10_22 
REMARK    7  A    between atoms: C10_22  and  S2_23 
REMARK    8  A    between atoms: S2_23  and  C11_24 
REMARK    9  A    between atoms: N6_32  and  N7_33 
REMARK   10  A    between atoms: C18_44  and  N12_45 
REMARK   11  A    between atoms: N12_45  and  C19_47 
REMARK   12  A    between atoms: C19_47  and  C20_48 
ROOT
HETATM    1  C4  UNL     1       5.288  11.142  30.804  1.00  0.00     0.701 A 
HETATM    2  N3  UNL     1       5.538  10.011  31.547  1.00  0.00    -0.170 N 
ATOM      3  H3  UNL     1       6.354   9.407  31.465  1.00  0.00     0.186 HD
HETATM    4  C5  UNL     1       4.517   9.847  32.397  1.00  0.00     0.188 A 
HETATM    5  C6  UNL     1       4.044   9.021  33.422  1.00  0.00     0.170 A 
HETATM    6  C16 UNL     1       2.843   9.539  33.857  1.00  0.00     0.160 A 
HETATM    7  N8  UNL     1       2.027   9.006  34.891  1.00  0.00    -0.079 NA
HETATM    8  N9  UNL     1       2.609  10.642  33.106  1.00  0.00    -0.263 N 
ATOM      9  H9  UNL     1       1.791  11.245  33.192  1.00  0.00     0.190 HD
HETATM   10  N10 UNL     1       3.612  10.828  32.232  1.00  0.00    -0.162 N 
HETATM   11  N11 UNL     1       4.104  11.586  31.270  1.00  0.00    -0.109 N 
ATOM     12  H11 UNL     1       3.637  12.422  30.917  1.00  0.00     0.208 HD
ENDROOT
BRANCH   5  13
HETATM   13  S1  UNL     1       4.847   7.595  33.983  1.00  0.00     0.272 S 
HETATM   14  O2  UNL     1       6.029   7.251  33.082  1.00  0.00    -0.200 OA
HETATM   15  O3  UNL     1       5.451   7.813  35.367  1.00  0.00    -0.200 OA
BRANCH  13  16
HETATM   16  N4  UNL     1       3.812   6.232  34.087  1.00  0.00    -0.250 N 
HETATM   17  C7  UNL     1       3.081   5.724  32.981  1.00  0.00     0.231 C 
HETATM   18  O4  UNL     1       3.186   6.295  31.876  1.00  0.00    -0.273 OA
ATOM     19  H4  UNL     1       3.717   5.763  34.988  1.00  0.00     0.181 HD
BRANCH  17  20
HETATM   20  C8  UNL     1       2.220   4.542  33.145  1.00  0.00     0.104 C 
BRANCH  20  21
HETATM   21  C9  UNL     1       1.901   3.787  31.914  1.00  0.00     0.020 C 
BRANCH  21  22
HETATM   22  C10 UNL     1       2.724   2.572  31.645  1.00  0.00     0.081 C 
BRANCH  22  23
HETATM   23  S2  UNL     1       3.307   2.641  29.900  1.00  0.00    -0.110 SA
BRANCH  23  24
HETATM   24  C11 UNL     1       4.459   4.006  29.720  1.00  0.00     0.102 A 
HETATM   25  C12 UNL     1       5.612   3.988  30.459  1.00  0.00     0.113 A 
HETATM   26  C13 UNL     1       6.469   5.058  30.292  1.00  0.00     0.253 A 
HETATM   27  O5  UNL     1       7.547   5.079  30.958  1.00  0.00    -0.268 OA
HETATM   28  N5  UNL     1       6.128   6.027  29.434  1.00  0.00    -0.269 N 
HETATM   29  C14 UNL     1       7.048   7.151  29.269  1.00  0.00     0.164 C 
HETATM   30  C15 UNL     1       4.994   6.040  28.709  1.00  0.00     0.350 A 
HETATM   31  O6  UNL     1       4.703   6.967  27.912  1.00  0.00    -0.244 OA
HETATM   32  N6  UNL     1       4.156   5.006  28.866  1.00  0.00    -0.205 N 
BRANCH  32  33
HETATM   33  N7  UNL     1       2.978   4.987  28.119  1.00  0.00    -0.334 N 
ATOM     34  H72 UNL     1       3.025   4.682  27.147  1.00  0.00     0.177 HD
ATOM     35  H71 UNL     1       2.087   5.261  28.531  1.00  0.00     0.177 HD
ENDBRANCH  32  33
ENDBRANCH  23  24
ENDBRANCH  22  23
ENDBRANCH  21  22
ENDBRANCH  20  21
ENDBRANCH  17  20
ENDBRANCH  13  16
ENDBRANCH   5  13
BRANCH   1  36
HETATM   36  N2  UNL     1       6.146  11.650  29.846  1.00  0.00    -0.174 N 
HETATM   37  C3  UNL     1       6.497  11.397  28.692  1.00  0.00     0.138 A 
HETATM   38  N1  UNL     1       7.426  12.220  28.096  1.00  0.00    -0.218 N 
HETATM   39  C17 UNL     1       6.020  10.332  27.970  1.00  0.00     0.098 A 
HETATM   40  C2  UNL     1       7.935  13.337  28.839  1.00  0.00     0.229 C 
HETATM   41  C21 UNL     1       7.816  11.943  26.859  1.00  0.00     0.336 A 
HETATM   42  C1  UNL     1       8.927  14.284  28.289  1.00  0.00     0.118 C 
HETATM   43  O1  UNL     1       7.528  13.542  30.030  1.00  0.00    -0.273 OA
HETATM   44  N14 UNL     1       7.356  10.890  26.127  1.00  0.00    -0.294 N 
HETATM   45  O8  UNL     1       8.675  12.678  26.270  1.00  0.00    -0.246 OA
HETATM   46  C18 UNL     1       6.439  10.052  26.666  1.00  0.00     0.108 A 
ATOM     47  H14 UNL     1       7.700  10.735  25.179  1.00  0.00     0.172 HD
ATOM     48  H2  UNL     1       6.629  12.477  30.197  1.00  0.00     0.186 HD
BRANCH  46  49
HETATM   49  N12 UNL     1       5.944   8.939  25.952  1.00  0.00    -0.368 N 
ATOM     50  H12 UNL     1       6.118   8.002  26.317  1.00  0.00     0.161 HD
BRANCH  49  51
HETATM   51  C19 UNL     1       5.210   9.079  24.739  1.00  0.00     0.220 C 
BRANCH  51  52
HETATM   52  C20 UNL     1       3.752   9.214  25.073  1.00  0.00     0.248 C 
HETATM   53  N13 UNL     1       3.206  10.545  25.034  1.00  0.00    -0.061 NA
HETATM   54  O7  UNL     1       3.014   8.256  25.374  1.00  0.00    -0.275 OA
ENDBRANCH  51  52
ENDBRANCH  49  51
ENDBRANCH  46  49
ENDBRANCH   1  36
TORSDOF 12
ENDMDL
MODEL 5
REMARK VINA RESULT: -9.908558839      1.427      1.943
REMARK  12 active torsions:
REMARK  status: ('A' for Active; 'I' for Inactive)
REMARK       I    between atoms: C2_2  and  N1_4 
REMARK    1  A    between atoms: N2_6  and  C4_8 
REMARK    2  A    between atoms: C6_12  and  S1_13 
REMARK    3  A    between atoms: S1_13  and  N4_16 
REMARK       I    between atoms: N4_16  and  C7_18 
REMARK    4  A    between atoms: C7_18  and  C8_20 
REMARK    5  A    between atoms: C8_20  and  C9_21 
REMARK    6  A    between atoms: C9_21  and  C10_22 
REMARK    7  A    between atoms: C10_22  and  S2_23 
REMARK    8  A    between atoms: S2_23  and  C11_24 
REMARK    9  A    between atoms: N6_32  and  N7_33 
REMARK   10  A    between atoms: C18_44  and  N12_45 
REMARK   11  A    between atoms: N12_45  and  C19_47 
REMARK   12  A    between atoms: C19_47  and  C20_48 
ROOT
HETATM    1  C4  UNL     1       1.467   4.308  33.416  1.00  0.00     0.701 A 
HETATM    2  N3  UNL     1       0.481   5.068  34.001  1.00  0.00    -0.170 N 
ATOM      3  H3  UNL     1      -0.264   5.565  33.514  1.00  0.00     0.186 HD
HETATM    4  C5  UNL     1       0.675   5.039  35.325  1.00  0.00     0.188 A 
HETATM    5  C6  UNL     1       0.151   5.500  36.538  1.00  0.00     0.170 A 
HETATM    6  C16 UNL     1       0.942   5.004  37.551  1.00  0.00     0.160 A 
HETATM    7  N8  UNL     1       0.758   5.229  38.942  1.00  0.00    -0.079 NA
HETATM    8  N9  UNL     1       1.911   4.270  36.954  1.00  0.00    -0.263 N 
ATOM      9  H9  UNL     1       2.655   3.774  37.446  1.00  0.00     0.190 HD
HETATM   10  N10 UNL     1       1.752   4.290  35.621  1.00  0.00    -0.162 N 
HETATM   11  N11 UNL     1       2.203   3.867  34.455  1.00  0.00    -0.109 N 
ATOM     12  H11 UNL     1       3.023   3.269  34.351  1.00  0.00     0.208 HD
ENDROOT
BRANCH   5  13
HETATM   13  S1  UNL     1      -1.228   6.536  36.681  1.00  0.00     0.272 S 
HETATM   14  O2  UNL     1      -0.809   8.002  36.631  1.00  0.00    -0.200 OA
HETATM   15  O3  UNL     1      -2.177   6.353  35.501  1.00  0.00    -0.200 OA
BRANCH  13  16
HETATM   16  N4  UNL     1      -2.133   6.265  38.110  1.00  0.00    -0.250 N 
HETATM   17  C7  UNL     1      -2.777   5.033  38.402  1.00  0.00     0.231 C 
HETATM   18  O4  UNL     1      -2.690   4.098  37.578  1.00  0.00    -0.273 OA
ATOM     19  H4  UNL     1      -2.213   7.025  38.785  1.00  0.00     0.181 HD
BRANCH  17  20
HETATM   20  C8  UNL     1      -3.529   4.871  39.656  1.00  0.00     0.104 C 
BRANCH  20  21
HETATM   21  C9  UNL     1      -2.725   4.671  40.881  1.00  0.00     0.020 C 
BRANCH  21  22
HETATM   22  C10 UNL     1      -2.685   5.808  41.846  1.00  0.00     0.081 C 
BRANCH  22  23
HETATM   23  S2  UNL     1      -0.932   6.332  42.052  1.00  0.00    -0.110 SA
BRANCH  23  24
HETATM   24  C11 UNL     1      -0.883   7.863  42.987  1.00  0.00     0.102 A 
HETATM   25  C12 UNL     1      -1.328   9.010  42.384  1.00  0.00     0.113 A 
HETATM   26  C13 UNL     1      -1.271  10.167  43.137  1.00  0.00     0.253 A 
HETATM   27  O5  UNL     1      -1.674  11.249  42.615  1.00  0.00    -0.268 OA
HETATM   28  N5  UNL     1      -0.795  10.097  44.386  1.00  0.00    -0.269 N 
HETATM   29  C14 UNL     1      -0.743  11.331  45.169  1.00  0.00     0.164 C 
HETATM   30  C15 UNL     1      -0.359   8.968  44.974  1.00  0.00     0.350 A 
HETATM   31  O6  UNL     1       0.084   8.938  46.150  1.00  0.00    -0.244 OA
HETATM   32  N6  UNL     1      -0.410   7.841  44.250  1.00  0.00    -0.205 N 
BRANCH  32  33
HETATM   33  N7  UNL     1       0.024   6.654  44.839  1.00  0.00    -0.334 N 
ATOM     34  H72 UNL     1       1.016   6.422  44.791  1.00  0.00     0.177 HD
ATOM     35  H71 UNL     1      -0.627   6.031  45.315  1.00  0.00     0.177 HD
ENDBRANCH  32  33
ENDBRANCH  23  24
ENDBRANCH  22  23
ENDBRANCH  21  22
ENDBRANCH  20  21
ENDBRANCH  17  20
ENDBRANCH  13  16
ENDBRANCH   5  13
BRANCH   1  36
HETATM   36  N2  UNL     1       1.566   4.074  32.056  1.00  0.00    -0.174 N 
HETATM   37  C3  UNL     1       2.263   4.433  31.105  1.00  0.00     0.138 A 
HETATM   38  N1  UNL     1       1.990   3.911  29.860  1.00  0.00    -0.218 N 
HETATM   39  C17 UNL     1       3.292   5.334  31.216  1.00  0.00     0.098 A 
HETATM   40  C2  UNL     1       0.916   2.969  29.729  1.00  0.00     0.229 C 
HETATM   41  C21 UNL     1       2.729   4.306  28.833  1.00  0.00     0.336 A 
HETATM   42  C1  UNL     1       0.547   2.345  28.441  1.00  0.00     0.118 C 
HETATM   43  O1  UNL     1       0.234   2.641  30.755  1.00  0.00    -0.273 OA
HETATM   44  N14 UNL     1       3.753   5.200  28.922  1.00  0.00    -0.294 N 
HETATM   45  O8  UNL     1       2.510   3.849  27.663  1.00  0.00    -0.246 OA
HETATM   46  C18 UNL     1       4.065   5.741  30.123  1.00  0.00     0.108 A 
ATOM     47  H14 UNL     1       4.282   5.460  28.089  1.00  0.00     0.172 HD
ATOM     48  H2  UNL     1       0.855   3.410  31.751  1.00  0.00     0.186 HD
BRANCH  46  49
HETATM   49  N12 UNL     1       5.108   6.682  30.263  1.00  0.00    -0.368 N 
ATOM     50  H12 UNL     1       5.457   6.894  31.198  1.00  0.00     0.161 HD
BRANCH  49  51
HETATM   51  C19 UNL     1       5.689   7.346  29.144  1.00  0.00     0.220 C 
BRANCH  51  52
HETATM   52  C20 UNL     1       6.996   6.685  28.819  1.00  0.00     0.248 C 
HETATM   53  N13 UNL     1       7.552   6.965  27.522  1.00  0.00    -0.061 NA
HETATM   54  O7  UNL     1       7.606   5.925  29.597  1.00  0.00    -0.275 OA
ENDBRANCH  51  52
ENDBRANCH  49  51
ENDBRANCH  46  49
ENDBRANCH   1  36
TORSDOF 12
ENDMDL
