MODEL 1
REMARK VINA RESULT: -8.033583203      0.000      0.000
REMARK  20 active torsions:
REMARK  status: ('A' for Active; 'I' for Inactive)
REMARK    1  A    between atoms: O1_2  and  C2_3 
REMARK    2  A    between atoms: C2_3  and  C3_5 
REMARK    3  A    between atoms: C6_8  and  O3_9 
REMARK    4  A    between atoms: O3_9  and  C7_10 
REMARK    5  A    between atoms: C8_11  and  C9_12 
REMARK    6  A    between atoms: C9_12  and  O4_13 
REMARK    7  A    between atoms: C13_20  and  O7_21 
REMARK    8  A    between atoms: C14_23  and  O8_24 
REMARK    9  A    between atoms: O8_24  and  C15_25 
REMARK   10  A    between atoms: C15_25  and  C16_26 
REMARK   11  A    between atoms: C16_26  and  C17_27 
REMARK   12  A    between atoms: C17_27  and  C18_28 
REMARK   13  A    between atoms: C18_28  and  O9_30 
REMARK   14  A    between atoms: C20_33  and  C21_34 
REMARK   15  A    between atoms: C21_34  and  O11_35 
REMARK   16  A    between atoms: C21_34  and  C22_37 
REMARK   17  A    between atoms: C23_39  and  N1_40 
REMARK   18  A    between atoms: C24_44  and  C25_45 
REMARK   19  A    between atoms: C25_45  and  O14_47 
REMARK   20  A    between atoms: C27_50  and  O16_51 
ROOT
HETATM    1  C7  UNL     1      -1.468   5.838  37.402  1.00  0.00     0.195 C 
HETATM    2  C8  UNL     1      -2.360   4.625  37.069  1.00  0.00     0.180 C 
HETATM    3  O5  UNL     1      -1.532   3.866  36.291  1.00  0.00    -0.348 OA
HETATM    4  C10 UNL     1      -0.845   4.746  35.448  1.00  0.00     0.298 C 
HETATM    5  O6  UNL     1       0.503   4.543  35.630  1.00  0.00    -0.339 OA
HETATM    6  C11 UNL     1       1.148   5.706  35.344  1.00  0.00     0.144 C 
HETATM    7  C12 UNL     1       0.227   6.811  35.762  1.00  0.00     0.091 C 
HETATM    8  C13 UNL     1      -1.068   6.146  35.987  1.00  0.00     0.139 C 
HETATM    9  C14 UNL     1       1.646   5.761  33.951  1.00  0.00     0.297 C 
HETATM   10  O10 UNL     1       2.909   5.158  33.952  1.00  0.00    -0.347 OA
HETATM   11  C20 UNL     1       3.490   5.480  35.169  1.00  0.00     0.190 C 
HETATM   12  C27 UNL     1       2.433   5.881  36.139  1.00  0.00     0.189 C 
ENDROOT
BRANCH   9  13
HETATM   13  O8  UNL     1       0.843   5.028  33.098  1.00  0.00    -0.358 OA
BRANCH  13  14
HETATM   14  C15 UNL     1       1.492   4.725  31.898  1.00  0.00     0.171 C 
BRANCH  14  15
HETATM   15  C16 UNL     1       1.074   3.354  31.483  1.00  0.00     0.029 C 
BRANCH  15  16
HETATM   16  C17 UNL     1       1.646   2.940  30.147  1.00  0.00     0.033 C 
BRANCH  16  17
HETATM   17  C18 UNL     1       0.469   2.744  29.208  1.00  0.00     0.114 C 
HETATM   18  C19 UNL     1      -0.721   2.347  30.075  1.00  0.00     0.039 C 
BRANCH  17  19
HETATM   19  O9  UNL     1       0.733   1.759  28.259  1.00  0.00    -0.396 OA
ATOM     20  H9  UNL     1       0.827   0.904  28.661  1.00  0.00     0.210 HD
ENDBRANCH  17  19
ENDBRANCH  16  17
ENDBRANCH  15  16
ENDBRANCH  14  15
ENDBRANCH  13  14
ENDBRANCH   9  13
BRANCH  12  21
HETATM   21  O16 UNL     1       2.636   7.250  36.431  1.00  0.00    -0.390 OA
ATOM     22  H16 UNL     1       3.530   7.497  36.222  1.00  0.00     0.210 HD
ENDBRANCH  12  21
BRANCH   8  23
HETATM   23  O7  UNL     1      -2.125   6.772  35.300  1.00  0.00    -0.382 OA
ATOM     24  H7  UNL     1      -2.512   6.177  34.669  1.00  0.00     0.210 HD
ENDBRANCH   8  23
BRANCH  11  25
HETATM   25  C21 UNL     1       4.449   6.637  34.859  1.00  0.00     0.205 C 
BRANCH  25  26
HETATM   26  O11 UNL     1       5.613   6.572  35.600  1.00  0.00    -0.388 OA
ATOM     27  H11 UNL     1       5.455   6.656  36.533  1.00  0.00     0.210 HD
ENDBRANCH  25  26
BRANCH  25  28
HETATM   28  C22 UNL     1       4.810   6.507  33.395  1.00  0.00     0.295 C 
HETATM   29  O12 UNL     1       6.087   6.032  33.305  1.00  0.00    -0.323 OA
HETATM   30  C23 UNL     1       6.580   6.483  32.108  1.00  0.00     0.360 C 
HETATM   31  C24 UNL     1       5.628   7.554  31.682  1.00  0.00     0.280 C 
HETATM   32  O15 UNL     1       4.721   7.722  32.729  1.00  0.00    -0.339 OA
BRANCH  30  33
HETATM   33  N1  UNL     1       7.919   6.990  32.346  1.00  0.00    -0.050 N 
ATOM     34  H13 UNL     1       7.950   7.700  33.077  1.00  0.00     0.277 HD
ATOM     35  H12 UNL     1       8.528   6.307  32.796  1.00  0.00     0.277 HD
ATOM     36  H11 UNL     1       8.288   7.322  31.455  1.00  0.00     0.277 HD
ENDBRANCH  30  33
BRANCH  31  37
HETATM   37  C25 UNL     1       6.258   8.845  31.387  1.00  0.00     0.292 C 
HETATM   38  O13 UNL     1       6.232   9.754  32.254  1.00  0.00    -0.262 OA
BRANCH  37  39
HETATM   39  O14 UNL     1       6.893   9.134  30.187  1.00  0.00    -0.324 OA
HETATM   40  C26 UNL     1       6.423   8.552  29.008  1.00  0.00     0.213 C 
ENDBRANCH  37  39
ENDBRANCH  31  37
ENDBRANCH  25  28
ENDBRANCH  11  25
BRANCH   1  41
HETATM   41  O3  UNL     1      -0.412   5.434  38.159  1.00  0.00    -0.350 OA
BRANCH  41  42
HETATM   42  C6  UNL     1      -0.217   6.193  39.310  1.00  0.00     0.260 C 
HETATM   43  C5  UNL     1      -0.297   5.330  40.540  1.00  0.00     0.061 C 
HETATM   44  C4  UNL     1      -0.254   6.135  41.818  1.00  0.00     0.021 C 
HETATM   45  C3  UNL     1      -1.311   7.198  41.800  1.00  0.00     0.109 C 
HETATM   46  C28 UNL     1      -1.204   7.934  40.458  1.00  0.00     0.185 C 
HETATM   47  O17 UNL     1      -1.322   7.066  39.400  1.00  0.00    -0.360 OA
BRANCH  45  48
HETATM   48  C2  UNL     1      -1.111   8.222  42.840  1.00  0.00     0.264 C 
HETATM   49  O2  UNL     1      -1.276   9.423  42.563  1.00  0.00    -0.265 OA
BRANCH  48  50
HETATM   50  O1  UNL     1      -0.745   7.850  44.111  1.00  0.00    -0.326 OA
HETATM   51  C1  UNL     1      -0.348   8.778  45.100  1.00  0.00     0.213 C 
ENDBRANCH  48  50
ENDBRANCH  45  48
ENDBRANCH  41  42
ENDBRANCH   1  41
BRANCH   2  52
HETATM   52  C9  UNL     1      -2.973   3.967  38.237  1.00  0.00     0.198 C 
BRANCH  52  53
HETATM   53  O4  UNL     1      -3.466   5.008  39.070  1.00  0.00    -0.398 OA
ATOM     54  H4  UNL     1      -3.391   4.694  39.964  1.00  0.00     0.209 HD
ENDBRANCH  52  53
ENDBRANCH   2  52
TORSDOF 20
ENDMDL
MODEL 2
REMARK VINA RESULT: -7.719735000      1.398      1.732
REMARK  20 active torsions:
REMARK  status: ('A' for Active; 'I' for Inactive)
REMARK    1  A    between atoms: O1_2  and  C2_3 
REMARK    2  A    between atoms: C2_3  and  C3_5 
REMARK    3  A    between atoms: C6_8  and  O3_9 
REMARK    4  A    between atoms: O3_9  and  C7_10 
REMARK    5  A    between atoms: C8_11  and  C9_12 
REMARK    6  A    between atoms: C9_12  and  O4_13 
REMARK    7  A    between atoms: C13_20  and  O7_21 
REMARK    8  A    between atoms: C14_23  and  O8_24 
REMARK    9  A    between atoms: O8_24  and  C15_25 
REMARK   10  A    between atoms: C15_25  and  C16_26 
REMARK   11  A    between atoms: C16_26  and  C17_27 
REMARK   12  A    between atoms: C17_27  and  C18_28 
REMARK   13  A    between atoms: C18_28  and  O9_30 
REMARK   14  A    between atoms: C20_33  and  C21_34 
REMARK   15  A    between atoms: C21_34  and  O11_35 
REMARK   16  A    between atoms: C21_34  and  C22_37 
REMARK   17  A    between atoms: C23_39  and  N1_40 
REMARK   18  A    between atoms: C24_44  and  C25_45 
REMARK   19  A    between atoms: C25_45  and  O14_47 
REMARK   20  A    between atoms: C27_50  and  O16_51 
ROOT
HETATM    1  C7  UNL     1      -2.382   4.724  37.506  1.00  0.00     0.195 C 
HETATM    2  C8  UNL     1      -3.084   3.465  36.956  1.00  0.00     0.180 C 
HETATM    3  O5  UNL     1      -2.120   2.929  36.150  1.00  0.00    -0.348 OA
HETATM    4  C10 UNL     1      -1.511   3.994  35.479  1.00  0.00     0.298 C 
HETATM    5  O6  UNL     1      -0.160   3.939  35.731  1.00  0.00    -0.339 OA
HETATM    6  C11 UNL     1       0.339   5.201  35.644  1.00  0.00     0.144 C 
HETATM    7  C12 UNL     1      -0.743   6.115  36.132  1.00  0.00     0.091 C 
HETATM    8  C13 UNL     1      -1.948   5.269  36.175  1.00  0.00     0.139 C 
HETATM    9  C14 UNL     1       0.902   5.507  34.310  1.00  0.00     0.297 C 
HETATM   10  O10 UNL     1       2.232   5.071  34.326  1.00  0.00    -0.347 OA
HETATM   11  C20 UNL     1       2.696   5.294  35.613  1.00  0.00     0.190 C 
HETATM   12  C27 UNL     1       1.543   5.425  36.546  1.00  0.00     0.189 C 
ENDROOT
BRANCH   9  13
HETATM   13  O8  UNL     1       0.253   4.803  33.314  1.00  0.00    -0.358 OA
BRANCH  13  14
HETATM   14  C15 UNL     1       1.032   4.689  32.159  1.00  0.00     0.171 C 
BRANCH  14  15
HETATM   15  C16 UNL     1       0.654   3.418  31.472  1.00  0.00     0.029 C 
BRANCH  15  16
HETATM   16  C17 UNL     1       1.498   3.131  30.252  1.00  0.00     0.033 C 
BRANCH  16  17
HETATM   17  C18 UNL     1       0.543   2.740  29.140  1.00  0.00     0.114 C 
HETATM   18  C19 UNL     1      -0.736   2.250  29.812  1.00  0.00     0.039 C 
BRANCH  17  19
HETATM   19  O9  UNL     1       1.083   1.743  28.330  1.00  0.00    -0.396 OA
ATOM     20  H9  UNL     1       0.593   1.648  27.522  1.00  0.00     0.210 HD
ENDBRANCH  17  19
ENDBRANCH  16  17
ENDBRANCH  15  16
ENDBRANCH  14  15
ENDBRANCH  13  14
ENDBRANCH   9  13
BRANCH  12  21
HETATM   21  O16 UNL     1       1.545   6.756  37.025  1.00  0.00    -0.390 OA
ATOM     22  H16 UNL     1       2.383   6.955  37.426  1.00  0.00     0.210 HD
ENDBRANCH  12  21
BRANCH   8  23
HETATM   23  O7  UNL     1      -3.040   5.846  35.498  1.00  0.00    -0.382 OA
ATOM     24  H7  UNL     1      -3.251   5.346  34.718  1.00  0.00     0.210 HD
ENDBRANCH   8  23
BRANCH  11  25
HETATM   25  C21 UNL     1       3.508   6.594  35.525  1.00  0.00     0.205 C 
BRANCH  25  26
HETATM   26  O11 UNL     1       4.714   6.510  36.193  1.00  0.00    -0.388 OA
ATOM     27  H11 UNL     1       5.385   6.077  35.678  1.00  0.00     0.210 HD
ENDBRANCH  25  26
BRANCH  25  28
HETATM   28  C22 UNL     1       3.794   6.814  34.055  1.00  0.00     0.295 C 
HETATM   29  O12 UNL     1       5.071   6.404  33.796  1.00  0.00    -0.323 OA
HETATM   30  C23 UNL     1       5.496   7.131  32.715  1.00  0.00     0.360 C 
HETATM   31  C24 UNL     1       4.510   8.249  32.595  1.00  0.00     0.280 C 
HETATM   32  O15 UNL     1       3.656   8.148  33.694  1.00  0.00    -0.339 OA
BRANCH  30  33
HETATM   33  N1  UNL     1       6.839   7.602  33.000  1.00  0.00    -0.050 N 
ATOM     34  H13 UNL     1       6.870   8.266  33.773  1.00  0.00     0.277 HD
ATOM     35  H12 UNL     1       7.431   6.883  33.416  1.00  0.00     0.277 HD
ATOM     36  H11 UNL     1       7.225   7.981  32.135  1.00  0.00     0.277 HD
ENDBRANCH  30  33
BRANCH  31  37
HETATM   37  C25 UNL     1       5.107   9.587  32.578  1.00  0.00     0.292 C 
HETATM   38  O13 UNL     1       5.518  10.064  31.491  1.00  0.00    -0.262 OA
BRANCH  37  39
HETATM   39  O14 UNL     1       5.253  10.378  33.710  1.00  0.00    -0.324 OA
HETATM   40  C26 UNL     1       4.880  11.722  33.657  1.00  0.00     0.213 C 
ENDBRANCH  37  39
ENDBRANCH  31  37
ENDBRANCH  25  28
ENDBRANCH  11  25
BRANCH   1  41
HETATM   41  O3  UNL     1      -1.325   4.356  38.279  1.00  0.00    -0.350 OA
BRANCH  41  42
HETATM   42  C6  UNL     1      -1.340   4.907  39.558  1.00  0.00     0.260 C 
HETATM   43  C5  UNL     1      -2.605   5.686  39.791  1.00  0.00     0.061 C 
HETATM   44  C4  UNL     1      -2.592   6.437  41.103  1.00  0.00     0.021 C 
HETATM   45  C3  UNL     1      -1.369   7.299  41.197  1.00  0.00     0.109 C 
HETATM   46  C28 UNL     1      -0.160   6.428  40.832  1.00  0.00     0.185 C 
HETATM   47  O17 UNL     1      -0.305   5.867  39.586  1.00  0.00    -0.360 OA
BRANCH  45  48
HETATM   48  C2  UNL     1      -1.117   7.786  42.565  1.00  0.00     0.264 C 
HETATM   49  O2  UNL     1      -0.779   8.969  42.745  1.00  0.00    -0.265 OA
BRANCH  48  50
HETATM   50  O1  UNL     1      -1.255   6.936  43.635  1.00  0.00    -0.326 OA
HETATM   51  C1  UNL     1      -0.213   6.683  44.556  1.00  0.00     0.213 C 
ENDBRANCH  48  50
ENDBRANCH  45  48
ENDBRANCH  41  42
ENDBRANCH   1  41
BRANCH   2  52
HETATM   52  C9  UNL     1      -3.668   2.583  37.983  1.00  0.00     0.198 C 
BRANCH  52  53
HETATM   53  O4  UNL     1      -3.653   1.270  37.437  1.00  0.00    -0.398 OA
ATOM     54  H4  UNL     1      -3.638   0.674  38.177  1.00  0.00     0.209 HD
ENDBRANCH  52  53
ENDBRANCH   2  52
TORSDOF 20
ENDMDL
MODEL 3
REMARK VINA RESULT: -7.322387685      3.728     10.310
REMARK  20 active torsions:
REMARK  status: ('A' for Active; 'I' for Inactive)
REMARK    1  A    between atoms: O1_2  and  C2_3 
REMARK    2  A    between atoms: C2_3  and  C3_5 
REMARK    3  A    between atoms: C6_8  and  O3_9 
REMARK    4  A    between atoms: O3_9  and  C7_10 
REMARK    5  A    between atoms: C8_11  and  C9_12 
REMARK    6  A    between atoms: C9_12  and  O4_13 
REMARK    7  A    between atoms: C13_20  and  O7_21 
REMARK    8  A    between atoms: C14_23  and  O8_24 
REMARK    9  A    between atoms: O8_24  and  C15_25 
REMARK   10  A    between atoms: C15_25  and  C16_26 
REMARK   11  A    between atoms: C16_26  and  C17_27 
REMARK   12  A    between atoms: C17_27  and  C18_28 
REMARK   13  A    between atoms: C18_28  and  O9_30 
REMARK   14  A    between atoms: C20_33  and  C21_34 
REMARK   15  A    between atoms: C21_34  and  O11_35 
REMARK   16  A    between atoms: C21_34  and  C22_37 
REMARK   17  A    between atoms: C23_39  and  N1_40 
REMARK   18  A    between atoms: C24_44  and  C25_45 
REMARK   19  A    between atoms: C25_45  and  O14_47 
REMARK   20  A    between atoms: C27_50  and  O16_51 
ROOT
HETATM    1  C7  UNL     1       4.984   7.706  27.672  1.00  0.00     0.195 C 
HETATM    2  C8  UNL     1       3.714   7.623  26.799  1.00  0.00     0.180 C 
HETATM    3  O5  UNL     1       2.733   7.458  27.735  1.00  0.00    -0.348 OA
HETATM    4  C10 UNL     1       3.232   6.574  28.697  1.00  0.00     0.298 C 
HETATM    5  O6  UNL     1       3.149   7.190  29.924  1.00  0.00    -0.339 OA
HETATM    6  C11 UNL     1       4.124   6.677  30.722  1.00  0.00     0.144 C 
HETATM    7  C12 UNL     1       5.282   6.367  29.823  1.00  0.00     0.091 C 
HETATM    8  C13 UNL     1       4.726   6.454  28.462  1.00  0.00     0.139 C 
HETATM    9  C14 UNL     1       3.644   5.569  31.578  1.00  0.00     0.297 C 
HETATM   10  O10 UNL     1       3.120   6.154  32.736  1.00  0.00    -0.347 OA
HETATM   11  C20 UNL     1       3.905   7.267  32.995  1.00  0.00     0.190 C 
HETATM   12  C27 UNL     1       4.626   7.672  31.757  1.00  0.00     0.189 C 
ENDROOT
BRANCH   9  13
HETATM   13  O8  UNL     1       2.618   4.870  30.972  1.00  0.00    -0.358 OA
BRANCH  13  14
HETATM   14  C15 UNL     1       2.074   3.899  31.817  1.00  0.00     0.171 C 
BRANCH  14  15
HETATM   15  C16 UNL     1       1.646   2.743  30.974  1.00  0.00     0.029 C 
BRANCH  15  16
HETATM   16  C17 UNL     1       1.849   2.982  29.496  1.00  0.00     0.033 C 
BRANCH  16  17
HETATM   17  C18 UNL     1       0.531   2.662  28.815  1.00  0.00     0.114 C 
HETATM   18  C19 UNL     1      -0.485   2.408  29.923  1.00  0.00     0.039 C 
BRANCH  17  19
HETATM   19  O9  UNL     1       0.642   1.546  27.988  1.00  0.00    -0.396 OA
ATOM     20  H9  UNL     1       0.768   0.751  28.491  1.00  0.00     0.210 HD
ENDBRANCH  17  19
ENDBRANCH  16  17
ENDBRANCH  15  16
ENDBRANCH  14  15
ENDBRANCH  13  14
ENDBRANCH   9  13
BRANCH  12  21
HETATM   21  O16 UNL     1       6.005   7.466  31.994  1.00  0.00    -0.390 OA
ATOM     22  H16 UNL     1       6.255   7.865  32.820  1.00  0.00     0.210 HD
ENDBRANCH  12  21
BRANCH   8  23
HETATM   23  O7  UNL     1       5.009   5.314  27.687  1.00  0.00    -0.382 OA
ATOM     24  H7  UNL     1       4.550   5.352  26.856  1.00  0.00     0.210 HD
ENDBRANCH   8  23
BRANCH  11  25
HETATM   25  C21 UNL     1       4.873   6.824  34.100  1.00  0.00     0.205 C 
BRANCH  25  26
HETATM   26  O11 UNL     1       5.823   7.784  34.387  1.00  0.00    -0.388 OA
ATOM     27  H11 UNL     1       6.620   7.411  34.746  1.00  0.00     0.210 HD
ENDBRANCH  25  26
BRANCH  25  28
HETATM   28  C22 UNL     1       4.030   6.605  35.338  1.00  0.00     0.295 C 
HETATM   29  O12 UNL     1       3.448   5.372  35.254  1.00  0.00    -0.323 OA
HETATM   30  C23 UNL     1       2.296   5.440  35.993  1.00  0.00     0.360 C 
HETATM   31  C24 UNL     1       2.066   6.902  36.208  1.00  0.00     0.280 C 
HETATM   32  O15 UNL     1       3.043   7.572  35.472  1.00  0.00    -0.339 OA
BRANCH  30  33
HETATM   33  N1  UNL     1       1.238   4.818  35.219  1.00  0.00    -0.050 N 
ATOM     34  H13 UNL     1       0.354   4.769  35.724  1.00  0.00     0.277 HD
ATOM     35  H12 UNL     1       0.918   5.400  34.445  1.00  0.00     0.277 HD
ATOM     36  H11 UNL     1       1.572   3.904  34.914  1.00  0.00     0.277 HD
ENDBRANCH  30  33
BRANCH  31  37
HETATM   37  C25 UNL     1       0.744   7.377  35.789  1.00  0.00     0.292 C 
HETATM   38  O13 UNL     1      -0.220   7.297  36.589  1.00  0.00    -0.262 OA
BRANCH  37  39
HETATM   39  O14 UNL     1       0.484   7.921  34.537  1.00  0.00    -0.324 OA
HETATM   40  C26 UNL     1      -0.679   7.550  33.860  1.00  0.00     0.213 C 
ENDBRANCH  37  39
ENDBRANCH  31  37
ENDBRANCH  25  28
ENDBRANCH  11  25
BRANCH   1  41
HETATM   41  O3  UNL     1       4.931   8.823  28.447  1.00  0.00    -0.350 OA
BRANCH  41  42
HETATM   42  C6  UNL     1       6.088   9.598  28.403  1.00  0.00     0.260 C 
HETATM   43  C5  UNL     1       5.889  10.899  29.132  1.00  0.00     0.061 C 
HETATM   44  C4  UNL     1       7.061  11.839  28.970  1.00  0.00     0.021 C 
HETATM   45  C3  UNL     1       7.369  12.043  27.517  1.00  0.00     0.109 C 
HETATM   46  C28 UNL     1       7.437  10.658  26.860  1.00  0.00     0.185 C 
HETATM   47  O17 UNL     1       6.271   9.957  27.050  1.00  0.00    -0.360 OA
BRANCH  45  48
HETATM   48  C2  UNL     1       8.688  12.661  27.293  1.00  0.00     0.264 C 
HETATM   49  O2  UNL     1       9.670  11.943  27.035  1.00  0.00    -0.265 OA
BRANCH  48  50
HETATM   50  O1  UNL     1       8.830  14.025  27.368  1.00  0.00    -0.326 OA
HETATM   51  C1  UNL     1       9.594  14.665  28.371  1.00  0.00     0.213 C 
ENDBRANCH  48  50
ENDBRANCH  45  48
ENDBRANCH  41  42
ENDBRANCH   1  41
BRANCH   2  52
HETATM   52  C9  UNL     1       3.548   8.730  25.840  1.00  0.00     0.198 C 
BRANCH  52  53
HETATM   53  O4  UNL     1       4.659   8.663  24.955  1.00  0.00    -0.398 OA
ATOM     54  H4  UNL     1       4.310   8.779  24.079  1.00  0.00     0.209 HD
ENDBRANCH  52  53
ENDBRANCH   2  52
TORSDOF 20
ENDMDL
MODEL 4
REMARK VINA RESULT: -7.312712218      3.901     11.095
REMARK  20 active torsions:
REMARK  status: ('A' for Active; 'I' for Inactive)
REMARK    1  A    between atoms: O1_2  and  C2_3 
REMARK    2  A    between atoms: C2_3  and  C3_5 
REMARK    3  A    between atoms: C6_8  and  O3_9 
REMARK    4  A    between atoms: O3_9  and  C7_10 
REMARK    5  A    between atoms: C8_11  and  C9_12 
REMARK    6  A    between atoms: C9_12  and  O4_13 
REMARK    7  A    between atoms: C13_20  and  O7_21 
REMARK    8  A    between atoms: C14_23  and  O8_24 
REMARK    9  A    between atoms: O8_24  and  C15_25 
REMARK   10  A    between atoms: C15_25  and  C16_26 
REMARK   11  A    between atoms: C16_26  and  C17_27 
REMARK   12  A    between atoms: C17_27  and  C18_28 
REMARK   13  A    between atoms: C18_28  and  O9_30 
REMARK   14  A    between atoms: C20_33  and  C21_34 
REMARK   15  A    between atoms: C21_34  and  O11_35 
REMARK   16  A    between atoms: C21_34  and  C22_37 
REMARK   17  A    between atoms: C23_39  and  N1_40 
REMARK   18  A    between atoms: C24_44  and  C25_45 
REMARK   19  A    between atoms: C25_45  and  O14_47 
REMARK   20  A    between atoms: C27_50  and  O16_51 
ROOT
HETATM    1  C7  UNL     1       6.619   8.767  27.109  1.00  0.00     0.195 C 
HETATM    2  C8  UNL     1       5.642   8.542  25.936  1.00  0.00     0.180 C 
HETATM    3  O5  UNL     1       4.522   8.095  26.579  1.00  0.00    -0.348 OA
HETATM    4  C10 UNL     1       4.950   7.221  27.583  1.00  0.00     0.298 C 
HETATM    5  O6  UNL     1       4.449   7.673  28.781  1.00  0.00    -0.339 OA
HETATM    6  C11 UNL     1       5.290   7.269  29.771  1.00  0.00     0.144 C 
HETATM    7  C12 UNL     1       6.668   7.282  29.182  1.00  0.00     0.091 C 
HETATM    8  C13 UNL     1       6.447   7.410  27.731  1.00  0.00     0.139 C 
HETATM    9  C14 UNL     1       4.863   6.004  30.410  1.00  0.00     0.297 C 
HETATM   10  O10 UNL     1       3.966   6.350  31.427  1.00  0.00    -0.347 OA
HETATM   11  C20 UNL     1       4.415   7.556  31.943  1.00  0.00     0.190 C 
HETATM   12  C27 UNL     1       5.310   8.222  30.957  1.00  0.00     0.189 C 
ENDROOT
BRANCH   9  13
HETATM   13  O8  UNL     1       4.180   5.195  29.521  1.00  0.00    -0.358 OA
BRANCH  13  14
HETATM   14  C15 UNL     1       4.793   3.948  29.371  1.00  0.00     0.171 C 
BRANCH  14  15
HETATM   15  C16 UNL     1       3.740   2.898  29.509  1.00  0.00     0.029 C 
BRANCH  15  16
HETATM   16  C17 UNL     1       3.382   2.605  30.947  1.00  0.00     0.033 C 
BRANCH  16  17
HETATM   17  C18 UNL     1       1.938   3.033  31.136  1.00  0.00     0.114 C 
HETATM   18  C19 UNL     1       1.207   2.691  29.843  1.00  0.00     0.039 C 
BRANCH  17  19
HETATM   19  O9  UNL     1       1.842   4.396  31.407  1.00  0.00    -0.396 OA
ATOM     20  H9  UNL     1       0.966   4.634  31.687  1.00  0.00     0.210 HD
ENDBRANCH  17  19
ENDBRANCH  16  17
ENDBRANCH  15  16
ENDBRANCH  14  15
ENDBRANCH  13  14
ENDBRANCH   9  13
BRANCH  12  21
HETATM   21  O16 UNL     1       6.605   8.255  31.526  1.00  0.00    -0.390 OA
ATOM     22  H16 UNL     1       6.644   8.923  32.201  1.00  0.00     0.210 HD
ENDBRANCH  12  21
BRANCH   8  23
HETATM   23  O7  UNL     1       7.140   6.434  26.990  1.00  0.00    -0.382 OA
ATOM     24  H7  UNL     1       6.739   5.581  27.105  1.00  0.00     0.210 HD
ENDBRANCH   8  23
BRANCH  11  25
HETATM   25  C21 UNL     1       5.162   7.185  33.231  1.00  0.00     0.205 C 
BRANCH  25  26
HETATM   26  O11 UNL     1       6.068   8.155  33.615  1.00  0.00    -0.388 OA
ATOM     27  H11 UNL     1       6.911   7.789  33.856  1.00  0.00     0.210 HD
ENDBRANCH  25  26
BRANCH  25  28
HETATM   28  C22 UNL     1       4.109   7.066  34.311  1.00  0.00     0.295 C 
HETATM   29  O12 UNL     1       3.933   5.743  34.601  1.00  0.00    -0.323 OA
HETATM   30  C23 UNL     1       2.651   5.620  35.069  1.00  0.00     0.360 C 
HETATM   31  C24 UNL     1       1.979   6.899  34.685  1.00  0.00     0.280 C 
HETATM   32  O15 UNL     1       2.896   7.617  33.917  1.00  0.00    -0.339 OA
BRANCH  30  33
HETATM   33  N1  UNL     1       2.055   4.463  34.425  1.00  0.00    -0.050 N 
ATOM     34  H13 UNL     1       1.116   4.259  34.767  1.00  0.00     0.277 HD
ATOM     35  H12 UNL     1       1.808   4.636  33.450  1.00  0.00     0.277 HD
ATOM     36  H11 UNL     1       2.697   3.680  34.538  1.00  0.00     0.277 HD
ENDBRANCH  30  33
BRANCH  31  37
HETATM   37  C25 UNL     1       0.743   6.730  33.915  1.00  0.00     0.292 C 
HETATM   38  O13 UNL     1       0.779   6.833  32.664  1.00  0.00    -0.262 OA
BRANCH  37  39
HETATM   39  O14 UNL     1      -0.491   6.460  34.492  1.00  0.00    -0.324 OA
HETATM   40  C26 UNL     1      -0.785   6.984  35.752  1.00  0.00     0.213 C 
ENDBRANCH  37  39
ENDBRANCH  31  37
ENDBRANCH  25  28
ENDBRANCH  11  25
BRANCH   1  41
HETATM   41  O3  UNL     1       6.150   9.763  27.908  1.00  0.00    -0.350 OA
BRANCH  41  42
HETATM   42  C6  UNL     1       7.100  10.732  28.221  1.00  0.00     0.260 C 
HETATM   43  C5  UNL     1       6.447  11.949  28.816  1.00  0.00     0.061 C 
HETATM   44  C4  UNL     1       7.419  13.089  29.019  1.00  0.00     0.021 C 
HETATM   45  C3  UNL     1       8.136  13.397  27.739  1.00  0.00     0.109 C 
HETATM   46  C28 UNL     1       8.659  12.071  27.171  1.00  0.00     0.185 C 
HETATM   47  O17 UNL     1       7.641  11.167  26.991  1.00  0.00    -0.360 OA
BRANCH  45  48
HETATM   48  C2  UNL     1       9.323  14.248  27.937  1.00  0.00     0.264 C 
HETATM   49  O2  UNL     1       9.190  15.481  28.017  1.00  0.00    -0.265 OA
BRANCH  48  50
HETATM   50  O1  UNL     1      10.568  13.678  28.035  1.00  0.00    -0.326 OA
HETATM   51  C1  UNL     1      11.713  14.397  28.449  1.00  0.00     0.213 C 
ENDBRANCH  48  50
ENDBRANCH  45  48
ENDBRANCH  41  42
ENDBRANCH   1  41
BRANCH   2  52
HETATM   52  C9  UNL     1       5.482   9.696  25.033  1.00  0.00     0.198 C 
BRANCH  52  53
HETATM   53  O4  UNL     1       6.758   9.927  24.450  1.00  0.00    -0.398 OA
ATOM     54  H4  UNL     1       6.602  10.123  23.533  1.00  0.00     0.209 HD
ENDBRANCH  52  53
ENDBRANCH   2  52
TORSDOF 20
ENDMDL
MODEL 5
REMARK VINA RESULT: -7.310523057      4.326      8.754
REMARK  20 active torsions:
REMARK  status: ('A' for Active; 'I' for Inactive)
REMARK    1  A    between atoms: O1_2  and  C2_3 
REMARK    2  A    between atoms: C2_3  and  C3_5 
REMARK    3  A    between atoms: C6_8  and  O3_9 
REMARK    4  A    between atoms: O3_9  and  C7_10 
REMARK    5  A    between atoms: C8_11  and  C9_12 
REMARK    6  A    between atoms: C9_12  and  O4_13 
REMARK    7  A    between atoms: C13_20  and  O7_21 
REMARK    8  A    between atoms: C14_23  and  O8_24 
REMARK    9  A    between atoms: O8_24  and  C15_25 
REMARK   10  A    between atoms: C15_25  and  C16_26 
REMARK   11  A    between atoms: C16_26  and  C17_27 
REMARK   12  A    between atoms: C17_27  and  C18_28 
REMARK   13  A    between atoms: C18_28  and  O9_30 
REMARK   14  A    between atoms: C20_33  and  C21_34 
REMARK   15  A    between atoms: C21_34  and  O11_35 
REMARK   16  A    between atoms: C21_34  and  C22_37 
REMARK   17  A    between atoms: C23_39  and  N1_40 
REMARK   18  A    between atoms: C24_44  and  C25_45 
REMARK   19  A    between atoms: C25_45  and  O14_47 
REMARK   20  A    between atoms: C27_50  and  O16_51 
ROOT
HETATM    1  C7  UNL     1       3.303   5.463  29.403  1.00  0.00     0.195 C 
HETATM    2  C8  UNL     1       4.033   4.317  28.673  1.00  0.00     0.180 C 
HETATM    3  O5  UNL     1       5.264   4.862  28.443  1.00  0.00    -0.348 OA
HETATM    4  C10 UNL     1       5.056   6.193  28.063  1.00  0.00     0.298 C 
HETATM    5  O6  UNL     1       5.777   6.995  28.916  1.00  0.00    -0.339 OA
HETATM    6  C11 UNL     1       5.153   8.202  28.989  1.00  0.00     0.144 C 
HETATM    7  C12 UNL     1       3.686   7.926  28.858  1.00  0.00     0.091 C 
HETATM    8  C13 UNL     1       3.614   6.530  28.392  1.00  0.00     0.139 C 
HETATM    9  C14 UNL     1       5.718   9.199  28.051  1.00  0.00     0.297 C 
HETATM   10  O10 UNL     1       6.792   9.807  28.711  1.00  0.00    -0.347 OA
HETATM   11  C20 UNL     1       6.435   9.875  30.049  1.00  0.00     0.190 C 
HETATM   12  C27 UNL     1       5.353   8.892  30.330  1.00  0.00     0.189 C 
ENDROOT
BRANCH   9  13
HETATM   13  O8  UNL     1       6.224   8.596  26.916  1.00  0.00    -0.358 OA
BRANCH  13  14
HETATM   14  C15 UNL     1       6.982   9.481  26.145  1.00  0.00     0.171 C 
BRANCH  14  15
HETATM   15  C16 UNL     1       6.047  10.230  25.254  1.00  0.00     0.029 C 
BRANCH  15  16
HETATM   16  C17 UNL     1       5.450   9.370  24.164  1.00  0.00     0.033 C 
BRANCH  16  17
HETATM   17  C18 UNL     1       3.952   9.339  24.402  1.00  0.00     0.114 C 
HETATM   18  C19 UNL     1       3.575  10.688  25.003  1.00  0.00     0.039 C 
BRANCH  17  19
HETATM   19  O9  UNL     1       3.594   8.302  25.263  1.00  0.00    -0.396 OA
ATOM     20  H9  UNL     1       2.689   8.043  25.137  1.00  0.00     0.210 HD
ENDBRANCH  17  19
ENDBRANCH  16  17
ENDBRANCH  15  16
ENDBRANCH  14  15
ENDBRANCH  13  14
ENDBRANCH   9  13
BRANCH  12  21
HETATM   21  O16 UNL     1       4.196   9.632  30.667  1.00  0.00    -0.390 OA
ATOM     22  H16 UNL     1       3.493   9.041  30.910  1.00  0.00     0.210 HD
ENDBRANCH  12  21
BRANCH   8  23
HETATM   23  O7  UNL     1       2.804   6.382  27.250  1.00  0.00    -0.382 OA
ATOM     24  H7  UNL     1       2.689   5.463  27.040  1.00  0.00     0.210 HD
ENDBRANCH   8  23
BRANCH  11  25
HETATM   25  C21 UNL     1       5.963  11.320  30.263  1.00  0.00     0.205 C 
BRANCH  25  26
HETATM   26  O11 UNL     1       5.992  11.694  31.592  1.00  0.00    -0.388 OA
ATOM     27  H11 UNL     1       6.877  11.792  31.923  1.00  0.00     0.210 HD
ENDBRANCH  25  26
BRANCH  25  28
HETATM   28  C22 UNL     1       6.931  12.198  29.501  1.00  0.00     0.295 C 
HETATM   29  O12 UNL     1       7.230  13.284  30.273  1.00  0.00    -0.323 OA
HETATM   30  C23 UNL     1       7.567  14.291  29.407  1.00  0.00     0.360 C 
HETATM   31  C24 UNL     1       7.087  13.821  28.071  1.00  0.00     0.280 C 
HETATM   32  O15 UNL     1       6.402  12.625  28.290  1.00  0.00    -0.339 OA
BRANCH  30  33
HETATM   33  N1  UNL     1       6.891  15.497  29.847  1.00  0.00    -0.050 N 
ATOM     34  H13 UNL     1       6.079  15.728  29.275  1.00  0.00     0.277 HD
ATOM     35  H12 UNL     1       6.400  15.376  30.733  1.00  0.00     0.277 HD
ATOM     36  H11 UNL     1       7.581  16.247  29.877  1.00  0.00     0.277 HD
ENDBRANCH  30  33
BRANCH  31  37
HETATM   37  C25 UNL     1       6.199  14.759  27.379  1.00  0.00     0.292 C 
HETATM   38  O13 UNL     1       4.955  14.641  27.514  1.00  0.00    -0.262 OA
BRANCH  37  39
HETATM   39  O14 UNL     1       6.652  15.789  26.566  1.00  0.00    -0.324 OA
HETATM   40  C26 UNL     1       5.729  16.681  26.015  1.00  0.00     0.213 C 
ENDBRANCH  37  39
ENDBRANCH  31  37
ENDBRANCH  25  28
ENDBRANCH  11  25
BRANCH   1  41
HETATM   41  O3  UNL     1       3.904   5.698  30.600  1.00  0.00    -0.350 OA
BRANCH  41  42
HETATM   42  C6  UNL     1       3.038   5.643  31.689  1.00  0.00     0.260 C 
HETATM   43  C5  UNL     1       3.778   5.893  32.975  1.00  0.00     0.061 C 
HETATM   44  C4  UNL     1       2.910   5.682  34.194  1.00  0.00     0.021 C 
HETATM   45  C3  UNL     1       2.280   4.323  34.157  1.00  0.00     0.109 C 
HETATM   46  C28 UNL     1       1.657   4.140  32.766  1.00  0.00     0.185 C 
HETATM   47  O17 UNL     1       2.592   4.307  31.774  1.00  0.00    -0.360 OA
BRANCH  45  48
HETATM   48  C2  UNL     1       1.171   4.179  35.117  1.00  0.00     0.264 C 
HETATM   49  O2  UNL     1       1.396   3.734  36.256  1.00  0.00    -0.265 OA
BRANCH  48  50
HETATM   50  O1  UNL     1      -0.104   4.537  34.754  1.00  0.00    -0.326 OA
HETATM   51  C1  UNL     1      -0.773   5.658  35.298  1.00  0.00     0.213 C 
ENDBRANCH  48  50
ENDBRANCH  45  48
ENDBRANCH  41  42
ENDBRANCH   1  41
BRANCH   2  52
HETATM   52  C9  UNL     1       3.993   3.016  29.366  1.00  0.00     0.198 C 
BRANCH  52  53
HETATM   53  O4  UNL     1       5.017   3.058  30.352  1.00  0.00    -0.398 OA
ATOM     54  H4  UNL     1       5.565   2.297  30.201  1.00  0.00     0.209 HD
ENDBRANCH  52  53
ENDBRANCH   2  52
TORSDOF 20
ENDMDL
