MODEL 1
REMARK VINA RESULT: -8.314486652      0.000      0.000
REMARK  16 active torsions:
REMARK  status: ('A' for Active; 'I' for Inactive)
REMARK    1  A    between atoms: C1_2  and  C2_4 
REMARK    2  A    between atoms: C2_4  and  C3_5 
REMARK    3  A    between atoms: C3_5  and  O3_6 
REMARK    4  A    between atoms: C3_5  and  C18_38 
REMARK    5  A    between atoms: O3_6  and  C4_7 
REMARK    6  A    between atoms: C4_7  and  C5_9 
REMARK    7  A    between atoms: C6_10  and  O5_11 
REMARK    8  A    between atoms: C7_13  and  O6_14 
REMARK    9  A    between atoms: O6_14  and  S1_15 
REMARK   10  A    between atoms: C8_19  and  O10_20 
REMARK   11  A    between atoms: C12_27  and  C13_28 
REMARK   12  A    between atoms: C18_38  and  O17_40 
REMARK   13  A    between atoms: O17_40  and  C19_41 
REMARK   14  A    between atoms: C19_41  and  C20_42 
REMARK   15  A    between atoms: C20_42  and  O19_44 
REMARK   16  A    between atoms: O19_44  and  S2_45 
ROOT
HETATM    1  C5  UNL     1       5.377   8.339  28.720  1.00  0.00     0.103 A 
HETATM    2  C6  UNL     1       5.156   8.172  27.365  1.00  0.00     0.122 A 
HETATM    3  C7  UNL     1       3.876   8.400  26.821  1.00  0.00     0.160 A 
HETATM    4  C8  UNL     1       2.849   8.789  27.631  1.00  0.00     0.120 A 
HETATM    5  C9  UNL     1       3.039   8.964  28.987  1.00  0.00     0.081 A 
HETATM    6  C10 UNL     1       1.965   9.355  29.756  1.00  0.00     0.223 A 
HETATM    7  O11 UNL     1       0.826   9.557  29.256  1.00  0.00    -0.284 OA
HETATM    8  C11 UNL     1       2.111   9.539  31.109  1.00  0.00     0.158 A 
HETATM    9  O12 UNL     1       1.101   9.911  31.861  1.00  0.00    -0.297 OA
HETATM   10  C12 UNL     1       1.205  10.096  33.167  1.00  0.00     0.156 A 
HETATM   11  C14 UNL     1       2.447   9.879  33.734  1.00  0.00     0.101 A 
HETATM   12  C15 UNL     1       3.534   9.488  32.984  1.00  0.00     0.204 A 
HETATM   13  O15 UNL     1       4.675   9.287  33.498  1.00  0.00    -0.286 OA
HETATM   14  C16 UNL     1       3.367   9.308  31.616  1.00  0.00     0.121 A 
HETATM   15  N1  UNL     1       4.414   8.923  30.838  1.00  0.00    -0.349 N 
ATOM     16  H1  UNL     1       5.318   8.771  31.284  1.00  0.00     0.166 HD
HETATM   17  C17 UNL     1       4.316   8.732  29.512  1.00  0.00     0.069 A 
ENDROOT
BRANCH   1  18
HETATM   18  C4  UNL     1       6.704   8.106  29.270  1.00  0.00     0.299 C 
HETATM   19  O4  UNL     1       7.407   8.920  29.911  1.00  0.00    -0.259 OA
BRANCH  18  20
HETATM   20  O3  UNL     1       7.349   6.881  29.120  1.00  0.00    -0.301 OA
BRANCH  20  21
HETATM   21  C3  UNL     1       6.699   5.687  29.596  1.00  0.00     0.241 C 
BRANCH  21  22
HETATM   22  C2  UNL     1       7.661   4.593  29.207  1.00  0.00     0.156 C 
BRANCH  22  23
HETATM   23  C1  UNL     1       7.816   4.391  27.785  1.00  0.00     0.175 C 
HETATM   24  O1  UNL     1       7.130   4.948  26.923  1.00  0.00    -0.648 OA
HETATM   25  O2  UNL     1       8.803   3.512  27.330  1.00  0.00    -0.648 OA
ENDBRANCH  22  23
ENDBRANCH  21  22
BRANCH  21  26
HETATM   26  C18 UNL     1       6.555   5.807  31.075  1.00  0.00     0.289 C 
HETATM   27  O16 UNL     1       7.583   5.728  31.823  1.00  0.00    -0.262 OA
BRANCH  26  28
HETATM   28  O17 UNL     1       5.368   6.003  31.668  1.00  0.00    -0.309 OA
BRANCH  28  29
HETATM   29  C19 UNL     1       4.291   5.133  31.772  1.00  0.00     0.291 C 
BRANCH  29  30
HETATM   30  C20 UNL     1       3.081   5.544  31.044  1.00  0.00     0.300 C 
HETATM   31  O18 UNL     1       2.096   6.043  31.636  1.00  0.00    -0.262 OA
BRANCH  30  32
HETATM   32  O19 UNL     1       3.017   5.380  29.684  1.00  0.00    -0.175 OA
BRANCH  32  33
HETATM   33  S2  UNL     1       2.799   3.862  28.935  1.00  0.00     0.259 S 
HETATM   34  O20 UNL     1       1.667   3.104  29.613  1.00  0.00    -0.572 OA
HETATM   35  O21 UNL     1       4.060   3.084  28.941  1.00  0.00    -0.572 OA
HETATM   36  O22 UNL     1       2.247   4.173  27.365  1.00  0.00    -0.572 OA
ENDBRANCH  32  33
ENDBRANCH  30  32
ENDBRANCH  29  30
ENDBRANCH  28  29
ENDBRANCH  26  28
ENDBRANCH  21  26
ENDBRANCH  20  21
ENDBRANCH  18  20
ENDBRANCH   1  18
BRANCH   2  37
HETATM   37  O5  UNL     1       6.080   7.794  26.462  1.00  0.00    -0.357 OA
ATOM     38  H5  UNL     1       6.022   7.929  25.524  1.00  0.00     0.218 HD
ENDBRANCH   2  37
BRANCH   3  39
HETATM   39  O6  UNL     1       3.631   8.239  25.467  1.00  0.00    -0.208 OA
BRANCH  39  40
HETATM   40  S1  UNL     1       4.130   9.269  24.241  1.00  0.00     0.257 S 
HETATM   41  O7  UNL     1       3.026   9.274  23.190  1.00  0.00    -0.572 OA
HETATM   42  O8  UNL     1       5.357   8.757  23.532  1.00  0.00    -0.572 OA
HETATM   43  O9  UNL     1       4.370  10.812  24.839  1.00  0.00    -0.572 OA
ENDBRANCH  39  40
ENDBRANCH   3  39
BRANCH   4  44
HETATM   44  O10 UNL     1       1.563   9.025  27.119  1.00  0.00    -0.357 OA
ATOM     45  H10 UNL     1       0.788   8.911  27.656  1.00  0.00     0.218 HD
ENDBRANCH   4  44
BRANCH  10  46
HETATM   46  C13 UNL     1       0.081  10.508  33.981  1.00  0.00     0.234 C 
HETATM   47  O13 UNL     1       0.263  10.774  35.184  1.00  0.00    -0.642 OA
HETATM   48  O14 UNL     1      -1.185  10.607  33.440  1.00  0.00    -0.642 OA
ENDBRANCH  10  46
TORSDOF 16
ENDMDL
MODEL 2
REMARK VINA RESULT: -8.306934014      2.621      5.384
REMARK  16 active torsions:
REMARK  status: ('A' for Active; 'I' for Inactive)
REMARK    1  A    between atoms: C1_2  and  C2_4 
REMARK    2  A    between atoms: C2_4  and  C3_5 
REMARK    3  A    between atoms: C3_5  and  O3_6 
REMARK    4  A    between atoms: C3_5  and  C18_38 
REMARK    5  A    between atoms: O3_6  and  C4_7 
REMARK    6  A    between atoms: C4_7  and  C5_9 
REMARK    7  A    between atoms: C6_10  and  O5_11 
REMARK    8  A    between atoms: C7_13  and  O6_14 
REMARK    9  A    between atoms: O6_14  and  S1_15 
REMARK   10  A    between atoms: C8_19  and  O10_20 
REMARK   11  A    between atoms: C12_27  and  C13_28 
REMARK   12  A    between atoms: C18_38  and  O17_40 
REMARK   13  A    between atoms: O17_40  and  C19_41 
REMARK   14  A    between atoms: C19_41  and  C20_42 
REMARK   15  A    between atoms: C20_42  and  O19_44 
REMARK   16  A    between atoms: O19_44  and  S2_45 
ROOT
HETATM    1  C5  UNL     1       3.087   6.907  29.162  1.00  0.00     0.103 A 
HETATM    2  C6  UNL     1       3.092   8.210  28.697  1.00  0.00     0.122 A 
HETATM    3  C7  UNL     1       2.806   9.277  29.573  1.00  0.00     0.160 A 
HETATM    4  C8  UNL     1       2.523   9.028  30.884  1.00  0.00     0.120 A 
HETATM    5  C9  UNL     1       2.510   7.739  31.377  1.00  0.00     0.081 A 
HETATM    6  C10 UNL     1       2.215   7.547  32.709  1.00  0.00     0.223 A 
HETATM    7  O11 UNL     1       1.963   8.511  33.480  1.00  0.00    -0.284 OA
HETATM    8  C11 UNL     1       2.190   6.281  33.239  1.00  0.00     0.158 A 
HETATM    9  O12 UNL     1       1.911   6.075  34.506  1.00  0.00    -0.297 OA
HETATM   10  C12 UNL     1       1.878   4.869  35.049  1.00  0.00     0.156 A 
HETATM   11  C14 UNL     1       2.152   3.799  34.219  1.00  0.00     0.101 A 
HETATM   12  C15 UNL     1       2.449   3.968  32.884  1.00  0.00     0.204 A 
HETATM   13  O15 UNL     1       2.701   2.990  32.117  1.00  0.00    -0.286 OA
HETATM   14  C16 UNL     1       2.471   5.257  32.366  1.00  0.00     0.121 A 
HETATM   15  N1  UNL     1       2.760   5.469  31.054  1.00  0.00    -0.349 N 
ATOM     16  H1  UNL     1       2.958   4.660  30.466  1.00  0.00     0.166 HD
HETATM   17  C17 UNL     1       2.796   6.690  30.495  1.00  0.00     0.069 A 
ENDROOT
BRANCH   1  18
HETATM   18  C4  UNL     1       3.390   5.813  28.252  1.00  0.00     0.299 C 
HETATM   19  O4  UNL     1       2.663   4.829  27.989  1.00  0.00    -0.259 OA
BRANCH  18  20
HETATM   20  O3  UNL     1       4.592   5.763  27.550  1.00  0.00    -0.301 OA
BRANCH  20  21
HETATM   21  C3  UNL     1       5.828   5.936  28.269  1.00  0.00     0.241 C 
BRANCH  21  22
HETATM   22  C2  UNL     1       5.952   4.655  29.054  1.00  0.00     0.156 C 
BRANCH  22  23
HETATM   23  C1  UNL     1       6.437   4.811  30.406  1.00  0.00     0.175 C 
HETATM   24  O1  UNL     1       5.746   4.651  31.416  1.00  0.00    -0.648 OA
HETATM   25  O2  UNL     1       7.774   5.164  30.609  1.00  0.00    -0.648 OA
ENDBRANCH  22  23
ENDBRANCH  21  22
BRANCH  21  26
HETATM   26  C18 UNL     1       6.920   6.087  27.264  1.00  0.00     0.289 C 
HETATM   27  O16 UNL     1       7.602   5.071  26.910  1.00  0.00    -0.262 OA
BRANCH  26  28
HETATM   28  O17 UNL     1       7.221   7.266  26.701  1.00  0.00    -0.309 OA
BRANCH  28  29
HETATM   29  C19 UNL     1       6.904   8.546  27.135  1.00  0.00     0.291 C 
BRANCH  29  30
HETATM   30  C20 UNL     1       6.672   9.531  26.069  1.00  0.00     0.300 C 
HETATM   31  O18 UNL     1       7.622  10.066  25.451  1.00  0.00    -0.262 OA
BRANCH  30  32
HETATM   32  O19 UNL     1       5.390   9.882  25.733  1.00  0.00    -0.175 OA
BRANCH  32  33
HETATM   33  S2  UNL     1       4.690   9.526  24.217  1.00  0.00     0.259 S 
HETATM   34  O20 UNL     1       5.591   8.576  23.439  1.00  0.00    -0.572 OA
HETATM   35  O21 UNL     1       4.417  10.767  23.457  1.00  0.00    -0.572 OA
HETATM   36  O22 UNL     1       3.281   8.643  24.531  1.00  0.00    -0.572 OA
ENDBRANCH  32  33
ENDBRANCH  30  32
ENDBRANCH  29  30
ENDBRANCH  28  29
ENDBRANCH  26  28
ENDBRANCH  21  26
ENDBRANCH  20  21
ENDBRANCH  18  20
ENDBRANCH   1  18
BRANCH   2  37
HETATM   37  O5  UNL     1       3.355   8.588  27.433  1.00  0.00    -0.357 OA
ATOM     38  H5  UNL     1       2.888   9.260  26.950  1.00  0.00     0.218 HD
ENDBRANCH   2  37
BRANCH   3  39
HETATM   39  O6  UNL     1       2.805  10.589  29.130  1.00  0.00    -0.208 OA
BRANCH  39  40
HETATM   40  S1  UNL     1       1.479  11.440  28.556  1.00  0.00     0.257 S 
HETATM   41  O7  UNL     1       0.681  10.480  27.680  1.00  0.00    -0.572 OA
HETATM   42  O8  UNL     1       1.880  12.573  27.647  1.00  0.00    -0.572 OA
HETATM   43  O9  UNL     1       0.540  11.982  29.828  1.00  0.00    -0.572 OA
ENDBRANCH  39  40
ENDBRANCH   3  39
BRANCH   4  44
HETATM   44  O10 UNL     1       2.234  10.070  31.780  1.00  0.00    -0.357 OA
ATOM     45  H10 UNL     1       1.749  10.839  31.505  1.00  0.00     0.218 HD
ENDBRANCH   4  44
BRANCH  10  46
HETATM   46  C13 UNL     1       1.569   4.661  36.448  1.00  0.00     0.234 C 
HETATM   47  O13 UNL     1       2.033   3.664  37.033  1.00  0.00    -0.642 OA
HETATM   48  O14 UNL     1       0.770   5.552  37.136  1.00  0.00    -0.642 OA
ENDBRANCH  10  46
TORSDOF 16
ENDMDL
MODEL 3
REMARK VINA RESULT: -8.244504293      3.087      5.322
REMARK  16 active torsions:
REMARK  status: ('A' for Active; 'I' for Inactive)
REMARK    1  A    between atoms: C1_2  and  C2_4 
REMARK    2  A    between atoms: C2_4  and  C3_5 
REMARK    3  A    between atoms: C3_5  and  O3_6 
REMARK    4  A    between atoms: C3_5  and  C18_38 
REMARK    5  A    between atoms: O3_6  and  C4_7 
REMARK    6  A    between atoms: C4_7  and  C5_9 
REMARK    7  A    between atoms: C6_10  and  O5_11 
REMARK    8  A    between atoms: C7_13  and  O6_14 
REMARK    9  A    between atoms: O6_14  and  S1_15 
REMARK   10  A    between atoms: C8_19  and  O10_20 
REMARK   11  A    between atoms: C12_27  and  C13_28 
REMARK   12  A    between atoms: C18_38  and  O17_40 
REMARK   13  A    between atoms: O17_40  and  C19_41 
REMARK   14  A    between atoms: C19_41  and  C20_42 
REMARK   15  A    between atoms: C20_42  and  O19_44 
REMARK   16  A    between atoms: O19_44  and  S2_45 
ROOT
HETATM    1  C5  UNL     1       6.548   9.542  27.909  1.00  0.00     0.103 A 
HETATM    2  C6  UNL     1       6.702  10.856  27.504  1.00  0.00     0.122 A 
HETATM    3  C7  UNL     1       6.589  11.904  28.440  1.00  0.00     0.160 A 
HETATM    4  C8  UNL     1       6.328  11.626  29.750  1.00  0.00     0.120 A 
HETATM    5  C9  UNL     1       6.171  10.325  30.184  1.00  0.00     0.081 A 
HETATM    6  C10 UNL     1       5.907  10.104  31.517  1.00  0.00     0.223 A 
HETATM    7  O11 UNL     1       5.810  11.051  32.343  1.00  0.00    -0.284 OA
HETATM    8  C11 UNL     1       5.741   8.825  31.989  1.00  0.00     0.158 A 
HETATM    9  O12 UNL     1       5.489   8.592  33.257  1.00  0.00    -0.297 OA
HETATM   10  C12 UNL     1       5.323   7.374  33.745  1.00  0.00     0.156 A 
HETATM   11  C14 UNL     1       5.425   6.321  32.855  1.00  0.00     0.101 A 
HETATM   12  C15 UNL     1       5.688   6.519  31.517  1.00  0.00     0.204 A 
HETATM   13  O15 UNL     1       5.783   5.558  30.696  1.00  0.00    -0.286 OA
HETATM   14  C16 UNL     1       5.854   7.820  31.059  1.00  0.00     0.121 A 
HETATM   15  N1  UNL     1       6.115   8.061  29.746  1.00  0.00    -0.349 N 
ATOM     16  H1  UNL     1       6.186   7.265  29.113  1.00  0.00     0.166 HD
HETATM   17  C17 UNL     1       6.285   9.295  29.242  1.00  0.00     0.069 A 
ENDROOT
BRANCH   1  18
HETATM   18  C4  UNL     1       6.673   8.467  26.936  1.00  0.00     0.299 C 
HETATM   19  O4  UNL     1       7.561   7.585  26.897  1.00  0.00    -0.259 OA
BRANCH  18  20
HETATM   20  O3  UNL     1       5.757   8.317  25.897  1.00  0.00    -0.301 OA
BRANCH  20  21
HETATM   21  C3  UNL     1       4.443   8.888  26.036  1.00  0.00     0.241 C 
BRANCH  21  22
HETATM   22  C2  UNL     1       4.065   9.232  24.618  1.00  0.00     0.156 C 
BRANCH  22  23
HETATM   23  C1  UNL     1       3.828  10.635  24.370  1.00  0.00     0.175 C 
HETATM   24  O1  UNL     1       4.460  11.553  24.902  1.00  0.00    -0.648 OA
HETATM   25  O2  UNL     1       2.823  11.003  23.471  1.00  0.00    -0.648 OA
ENDBRANCH  22  23
ENDBRANCH  21  22
BRANCH  21  26
HETATM   26  C18 UNL     1       3.552   7.842  26.616  1.00  0.00     0.289 C 
HETATM   27  O16 UNL     1       2.346   7.743  26.219  1.00  0.00    -0.262 OA
BRANCH  26  28
HETATM   28  O17 UNL     1       3.971   6.982  27.555  1.00  0.00    -0.309 OA
BRANCH  28  29
HETATM   29  C19 UNL     1       3.222   6.254  28.469  1.00  0.00     0.291 C 
BRANCH  29  30
HETATM   30  C20 UNL     1       3.317   4.792  28.337  1.00  0.00     0.300 C 
HETATM   31  O18 UNL     1       4.217   4.252  27.653  1.00  0.00    -0.262 OA
BRANCH  30  32
HETATM   32  O19 UNL     1       2.404   3.990  28.972  1.00  0.00    -0.175 OA
BRANCH  32  33
HETATM   33  S2  UNL     1       2.713   3.227  30.467  1.00  0.00     0.259 S 
HETATM   34  O20 UNL     1       2.799   4.267  31.576  1.00  0.00    -0.572 OA
HETATM   35  O21 UNL     1       3.940   2.401  30.395  1.00  0.00    -0.572 OA
HETATM   36  O22 UNL     1       1.341   2.304  30.831  1.00  0.00    -0.572 OA
ENDBRANCH  32  33
ENDBRANCH  30  32
ENDBRANCH  29  30
ENDBRANCH  28  29
ENDBRANCH  26  28
ENDBRANCH  21  26
ENDBRANCH  20  21
ENDBRANCH  18  20
ENDBRANCH   1  18
BRANCH   2  37
HETATM   37  O5  UNL     1       6.960  11.262  26.248  1.00  0.00    -0.357 OA
ATOM     38  H5  UNL     1       6.359  11.207  25.515  1.00  0.00     0.218 HD
ENDBRANCH   2  37
BRANCH   3  39
HETATM   39  O6  UNL     1       6.738  13.227  28.058  1.00  0.00    -0.208 OA
BRANCH  39  40
HETATM   40  S1  UNL     1       8.183  14.075  27.969  1.00  0.00     0.257 S 
HETATM   41  O7  UNL     1       7.882  15.391  27.261  1.00  0.00    -0.572 OA
HETATM   42  O8  UNL     1       9.200  13.377  27.104  1.00  0.00    -0.572 OA
HETATM   43  O9  UNL     1       8.783  14.364  29.502  1.00  0.00    -0.572 OA
ENDBRANCH  39  40
ENDBRANCH   3  39
BRANCH   4  44
HETATM   44  O10 UNL     1       6.211  12.648  30.705  1.00  0.00    -0.357 OA
ATOM     45  H10 UNL     1       5.569  12.601  31.404  1.00  0.00     0.218 HD
ENDBRANCH   4  44
BRANCH  10  46
HETATM   46  C13 UNL     1       5.046   7.134  35.146  1.00  0.00     0.234 C 
HETATM   47  O13 UNL     1       4.253   7.884  35.748  1.00  0.00    -0.642 OA
HETATM   48  O14 UNL     1       5.649   6.090  35.818  1.00  0.00    -0.642 OA
ENDBRANCH  10  46
TORSDOF 16
ENDMDL
MODEL 4
REMARK VINA RESULT: -7.967660173      2.797      6.950
REMARK  16 active torsions:
REMARK  status: ('A' for Active; 'I' for Inactive)
REMARK    1  A    between atoms: C1_2  and  C2_4 
REMARK    2  A    between atoms: C2_4  and  C3_5 
REMARK    3  A    between atoms: C3_5  and  O3_6 
REMARK    4  A    between atoms: C3_5  and  C18_38 
REMARK    5  A    between atoms: O3_6  and  C4_7 
REMARK    6  A    between atoms: C4_7  and  C5_9 
REMARK    7  A    between atoms: C6_10  and  O5_11 
REMARK    8  A    between atoms: C7_13  and  O6_14 
REMARK    9  A    between atoms: O6_14  and  S1_15 
REMARK   10  A    between atoms: C8_19  and  O10_20 
REMARK   11  A    between atoms: C12_27  and  C13_28 
REMARK   12  A    between atoms: C18_38  and  O17_40 
REMARK   13  A    between atoms: O17_40  and  C19_41 
REMARK   14  A    between atoms: C19_41  and  C20_42 
REMARK   15  A    between atoms: C20_42  and  O19_44 
REMARK   16  A    between atoms: O19_44  and  S2_45 
ROOT
HETATM    1  C5  UNL     1       5.616   7.013  31.121  1.00  0.00     0.103 A 
HETATM    2  C6  UNL     1       5.855   7.667  32.316  1.00  0.00     0.122 A 
HETATM    3  C7  UNL     1       4.975   7.500  33.404  1.00  0.00     0.160 A 
HETATM    4  C8  UNL     1       3.882   6.691  33.282  1.00  0.00     0.120 A 
HETATM    5  C9  UNL     1       3.618   6.025  32.102  1.00  0.00     0.081 A 
HETATM    6  C10 UNL     1       2.500   5.224  32.035  1.00  0.00     0.223 A 
HETATM    7  O11 UNL     1       1.723   5.083  33.017  1.00  0.00    -0.284 OA
HETATM    8  C11 UNL     1       2.200   4.546  30.880  1.00  0.00     0.158 A 
HETATM    9  O12 UNL     1       1.139   3.777  30.794  1.00  0.00    -0.297 OA
HETATM   10  C12 UNL     1       0.820   3.111  29.697  1.00  0.00     0.156 A 
HETATM   11  C14 UNL     1       1.660   3.252  28.609  1.00  0.00     0.101 A 
HETATM   12  C15 UNL     1       2.784   4.049  28.654  1.00  0.00     0.204 A 
HETATM   13  O15 UNL     1       3.559   4.183  27.659  1.00  0.00    -0.286 OA
HETATM   14  C16 UNL     1       3.072   4.725  29.832  1.00  0.00     0.121 A 
HETATM   15  N1  UNL     1       4.170   5.522  29.920  1.00  0.00    -0.349 N 
ATOM     16  H1  UNL     1       4.773   5.607  29.101  1.00  0.00     0.166 HD
HETATM   17  C17 UNL     1       4.502   6.202  31.030  1.00  0.00     0.069 A 
ENDROOT
BRANCH   1  18
HETATM   18  C4  UNL     1       6.534   7.187  30.005  1.00  0.00     0.299 C 
HETATM   19  O4  UNL     1       7.785   7.200  30.054  1.00  0.00    -0.259 OA
BRANCH  18  20
HETATM   20  O3  UNL     1       6.072   7.368  28.704  1.00  0.00    -0.301 OA
BRANCH  20  21
HETATM   21  C3  UNL     1       6.968   7.127  27.603  1.00  0.00     0.241 C 
BRANCH  21  22
HETATM   22  C2  UNL     1       6.527   5.780  27.089  1.00  0.00     0.156 C 
BRANCH  22  23
HETATM   23  C1  UNL     1       7.127   4.646  27.752  1.00  0.00     0.175 C 
HETATM   24  O1  UNL     1       6.709   4.150  28.802  1.00  0.00    -0.648 OA
HETATM   25  O2  UNL     1       8.257   4.050  27.183  1.00  0.00    -0.648 OA
ENDBRANCH  22  23
ENDBRANCH  21  22
BRANCH  21  26
HETATM   26  C18 UNL     1       6.755   8.209  26.599  1.00  0.00     0.289 C 
HETATM   27  O16 UNL     1       7.562   9.192  26.544  1.00  0.00    -0.262 OA
BRANCH  26  28
HETATM   28  O17 UNL     1       5.733   8.192  25.731  1.00  0.00    -0.309 OA
BRANCH  28  29
HETATM   29  C19 UNL     1       5.280   9.206  24.897  1.00  0.00     0.291 C 
BRANCH  29  30
HETATM   30  C20 UNL     1       3.819   9.298  24.758  1.00  0.00     0.300 C 
HETATM   31  O18 UNL     1       3.285  10.088  23.945  1.00  0.00    -0.262 OA
BRANCH  30  32
HETATM   32  O19 UNL     1       3.011   8.505  25.532  1.00  0.00    -0.175 OA
BRANCH  32  33
HETATM   33  S2  UNL     1       2.617   8.872  27.152  1.00  0.00     0.259 S 
HETATM   34  O20 UNL     1       1.146   9.248  27.258  1.00  0.00    -0.572 OA
HETATM   35  O21 UNL     1       3.495   9.942  27.680  1.00  0.00    -0.572 OA
HETATM   36  O22 UNL     1       2.771   7.429  28.024  1.00  0.00    -0.572 OA
ENDBRANCH  32  33
ENDBRANCH  30  32
ENDBRANCH  29  30
ENDBRANCH  28  29
ENDBRANCH  26  28
ENDBRANCH  21  26
ENDBRANCH  20  21
ENDBRANCH  18  20
ENDBRANCH   1  18
BRANCH   2  37
HETATM   37  O5  UNL     1       6.891   8.488  32.565  1.00  0.00    -0.357 OA
ATOM     38  H5  UNL     1       7.157   9.221  32.023  1.00  0.00     0.218 HD
ENDBRANCH   2  37
BRANCH   3  39
HETATM   39  O6  UNL     1       5.193   8.144  34.610  1.00  0.00    -0.208 OA
BRANCH  39  40
HETATM   40  S1  UNL     1       5.174   7.435  36.130  1.00  0.00     0.257 S 
HETATM   41  O7  UNL     1       3.767   7.616  36.687  1.00  0.00    -0.572 OA
HETATM   42  O8  UNL     1       6.084   8.144  37.100  1.00  0.00    -0.572 OA
HETATM   43  O9  UNL     1       5.550   5.810  36.018  1.00  0.00    -0.572 OA
ENDBRANCH  39  40
ENDBRANCH   3  39
BRANCH   4  44
HETATM   44  O10 UNL     1       2.988   6.504  34.348  1.00  0.00    -0.357 OA
ATOM     45  H10 UNL     1       3.097   6.966  35.171  1.00  0.00     0.218 HD
ENDBRANCH   4  44
BRANCH  10  46
HETATM   46  C13 UNL     1      -0.354   2.266  29.621  1.00  0.00     0.234 C 
HETATM   47  O13 UNL     1      -1.192   2.300  30.543  1.00  0.00    -0.642 OA
HETATM   48  O14 UNL     1      -0.553   1.427  28.543  1.00  0.00    -0.642 OA
ENDBRANCH  10  46
TORSDOF 16
ENDMDL
MODEL 5
REMARK VINA RESULT: -7.931226881      3.465      6.282
REMARK  16 active torsions:
REMARK  status: ('A' for Active; 'I' for Inactive)
REMARK    1  A    between atoms: C1_2  and  C2_4 
REMARK    2  A    between atoms: C2_4  and  C3_5 
REMARK    3  A    between atoms: C3_5  and  O3_6 
REMARK    4  A    between atoms: C3_5  and  C18_38 
REMARK    5  A    between atoms: O3_6  and  C4_7 
REMARK    6  A    between atoms: C4_7  and  C5_9 
REMARK    7  A    between atoms: C6_10  and  O5_11 
REMARK    8  A    between atoms: C7_13  and  O6_14 
REMARK    9  A    between atoms: O6_14  and  S1_15 
REMARK   10  A    between atoms: C8_19  and  O10_20 
REMARK   11  A    between atoms: C12_27  and  C13_28 
REMARK   12  A    between atoms: C18_38  and  O17_40 
REMARK   13  A    between atoms: O17_40  and  C19_41 
REMARK   14  A    between atoms: C19_41  and  C20_42 
REMARK   15  A    between atoms: C20_42  and  O19_44 
REMARK   16  A    between atoms: O19_44  and  S2_45 
ROOT
HETATM    1  C5  UNL     1       6.054  10.517  26.459  1.00  0.00     0.103 A 
HETATM    2  C6  UNL     1       5.269  11.621  26.181  1.00  0.00     0.122 A 
HETATM    3  C7  UNL     1       3.868  11.547  26.318  1.00  0.00     0.160 A 
HETATM    4  C8  UNL     1       3.281  10.385  26.727  1.00  0.00     0.120 A 
HETATM    5  C9  UNL     1       4.039   9.267  27.012  1.00  0.00     0.081 A 
HETATM    6  C10 UNL     1       3.392   8.121  27.419  1.00  0.00     0.223 A 
HETATM    7  O11 UNL     1       2.139   8.070  27.539  1.00  0.00    -0.284 OA
HETATM    8  C11 UNL     1       4.108   6.987  27.710  1.00  0.00     0.158 A 
HETATM    9  O12 UNL     1       3.512   5.883  28.100  1.00  0.00    -0.297 OA
HETATM   10  C12 UNL     1       4.171   4.772  28.388  1.00  0.00     0.156 A 
HETATM   11  C14 UNL     1       5.547   4.808  28.263  1.00  0.00     0.101 A 
HETATM   12  C15 UNL     1       6.214   5.943  27.857  1.00  0.00     0.204 A 
HETATM   13  O15 UNL     1       7.476   5.982  27.741  1.00  0.00    -0.286 OA
HETATM   14  C16 UNL     1       5.472   7.082  27.568  1.00  0.00     0.121 A 
HETATM   15  N1  UNL     1       6.090   8.224  27.165  1.00  0.00    -0.349 N 
ATOM     16  H1  UNL     1       7.107   8.221  27.083  1.00  0.00     0.166 HD
HETATM   17  C17 UNL     1       5.429   9.356  26.871  1.00  0.00     0.069 A 
ENDROOT
BRANCH   1  18
HETATM   18  C4  UNL     1       7.500  10.605  26.321  1.00  0.00     0.299 C 
HETATM   19  O4  UNL     1       8.288   9.675  26.037  1.00  0.00    -0.259 OA
BRANCH  18  20
HETATM   20  O3  UNL     1       8.176  11.809  26.506  1.00  0.00    -0.301 OA
BRANCH  20  21
HETATM   21  C3  UNL     1       8.694  12.126  27.812  1.00  0.00     0.241 C 
BRANCH  21  22
HETATM   22  C2  UNL     1       9.513  13.367  27.566  1.00  0.00     0.156 C 
BRANCH  22  23
HETATM   23  C1  UNL     1      10.904  13.267  27.942  1.00  0.00     0.175 C 
HETATM   24  O1  UNL     1      11.550  14.175  28.472  1.00  0.00    -0.648 OA
HETATM   25  O2  UNL     1      11.585  12.070  27.703  1.00  0.00    -0.648 OA
ENDBRANCH  22  23
ENDBRANCH  21  22
BRANCH  21  26
HETATM   26  C18 UNL     1       7.531  12.389  28.708  1.00  0.00     0.289 C 
HETATM   27  O16 UNL     1       6.885  13.482  28.607  1.00  0.00    -0.262 OA
BRANCH  26  28
HETATM   28  O17 UNL     1       7.124  11.509  29.634  1.00  0.00    -0.309 OA
BRANCH  28  29
HETATM   29  C19 UNL     1       5.882  11.397  30.246  1.00  0.00     0.291 C 
BRANCH  29  30
HETATM   30  C20 UNL     1       5.361  10.027  30.362  1.00  0.00     0.300 C 
HETATM   31  O18 UNL     1       4.144   9.801  30.552  1.00  0.00    -0.262 OA
BRANCH  30  32
HETATM   32  O19 UNL     1       6.219   8.962  30.263  1.00  0.00    -0.175 OA
BRANCH  32  33
HETATM   33  S2  UNL     1       6.251   7.680  31.390  1.00  0.00     0.259 S 
HETATM   34  O20 UNL     1       5.067   6.753  31.158  1.00  0.00    -0.572 OA
HETATM   35  O21 UNL     1       6.277   8.197  32.778  1.00  0.00    -0.572 OA
HETATM   36  O22 UNL     1       7.620   6.752  31.028  1.00  0.00    -0.572 OA
ENDBRANCH  32  33
ENDBRANCH  30  32
ENDBRANCH  29  30
ENDBRANCH  28  29
ENDBRANCH  26  28
ENDBRANCH  21  26
ENDBRANCH  20  21
ENDBRANCH  18  20
ENDBRANCH   1  18
BRANCH   2  37
HETATM   37  O5  UNL     1       5.721  12.820  25.772  1.00  0.00    -0.357 OA
ATOM     38  H5  UNL     1       6.118  13.479  26.328  1.00  0.00     0.218 HD
ENDBRANCH   2  37
BRANCH   3  39
HETATM   39  O6  UNL     1       3.061  12.639  26.045  1.00  0.00    -0.208 OA
BRANCH  39  40
HETATM   40  S1  UNL     1       2.468  13.738  27.166  1.00  0.00     0.257 S 
HETATM   41  O7  UNL     1       1.133  13.192  27.658  1.00  0.00    -0.572 OA
HETATM   42  O8  UNL     1       2.150  15.072  26.541  1.00  0.00    -0.572 OA
HETATM   43  O9  UNL     1       3.535  13.901  28.442  1.00  0.00    -0.572 OA
ENDBRANCH  39  40
ENDBRANCH   3  39
BRANCH   4  44
HETATM   44  O10 UNL     1       1.888  10.281  26.874  1.00  0.00    -0.357 OA
ATOM     45  H10 UNL     1       1.416   9.512  26.578  1.00  0.00     0.218 HD
ENDBRANCH   4  44
BRANCH  10  46
HETATM   46  C13 UNL     1       3.497   3.564  28.816  1.00  0.00     0.234 C 
HETATM   47  O13 UNL     1       4.086   2.775  29.580  1.00  0.00    -0.642 OA
HETATM   48  O14 UNL     1       2.216   3.280  28.389  1.00  0.00    -0.642 OA
ENDBRANCH  10  46
TORSDOF 16
ENDMDL
