MODEL 1
REMARK VINA RESULT: -3.800265833      0.000      0.000
REMARK  2 active torsions:
REMARK  status: ('A' for Active; 'I' for Inactive)
REMARK    1  A    between atoms: N1_2  and  C3_4 
REMARK    2  A    between atoms: C3_4  and  C4_5 
ROOT
HETATM    1  C4  UNL     1       8.826  47.464  57.647  1.00  0.00     0.172 A 
HETATM    2  C5  UNL     1       9.592  48.332  58.648  1.00  0.00     0.050 C 
HETATM    3  C6  UNL     1       8.409  46.135  58.238  1.00  0.00     0.273 A 
HETATM    4  N2  UNL     1       9.402  46.265  57.151  1.00  0.00    -0.061 N 
ATOM      5  H21 UNL     1      10.364  45.944  57.040  1.00  0.00     0.278 HD
ATOM      6  H22 UNL     1       9.478  45.858  56.219  1.00  0.00     0.278 HD
ENDROOT
BRANCH   1   7
HETATM    7  C3  UNL     1       7.764  48.210  56.926  1.00  0.00     0.311 C 
BRANCH   7   8
HETATM    8  N1  UNL     1       8.199  49.310  56.128  1.00  0.00     0.082 N 
HETATM    9  C1  UNL     1       7.678  49.072  54.770  1.00  0.00     0.309 C 
HETATM   10  C2  UNL     1       7.502  50.530  56.571  1.00  0.00     0.309 C 
ENDBRANCH   7   8
ENDBRANCH   1   7
TORSDOF 2
ENDMDL
MODEL 2
REMARK VINA RESULT: -3.174863653      1.239      3.488
REMARK  2 active torsions:
REMARK  status: ('A' for Active; 'I' for Inactive)
REMARK    1  A    between atoms: N1_2  and  C3_4 
REMARK    2  A    between atoms: C3_4  and  C4_5 
ROOT
HETATM    1  C4  UNL     1       7.991  48.305  56.322  1.00  0.00     0.172 A 
HETATM    2  C5  UNL     1       7.140  49.380  57.000  1.00  0.00     0.050 C 
HETATM    3  C6  UNL     1       8.301  48.639  54.880  1.00  0.00     0.273 A 
HETATM    4  N2  UNL     1       7.443  47.506  55.285  1.00  0.00    -0.061 N 
ATOM      5  H21 UNL     1       6.493  47.226  55.044  1.00  0.00     0.278 HD
ATOM      6  H22 UNL     1       7.464  46.506  55.086  1.00  0.00     0.278 HD
ENDROOT
BRANCH   1   7
HETATM    7  C3  UNL     1       9.150  47.876  57.148  1.00  0.00     0.311 C 
BRANCH   7   8
HETATM    8  N1  UNL     1       8.843  47.361  58.443  1.00  0.00     0.082 N 
HETATM    9  C1  UNL     1       8.788  45.895  58.306  1.00  0.00     0.309 C 
HETATM   10  C2  UNL     1       9.991  47.596  59.336  1.00  0.00     0.309 C 
ENDBRANCH   7   8
ENDBRANCH   1   7
TORSDOF 2
ENDMDL
MODEL 3
REMARK VINA RESULT: -3.120397263      0.888      3.748
REMARK  2 active torsions:
REMARK  status: ('A' for Active; 'I' for Inactive)
REMARK    1  A    between atoms: N1_2  and  C3_4 
REMARK    2  A    between atoms: C3_4  and  C4_5 
ROOT
HETATM    1  C4  UNL     1       8.001  49.104  56.435  1.00  0.00     0.172 A 
HETATM    2  C5  UNL     1       8.464  48.900  54.991  1.00  0.00     0.050 C 
HETATM    3  C6  UNL     1       6.821  50.045  56.535  1.00  0.00     0.273 A 
HETATM    4  N2  UNL     1       8.162  50.365  57.068  1.00  0.00    -0.061 N 
ATOM      5  H21 UNL     1       8.805  51.144  56.924  1.00  0.00     0.278 HD
ATOM      6  H22 UNL     1       8.501  50.649  57.987  1.00  0.00     0.278 HD
ENDROOT
BRANCH   1   7
HETATM    7  C3  UNL     1       7.876  47.831  57.189  1.00  0.00     0.311 C 
BRANCH   7   8
HETATM    8  N1  UNL     1       9.099  47.195  57.558  1.00  0.00     0.082 N 
HETATM    9  C1  UNL     1       9.674  48.000  58.651  1.00  0.00     0.309 C 
HETATM   10  C2  UNL     1       8.795  45.899  58.189  1.00  0.00     0.309 C 
ENDBRANCH   7   8
ENDBRANCH   1   7
TORSDOF 2
ENDMDL
MODEL 4
REMARK VINA RESULT: -3.069235981      2.481      4.319
REMARK  2 active torsions:
REMARK  status: ('A' for Active; 'I' for Inactive)
REMARK    1  A    between atoms: N1_2  and  C3_4 
REMARK    2  A    between atoms: C3_4  and  C4_5 
ROOT
HETATM    1  C4  UNL     1       7.347  51.140  55.822  1.00  0.00     0.172 A 
HETATM    2  C5  UNL     1       7.717  50.730  57.249  1.00  0.00     0.050 C 
HETATM    3  C6  UNL     1       8.073  52.389  55.374  1.00  0.00     0.273 A 
HETATM    4  N2  UNL     1       6.611  52.332  55.587  1.00  0.00    -0.061 N 
ATOM      5  H21 UNL     1       5.965  52.879  56.155  1.00  0.00     0.278 HD
ATOM      6  H22 UNL     1       5.809  52.555  54.999  1.00  0.00     0.278 HD
ENDROOT
BRANCH   1   7
HETATM    7  C3  UNL     1       7.372  50.003  54.866  1.00  0.00     0.311 C 
BRANCH   7   8
HETATM    8  N1  UNL     1       8.471  49.101  54.991  1.00  0.00     0.082 N 
HETATM    9  C1  UNL     1       7.891  47.773  55.257  1.00  0.00     0.309 C 
HETATM   10  C2  UNL     1       9.120  48.953  53.676  1.00  0.00     0.309 C 
ENDBRANCH   7   8
ENDBRANCH   1   7
TORSDOF 2
ENDMDL
MODEL 5
REMARK VINA RESULT: -3.005437240      1.752      3.715
REMARK  2 active torsions:
REMARK  status: ('A' for Active; 'I' for Inactive)
REMARK    1  A    between atoms: N1_2  and  C3_4 
REMARK    2  A    between atoms: C3_4  and  C4_5 
ROOT
HETATM    1  C4  UNL     1       8.974  47.062  57.783  1.00  0.00     0.172 A 
HETATM    2  C5  UNL     1       8.689  45.760  58.535  1.00  0.00     0.050 C 
HETATM    3  C6  UNL     1       7.769  47.561  57.018  1.00  0.00     0.273 A 
HETATM    4  N2  UNL     1       9.003  47.078  56.364  1.00  0.00    -0.061 N 
ATOM      5  H21 UNL     1       9.188  46.365  55.659  1.00  0.00     0.278 HD
ATOM      6  H22 UNL     1       9.640  47.488  55.681  1.00  0.00     0.278 HD
ENDROOT
BRANCH   1   7
HETATM    7  C3  UNL     1       9.672  48.073  58.618  1.00  0.00     0.311 C 
BRANCH   7   8
HETATM    8  N1  UNL     1       9.961  47.688  59.962  1.00  0.00     0.082 N 
HETATM    9  C1  UNL     1      11.407  47.412  60.014  1.00  0.00     0.309 C 
HETATM   10  C2  UNL     1       9.786  48.855  60.843  1.00  0.00     0.309 C 
ENDBRANCH   7   8
ENDBRANCH   1   7
TORSDOF 2
ENDMDL
