MODEL 1
REMARK VINA RESULT: -4.091362973      0.000      0.000
REMARK  1 active torsions:
REMARK  status: ('A' for Active; 'I' for Inactive)
REMARK    1  A    between atoms: C2_2  and  C3_3 
ROOT
HETATM    1  C3  UNL     1       8.233  48.435  56.627  1.00  0.00     0.248 C 
HETATM    2  C4  UNL     1       8.281  48.152  55.137  1.00  0.00     0.067 C 
HETATM    3  C5  UNL     1       8.591  49.402  54.340  1.00  0.00     0.237 C 
HETATM    4  N1  UNL     1       8.169  50.571  55.058  1.00  0.00    -0.049 N 
ATOM      5  H11 UNL     1       8.020  51.357  54.426  1.00  0.00     0.279 HD
ATOM      6  H12 UNL     1       8.931  50.954  55.618  1.00  0.00     0.279 HD
HETATM    7  C6  UNL     1       7.011  50.328  55.860  1.00  0.00     0.503 C 
HETATM    8  N2  UNL     1       7.273  49.450  56.966  1.00  0.00     0.117 N 
HETATM    9  C7  UNL     1       7.803  50.277  58.051  1.00  0.00     0.312 C 
ENDROOT
BRANCH   1  10
HETATM   10  C2  UNL     1       8.010  47.154  57.332  1.00  0.00    -0.002 C 
HETATM   11  C1  UNL     1       9.002  46.533  57.967  1.00  0.00     0.009 C 
ENDBRANCH   1  10
TORSDOF 1
ENDMDL
MODEL 2
REMARK VINA RESULT: -4.036619953      1.477      3.778
REMARK  1 active torsions:
REMARK  status: ('A' for Active; 'I' for Inactive)
REMARK    1  A    between atoms: C2_2  and  C3_3 
ROOT
HETATM    1  C3  UNL     1       8.096  50.109  55.925  1.00  0.00     0.248 C 
HETATM    2  C4  UNL     1       7.814  49.512  57.292  1.00  0.00     0.067 C 
HETATM    3  C5  UNL     1       8.557  48.208  57.496  1.00  0.00     0.237 C 
HETATM    4  N1  UNL     1       8.817  47.577  56.234  1.00  0.00    -0.049 N 
ATOM      5  H11 UNL     1       8.966  46.574  56.348  1.00  0.00     0.279 HD
ATOM      6  H12 UNL     1       9.735  47.838  55.874  1.00  0.00     0.279 HD
HETATM    7  C6  UNL     1       7.793  47.840  55.273  1.00  0.00     0.503 C 
HETATM    8  N2  UNL     1       7.763  49.212  54.851  1.00  0.00     0.117 N 
HETATM    9  C7  UNL     1       8.751  49.352  53.779  1.00  0.00     0.312 C 
ENDROOT
BRANCH   1  10
HETATM   10  C2  UNL     1       7.402  51.413  55.841  1.00  0.00    -0.002 C 
HETATM   11  C1  UNL     1       7.959  52.452  55.222  1.00  0.00     0.009 C 
ENDBRANCH   1  10
TORSDOF 1
ENDMDL
MODEL 3
REMARK VINA RESULT: -3.811258250      1.493      3.733
REMARK  1 active torsions:
REMARK  status: ('A' for Active; 'I' for Inactive)
REMARK    1  A    between atoms: C2_2  and  C3_3 
ROOT
HETATM    1  C3  UNL     1       8.143  49.500  56.598  1.00  0.00     0.248 C 
HETATM    2  C4  UNL     1       8.564  49.483  58.056  1.00  0.00     0.067 C 
HETATM    3  C5  UNL     1       9.452  48.297  58.368  1.00  0.00     0.237 C 
HETATM    4  N1  UNL     1       9.186  47.220  57.458  1.00  0.00    -0.049 N 
ATOM      5  H11 UNL     1       9.474  46.325  57.854  1.00  0.00     0.279 HD
ATOM      6  H12 UNL     1       9.815  47.253  56.655  1.00  0.00     0.279 HD
HETATM    7  C6  UNL     1       7.820  47.184  57.042  1.00  0.00     0.503 C 
HETATM    8  N2  UNL     1       7.462  48.296  56.206  1.00  0.00     0.117 N 
HETATM    9  C7  UNL     1       7.847  47.944  54.838  1.00  0.00     0.312 C 
ENDROOT
BRANCH   1  10
HETATM   10  C2  UNL     1       7.353  50.728  56.361  1.00  0.00    -0.002 C 
HETATM   11  C1  UNL     1       7.759  51.654  55.495  1.00  0.00     0.009 C 
ENDBRANCH   1  10
TORSDOF 1
ENDMDL
MODEL 4
REMARK VINA RESULT: -3.767488427      1.379      3.309
REMARK  1 active torsions:
REMARK  status: ('A' for Active; 'I' for Inactive)
REMARK    1  A    between atoms: C2_2  and  C3_3 
ROOT
HETATM    1  C3  UNL     1       7.523  50.352  55.979  1.00  0.00     0.248 C 
HETATM    2  C4  UNL     1       7.925  49.361  54.903  1.00  0.00     0.067 C 
HETATM    3  C5  UNL     1       7.643  47.934  55.323  1.00  0.00     0.237 C 
HETATM    4  N1  UNL     1       7.659  47.821  56.754  1.00  0.00    -0.049 N 
ATOM      5  H11 UNL     1       7.842  46.860  57.044  1.00  0.00     0.279 HD
ATOM      6  H12 UNL     1       6.722  47.933  57.142  1.00  0.00     0.279 HD
HETATM    7  C6  UNL     1       8.580  48.728  57.361  1.00  0.00     0.503 C 
HETATM    8  N2  UNL     1       8.178  50.100  57.234  1.00  0.00     0.117 N 
HETATM    9  C7  UNL     1       7.247  50.375  58.331  1.00  0.00     0.312 C 
ENDROOT
BRANCH   1  10
HETATM   10  C2  UNL     1       7.754  51.717  55.457  1.00  0.00    -0.002 C 
HETATM   11  C1  UNL     1       8.088  51.923  54.185  1.00  0.00     0.009 C 
ENDBRANCH   1  10
TORSDOF 1
ENDMDL
MODEL 5
REMARK VINA RESULT: -3.591111087      1.212      2.330
REMARK  1 active torsions:
REMARK  status: ('A' for Active; 'I' for Inactive)
REMARK    1  A    between atoms: C2_2  and  C3_3 
ROOT
HETATM    1  C3  UNL     1       8.116  48.346  56.878  1.00  0.00     0.248 C 
HETATM    2  C4  UNL     1       8.271  49.713  57.519  1.00  0.00     0.067 C 
HETATM    3  C5  UNL     1       7.410  50.753  56.835  1.00  0.00     0.237 C 
HETATM    4  N1  UNL     1       7.164  50.381  55.471  1.00  0.00    -0.049 N 
ATOM      5  H11 UNL     1       6.924  51.195  54.905  1.00  0.00     0.279 HD
ATOM      6  H12 UNL     1       6.292  49.859  55.383  1.00  0.00     0.279 HD
HETATM    7  C6  UNL     1       8.257  49.660  54.898  1.00  0.00     0.503 C 
HETATM    8  N2  UNL     1       8.427  48.355  55.474  1.00  0.00     0.117 N 
HETATM    9  C7  UNL     1       7.514  47.455  54.768  1.00  0.00     0.312 C 
ENDROOT
BRANCH   1  10
HETATM   10  C2  UNL     1       8.922  47.379  57.654  1.00  0.00    -0.002 C 
HETATM   11  C1  UNL     1       9.721  47.780  58.641  1.00  0.00     0.009 C 
ENDBRANCH   1  10
TORSDOF 1
ENDMDL
