MODEL 1
REMARK VINA RESULT: -2.850061541      0.000      0.000
REMARK  1 active torsions:
REMARK  status: ('A' for Active; 'I' for Inactive)
REMARK    1  A    between atoms: C5_6  and  C6_7 
ROOT
HETATM    1  C1  UNL     1       4.313  51.439  61.612  1.00  0.00     0.272 C 
HETATM    2  N1  UNL     1       2.884  51.678  61.852  1.00  0.00    -0.066 N 
HETATM    3  C2  UNL     1       2.598  51.934  63.212  1.00  0.00     0.272 C 
HETATM    4  C3  UNL     1       2.348  52.759  61.009  1.00  0.00     0.239 C 
HETATM    5  C4  UNL     1       1.098  51.900  60.844  1.00  0.00     0.067 C 
HETATM    6  C5  UNL     1       2.075  50.772  61.123  1.00  0.00     0.228 C 
ENDROOT
BRANCH   6   7
HETATM    7  C6  UNL     1       1.524  49.607  61.803  1.00  0.00     0.086 C 
HETATM    8  N2  UNL     1       1.936  48.437  61.461  1.00  0.00    -0.409 N 
ATOM      9  H22 UNL     1       2.637  48.344  60.726  1.00  0.00     0.155 HD
ATOM     10  H21 UNL     1       1.550  47.622  61.937  1.00  0.00     0.155 HD
ENDBRANCH   6   7
TORSDOF 1
ENDMDL
MODEL 2
REMARK VINA RESULT: -2.831545777      7.536      8.497
REMARK  1 active torsions:
REMARK  status: ('A' for Active; 'I' for Inactive)
REMARK    1  A    between atoms: C5_6  and  C6_7 
ROOT
HETATM    1  C1  UNL     1       9.204  48.611  57.742  1.00  0.00     0.272 C 
HETATM    2  N1  UNL     1       8.016  48.826  56.904  1.00  0.00    -0.066 N 
HETATM    3  C2  UNL     1       7.297  47.633  56.666  1.00  0.00     0.272 C 
HETATM    4  C3  UNL     1       7.122  49.856  57.456  1.00  0.00     0.239 C 
HETATM    5  C4  UNL     1       6.922  50.336  56.022  1.00  0.00     0.067 C 
HETATM    6  C5  UNL     1       8.290  49.707  55.830  1.00  0.00     0.228 C 
ENDROOT
BRANCH   6   7
HETATM    7  C6  UNL     1       8.556  49.153  54.508  1.00  0.00     0.086 C 
HETATM    8  N2  UNL     1       9.010  49.932  53.590  1.00  0.00    -0.409 N 
ATOM      9  H22 UNL     1       9.176  50.916  53.800  1.00  0.00     0.155 HD
ATOM     10  H21 UNL     1       9.196  49.544  52.665  1.00  0.00     0.155 HD
ENDBRANCH   6   7
TORSDOF 1
ENDMDL
MODEL 3
REMARK VINA RESULT: -2.648309204      1.690      3.621
REMARK  1 active torsions:
REMARK  status: ('A' for Active; 'I' for Inactive)
REMARK    1  A    between atoms: C5_6  and  C6_7 
ROOT
HETATM    1  C1  UNL     1       1.001  51.918  60.532  1.00  0.00     0.272 C 
HETATM    2  N1  UNL     1       1.855  51.918  61.727  1.00  0.00    -0.066 N 
HETATM    3  C2  UNL     1       1.112  51.789  62.923  1.00  0.00     0.272 C 
HETATM    4  C3  UNL     1       2.902  50.886  61.667  1.00  0.00     0.239 C 
HETATM    5  C4  UNL     1       3.840  51.917  62.287  1.00  0.00     0.067 C 
HETATM    6  C5  UNL     1       2.876  52.894  61.638  1.00  0.00     0.228 C 
ENDROOT
BRANCH   6   7
HETATM    7  C6  UNL     1       2.703  54.168  62.324  1.00  0.00     0.086 C 
HETATM    8  N2  UNL     1       2.854  55.257  61.656  1.00  0.00    -0.409 N 
ATOM      9  H22 UNL     1       3.090  55.212  60.665  1.00  0.00     0.155 HD
ATOM     10  H21 UNL     1       2.733  56.149  62.137  1.00  0.00     0.155 HD
ENDBRANCH   6   7
TORSDOF 1
ENDMDL
MODEL 4
REMARK VINA RESULT: -2.620003199      9.481     10.923
REMARK  1 active torsions:
REMARK  status: ('A' for Active; 'I' for Inactive)
REMARK    1  A    between atoms: C5_6  and  C6_7 
ROOT
HETATM    1  C1  UNL     1      11.919  46.660  62.386  1.00  0.00     0.272 C 
HETATM    2  N1  UNL     1      12.767  47.820  62.082  1.00  0.00    -0.066 N 
HETATM    3  C2  UNL     1      12.830  48.741  63.153  1.00  0.00     0.272 C 
HETATM    4  C3  UNL     1      14.124  47.428  61.671  1.00  0.00     0.239 C 
HETATM    5  C4  UNL     1      14.044  48.545  60.633  1.00  0.00     0.067 C 
HETATM    6  C5  UNL     1      12.553  48.290  60.764  1.00  0.00     0.228 C 
ENDROOT
BRANCH   6   7
HETATM    7  C6  UNL     1      11.690  49.446  60.553  1.00  0.00     0.086 C 
HETATM    8  N2  UNL     1      10.602  49.292  59.885  1.00  0.00    -0.409 N 
ATOM      9  H22 UNL     1      10.362  48.372  59.516  1.00  0.00     0.155 HD
ATOM     10  H21 UNL     1       9.998  50.101  59.737  1.00  0.00     0.155 HD
ENDBRANCH   6   7
TORSDOF 1
ENDMDL
MODEL 5
REMARK VINA RESULT: -2.615603534      1.341      2.833
REMARK  1 active torsions:
REMARK  status: ('A' for Active; 'I' for Inactive)
REMARK    1  A    between atoms: C5_6  and  C6_7 
ROOT
HETATM    1  C1  UNL     1       1.731  49.236  61.924  1.00  0.00     0.272 C 
HETATM    2  N1  UNL     1       2.447  50.439  62.369  1.00  0.00    -0.066 N 
HETATM    3  C2  UNL     1       1.867  51.020  63.520  1.00  0.00     0.272 C 
HETATM    4  C3  UNL     1       3.879  50.186  62.595  1.00  0.00     0.239 C 
HETATM    5  C4  UNL     1       4.136  51.550  61.961  1.00  0.00     0.067 C 
HETATM    6  C5  UNL     1       2.812  51.262  61.276  1.00  0.00     0.228 C 
ENDROOT
BRANCH   6   7
HETATM    7  C6  UNL     1       1.994  52.425  60.959  1.00  0.00     0.086 C 
HETATM    8  N2  UNL     1       1.000  52.283  60.155  1.00  0.00    -0.409 N 
ATOM      9  H22 UNL     1       0.802  51.365  59.755  1.00  0.00     0.155 HD
ATOM     10  H21 UNL     1       0.427  53.097  59.933  1.00  0.00     0.155 HD
ENDBRANCH   6   7
TORSDOF 1
ENDMDL
