MODEL 1
REMARK VINA RESULT: -3.056539614      0.000      0.000
REMARK  1 active torsions:
REMARK  status: ('A' for Active; 'I' for Inactive)
REMARK    1  A    between atoms: C2_2  and  C3_3 
ROOT
HETATM    1  C3  UNL     1       2.211  52.999  62.150  1.00  0.00     0.408 C 
HETATM    2  N1  UNL     1       1.874  53.200  60.734  1.00  0.00    -0.041 N 
ATOM      3  H11 UNL     1       2.663  53.368  60.111  1.00  0.00     0.280 HD
ATOM      4  H12 UNL     1       1.403  54.076  60.510  1.00  0.00     0.280 HD
HETATM    5  C4  UNL     1       1.114  51.991  60.476  1.00  0.00     0.263 C 
HETATM    6  C5  UNL     1       1.777  50.948  61.352  1.00  0.00     0.267 C 
HETATM    7  N2  UNL     1       2.758  51.692  62.154  1.00  0.00    -0.041 N 
HETATM    8  C6  UNL     1       4.022  51.562  61.488  1.00  0.00     0.275 C 
HETATM    9  C7  UNL     1       2.875  51.096  63.462  1.00  0.00     0.275 C 
ENDROOT
BRANCH   1  10
HETATM   10  C2  UNL     1       3.098  54.060  62.657  1.00  0.00     0.025 C 
HETATM   11  C1  UNL     1       3.051  55.322  62.300  1.00  0.00     0.011 C 
ENDBRANCH   1  10
TORSDOF 1
ENDMDL
MODEL 2
REMARK VINA RESULT: -2.923650864      8.913     10.470
REMARK  1 active torsions:
REMARK  status: ('A' for Active; 'I' for Inactive)
REMARK    1  A    between atoms: C2_2  and  C3_3 
ROOT
HETATM    1  C3  UNL     1      11.768  47.365  60.576  1.00  0.00     0.408 C 
HETATM    2  N1  UNL     1      11.790  46.411  61.694  1.00  0.00    -0.041 N 
ATOM      3  H11 UNL     1      11.892  46.819  62.622  1.00  0.00     0.280 HD
ATOM      4  H12 UNL     1      12.626  45.831  61.766  1.00  0.00     0.280 HD
HETATM    5  C4  UNL     1      10.549  45.700  61.450  1.00  0.00     0.263 C 
HETATM    6  C5  UNL     1       9.630  46.757  60.873  1.00  0.00     0.267 C 
HETATM    7  N2  UNL     1      10.479  47.941  60.689  1.00  0.00    -0.041 N 
HETATM    8  C6  UNL     1      10.285  48.773  61.843  1.00  0.00     0.275 C 
HETATM    9  C7  UNL     1      10.048  48.677  59.526  1.00  0.00     0.275 C 
ENDROOT
BRANCH   1  10
HETATM   10  C2  UNL     1      12.895  48.311  60.643  1.00  0.00     0.025 C 
HETATM   11  C1  UNL     1      14.124  48.003  60.985  1.00  0.00     0.011 C 
ENDBRANCH   1  10
TORSDOF 1
ENDMDL
MODEL 3
REMARK VINA RESULT: -2.910756906      8.872     10.017
REMARK  1 active torsions:
REMARK  status: ('A' for Active; 'I' for Inactive)
REMARK    1  A    between atoms: C2_2  and  C3_3 
ROOT
HETATM    1  C3  UNL     1      12.324  52.399  62.264  1.00  0.00     0.408 C 
HETATM    2  N1  UNL     1      10.866  52.265  62.132  1.00  0.00    -0.041 N 
ATOM      3  H11 UNL     1      10.525  52.040  61.198  1.00  0.00     0.280 HD
ATOM      4  H12 UNL     1      10.332  53.130  62.209  1.00  0.00     0.280 HD
HETATM    5  C4  UNL     1      10.605  51.269  63.155  1.00  0.00     0.263 C 
HETATM    6  C5  UNL     1      11.837  50.388  63.130  1.00  0.00     0.267 C 
HETATM    7  N2  UNL     1      12.763  51.054  62.204  1.00  0.00    -0.041 N 
HETATM    8  C6  UNL     1      12.601  50.419  60.927  1.00  0.00     0.275 C 
HETATM    9  C7  UNL     1      14.123  50.848  62.639  1.00  0.00     0.275 C 
ENDROOT
BRANCH   1  10
HETATM   10  C2  UNL     1      12.885  53.297  61.241  1.00  0.00     0.025 C 
HETATM   11  C1  UNL     1      13.604  54.368  61.483  1.00  0.00     0.011 C 
ENDBRANCH   1  10
TORSDOF 1
ENDMDL
MODEL 4
REMARK VINA RESULT: -2.902215371      1.444      3.696
REMARK  1 active torsions:
REMARK  status: ('A' for Active; 'I' for Inactive)
REMARK    1  A    between atoms: C2_2  and  C3_3 
ROOT
HETATM    1  C3  UNL     1       2.426  50.663  62.473  1.00  0.00     0.408 C 
HETATM    2  N1  UNL     1       3.621  50.409  61.655  1.00  0.00    -0.041 N 
ATOM      3  H11 UNL     1       3.446  50.125  60.692  1.00  0.00     0.280 HD
ATOM      4  H12 UNL     1       4.151  49.571  61.894  1.00  0.00     0.280 HD
HETATM    5  C4  UNL     1       4.322  51.668  61.824  1.00  0.00     0.263 C 
HETATM    6  C5  UNL     1       3.211  52.693  61.930  1.00  0.00     0.267 C 
HETATM    7  N2  UNL     1       1.970  51.907  61.972  1.00  0.00    -0.041 N 
HETATM    8  C6  UNL     1       1.457  51.871  60.632  1.00  0.00     0.275 C 
HETATM    9  C7  UNL     1       1.000  52.570  62.808  1.00  0.00     0.275 C 
ENDROOT
BRANCH   1  10
HETATM   10  C2  UNL     1       1.461  49.553  62.391  1.00  0.00     0.025 C 
HETATM   11  C1  UNL     1       1.749  48.325  62.030  1.00  0.00     0.011 C 
ENDBRANCH   1  10
TORSDOF 1
ENDMDL
MODEL 5
REMARK VINA RESULT: -2.887557824      9.144     10.760
REMARK  1 active torsions:
REMARK  status: ('A' for Active; 'I' for Inactive)
REMARK    1  A    between atoms: C2_2  and  C3_3 
ROOT
HETATM    1  C3  UNL     1      12.093  49.738  60.562  1.00  0.00     0.408 C 
HETATM    2  N1  UNL     1      11.595  50.889  61.329  1.00  0.00    -0.041 N 
ATOM      3  H11 UNL     1      11.138  50.667  62.213  1.00  0.00     0.280 HD
ATOM      4  H12 UNL     1      10.786  51.369  60.935  1.00  0.00     0.280 HD
HETATM    5  C4  UNL     1      12.810  51.678  61.427  1.00  0.00     0.263 C 
HETATM    6  C5  UNL     1      13.911  50.641  61.513  1.00  0.00     0.267 C 
HETATM    7  N2  UNL     1      13.241  49.353  61.295  1.00  0.00    -0.041 N 
HETATM    8  C6  UNL     1      12.974  48.800  62.593  1.00  0.00     0.275 C 
HETATM    9  C7  UNL     1      14.124  48.453  60.596  1.00  0.00     0.275 C 
ENDROOT
BRANCH   1  10
HETATM   10  C2  UNL     1      11.060  48.699  60.405  1.00  0.00     0.025 C 
HETATM   11  C1  UNL     1      10.122  48.695  59.487  1.00  0.00     0.011 C 
ENDBRANCH   1  10
TORSDOF 1
ENDMDL
