MODEL 1
REMARK VINA RESULT: -4.038854759      0.000      0.000
REMARK  1 active torsions:
REMARK  status: ('A' for Active; 'I' for Inactive)
REMARK    1  A    between atoms: C2_2  and  N1_3 
ROOT
HETATM    1  N1  UNL     1       8.062  48.521  56.641  1.00  0.00     0.016 N 
HETATM    2  C3  UNL     1       8.462  48.574  55.256  1.00  0.00     0.263 C 
HETATM    3  C4  UNL     1       7.726  49.865  55.093  1.00  0.00     0.066 C 
HETATM    4  C5  UNL     1       7.092  49.474  56.422  1.00  0.00     0.229 C 
HETATM    5  C6  UNL     1       7.625  50.335  57.516  1.00  0.00     0.178 C 
HETATM    6  N2  UNL     1       8.743  49.381  57.499  1.00  0.00    -0.044 NA
ENDROOT
BRANCH   1   7
HETATM    7  C2  UNL     1       7.841  47.225  57.106  1.00  0.00     0.256 C 
HETATM    8  C1  UNL     1       8.888  46.581  57.932  1.00  0.00     0.036 C 
ENDBRANCH   1   7
TORSDOF 1
ENDMDL
MODEL 2
REMARK VINA RESULT: -3.829853167      1.210      2.952
REMARK  1 active torsions:
REMARK  status: ('A' for Active; 'I' for Inactive)
REMARK    1  A    between atoms: C2_2  and  N1_3 
ROOT
HETATM    1  N1  UNL     1       7.694  49.464  56.136  1.00  0.00     0.016 N 
HETATM    2  C3  UNL     1       7.577  49.250  54.714  1.00  0.00     0.263 C 
HETATM    3  C4  UNL     1       8.417  48.020  54.830  1.00  0.00     0.066 C 
HETATM    4  C5  UNL     1       8.751  48.584  56.205  1.00  0.00     0.229 C 
HETATM    5  C6  UNL     1       8.074  47.783  57.265  1.00  0.00     0.178 C 
HETATM    6  N2  UNL     1       6.918  48.630  56.937  1.00  0.00    -0.044 NA
ENDROOT
BRANCH   1   7
HETATM    7  C2  UNL     1       7.730  50.811  56.493  1.00  0.00     0.256 C 
HETATM    8  C1  UNL     1       7.776  51.829  55.419  1.00  0.00     0.036 C 
ENDBRANCH   1   7
TORSDOF 1
ENDMDL
MODEL 3
REMARK VINA RESULT: -3.786022644      1.109      2.004
REMARK  1 active torsions:
REMARK  status: ('A' for Active; 'I' for Inactive)
REMARK    1  A    between atoms: C2_2  and  N1_3 
ROOT
HETATM    1  N1  UNL     1       8.169  48.929  57.207  1.00  0.00     0.016 N 
HETATM    2  C3  UNL     1       7.546  50.209  57.442  1.00  0.00     0.263 C 
HETATM    3  C4  UNL     1       7.351  50.384  55.970  1.00  0.00     0.066 C 
HETATM    4  C5  UNL     1       8.343  49.232  55.874  1.00  0.00     0.229 C 
HETATM    5  C6  UNL     1       7.640  47.986  55.452  1.00  0.00     0.178 C 
HETATM    6  N2  UNL     1       7.303  47.888  56.880  1.00  0.00    -0.044 NA
ENDROOT
BRANCH   1   7
HETATM    7  C2  UNL     1       9.185  48.631  58.114  1.00  0.00     0.256 C 
HETATM    8  C1  UNL     1       9.500  47.209  58.383  1.00  0.00     0.036 C 
ENDBRANCH   1   7
TORSDOF 1
ENDMDL
MODEL 4
REMARK VINA RESULT: -3.512228113      1.240      3.140
REMARK  1 active torsions:
REMARK  status: ('A' for Active; 'I' for Inactive)
REMARK    1  A    between atoms: C2_2  and  N1_3 
ROOT
HETATM    1  N1  UNL     1       8.069  49.106  56.665  1.00  0.00     0.016 N 
HETATM    2  C3  UNL     1       8.922  48.703  57.757  1.00  0.00     0.263 C 
HETATM    3  C4  UNL     1       8.574  47.273  57.501  1.00  0.00     0.066 C 
HETATM    4  C5  UNL     1       7.455  47.872  56.659  1.00  0.00     0.229 C 
HETATM    5  C6  UNL     1       7.748  47.683  55.209  1.00  0.00     0.178 C 
HETATM    6  N2  UNL     1       8.577  48.884  55.388  1.00  0.00    -0.044 NA
ENDROOT
BRANCH   1   7
HETATM    7  C2  UNL     1       7.435  50.330  56.878  1.00  0.00     0.256 C 
HETATM    8  C1  UNL     1       7.615  51.404  55.874  1.00  0.00     0.036 C 
ENDBRANCH   1   7
TORSDOF 1
ENDMDL
MODEL 5
REMARK VINA RESULT: -3.493092911      1.261      2.941
REMARK  1 active torsions:
REMARK  status: ('A' for Active; 'I' for Inactive)
REMARK    1  A    between atoms: C2_2  and  N1_3 
ROOT
HETATM    1  N1  UNL     1       7.668  49.346  55.795  1.00  0.00     0.016 N 
HETATM    2  C3  UNL     1       7.621  47.914  55.628  1.00  0.00     0.263 C 
HETATM    3  C4  UNL     1       8.122  47.735  57.025  1.00  0.00     0.066 C 
HETATM    4  C5  UNL     1       8.468  49.214  56.910  1.00  0.00     0.229 C 
HETATM    5  C6  UNL     1       7.529  50.025  57.736  1.00  0.00     0.178 C 
HETATM    6  N2  UNL     1       6.648  49.897  56.566  1.00  0.00    -0.044 NA
ENDROOT
BRANCH   1   7
HETATM    7  C2  UNL     1       8.004  50.031  54.628  1.00  0.00     0.256 C 
HETATM    8  C1  UNL     1       7.964  51.511  54.638  1.00  0.00     0.036 C 
ENDBRANCH   1   7
TORSDOF 1
ENDMDL
