MODEL 1
REMARK VINA RESULT: -4.365012184      0.000      0.000
REMARK  4 active torsions:
REMARK  status: ('A' for Active; 'I' for Inactive)
REMARK    1  A    between atoms: C2_2  and  C3_3 
REMARK    2  A    between atoms: C3_3  and  C4_4 
REMARK    3  A    between atoms: C5_5  and  C6_6 
REMARK    4  A    between atoms: C7_7  and  C8_8 
ROOT
HETATM    1  C6  UNL     1       7.974  48.344  55.093  1.00  0.00    -0.009 C 
HETATM    2  C7  UNL     1       7.928  49.243  54.272  1.00  0.00    -0.048 C 
ENDROOT
BRANCH   1   3
HETATM    3  C5  UNL     1       8.050  47.309  56.055  1.00  0.00    -0.015 C 
HETATM    4  C4  UNL     1       8.134  46.421  56.873  1.00  0.00    -0.092 C 
BRANCH   4   5
HETATM    5  C3  UNL     1       8.260  45.352  57.864  1.00  0.00     0.094 C 
BRANCH   5   6
HETATM    6  C2  UNL     1       9.144  45.836  59.003  1.00  0.00     0.007 C 
HETATM    7  C1  UNL     1      10.556  45.953  58.436  1.00  0.00     0.006 C 
ENDBRANCH   5   6
ENDBRANCH   4   5
ENDBRANCH   1   3
BRANCH   2   8
HETATM    8  C8  UNL     1       7.897  50.305  53.305  1.00  0.00     0.147 C 
HETATM    9  N1  UNL     1       7.607  51.476  53.701  1.00  0.00    -0.401 N 
ATOM     10  H12 UNL     1       7.403  51.642  54.686  1.00  0.00     0.156 HD
ATOM     11  H11 UNL     1       7.586  52.229  53.013  1.00  0.00     0.156 HD
ENDBRANCH   2   8
TORSDOF 4
ENDMDL
MODEL 2
REMARK VINA RESULT: -4.294961877      1.180      1.180
REMARK  4 active torsions:
REMARK  status: ('A' for Active; 'I' for Inactive)
REMARK    1  A    between atoms: C2_2  and  C3_3 
REMARK    2  A    between atoms: C3_3  and  C4_4 
REMARK    3  A    between atoms: C5_5  and  C6_6 
REMARK    4  A    between atoms: C7_7  and  C8_8 
ROOT
HETATM    1  C6  UNL     1       8.194  48.285  54.622  1.00  0.00    -0.009 C 
HETATM    2  C7  UNL     1       8.220  49.062  53.685  1.00  0.00    -0.048 C 
ENDROOT
BRANCH   1   3
HETATM    3  C5  UNL     1       8.189  47.389  55.718  1.00  0.00    -0.015 C 
HETATM    4  C4  UNL     1       8.204  46.622  56.654  1.00  0.00    -0.092 C 
BRANCH   4   5
HETATM    5  C3  UNL     1       8.245  45.704  57.792  1.00  0.00     0.094 C 
BRANCH   5   6
HETATM    6  C2  UNL     1       9.666  45.193  57.965  1.00  0.00     0.007 C 
HETATM    7  C1  UNL     1      10.476  46.352  58.542  1.00  0.00     0.006 C 
ENDBRANCH   5   6
ENDBRANCH   4   5
ENDBRANCH   1   3
BRANCH   2   8
HETATM    8  C8  UNL     1       8.274  49.978  52.579  1.00  0.00     0.147 C 
HETATM    9  N1  UNL     1       9.288  49.947  51.817  1.00  0.00    -0.401 N 
ATOM     10  H12 UNL     1      10.038  49.280  51.998  1.00  0.00     0.156 HD
ATOM     11  H11 UNL     1       9.326  50.597  51.032  1.00  0.00     0.156 HD
ENDBRANCH   2   8
TORSDOF 4
ENDMDL
MODEL 3
REMARK VINA RESULT: -4.112010826      0.948      1.550
REMARK  4 active torsions:
REMARK  status: ('A' for Active; 'I' for Inactive)
REMARK    1  A    between atoms: C2_2  and  C3_3 
REMARK    2  A    between atoms: C3_3  and  C4_4 
REMARK    3  A    between atoms: C5_5  and  C6_6 
REMARK    4  A    between atoms: C7_7  and  C8_8 
ROOT
HETATM    1  C6  UNL     1       8.072  48.244  55.217  1.00  0.00    -0.009 C 
HETATM    2  C7  UNL     1       7.985  49.095  54.351  1.00  0.00    -0.048 C 
ENDROOT
BRANCH   1   3
HETATM    3  C5  UNL     1       8.199  47.260  56.227  1.00  0.00    -0.015 C 
HETATM    4  C4  UNL     1       8.327  46.421  57.089  1.00  0.00    -0.092 C 
BRANCH   4   5
HETATM    5  C3  UNL     1       8.504  45.416  58.139  1.00  0.00     0.094 C 
BRANCH   5   6
HETATM    6  C2  UNL     1       7.757  44.153  57.744  1.00  0.00     0.007 C 
HETATM    7  C1  UNL     1       7.935  43.167  58.896  1.00  0.00     0.006 C 
ENDBRANCH   5   6
ENDBRANCH   4   5
ENDBRANCH   1   3
BRANCH   2   8
HETATM    8  C8  UNL     1       7.905  50.097  53.325  1.00  0.00     0.147 C 
HETATM    9  N1  UNL     1       7.578  51.278  53.656  1.00  0.00    -0.401 N 
ATOM     10  H12 UNL     1       7.381  51.494  54.634  1.00  0.00     0.156 HD
ATOM     11  H11 UNL     1       7.522  51.989  52.927  1.00  0.00     0.156 HD
ENDBRANCH   2   8
TORSDOF 4
ENDMDL
MODEL 4
REMARK VINA RESULT: -4.090665976      2.904      5.888
REMARK  4 active torsions:
REMARK  status: ('A' for Active; 'I' for Inactive)
REMARK    1  A    between atoms: C2_2  and  C3_3 
REMARK    2  A    between atoms: C3_3  and  C4_4 
REMARK    3  A    between atoms: C5_5  and  C6_6 
REMARK    4  A    between atoms: C7_7  and  C8_8 
ROOT
HETATM    1  C6  UNL     1       7.995  47.461  56.160  1.00  0.00    -0.009 C 
HETATM    2  C7  UNL     1       8.061  46.485  56.886  1.00  0.00    -0.048 C 
ENDROOT
BRANCH   1   3
HETATM    3  C5  UNL     1       7.944  48.600  55.321  1.00  0.00    -0.015 C 
HETATM    4  C4  UNL     1       7.919  49.579  54.611  1.00  0.00    -0.092 C 
BRANCH   4   5
HETATM    5  C3  UNL     1       7.913  50.763  53.751  1.00  0.00     0.094 C 
BRANCH   5   6
HETATM    6  C2  UNL     1       7.973  50.319  52.299  1.00  0.00     0.007 C 
HETATM    7  C1  UNL     1       9.337  49.663  52.102  1.00  0.00     0.006 C 
ENDBRANCH   5   6
ENDBRANCH   4   5
ENDBRANCH   1   3
BRANCH   2   8
HETATM    8  C8  UNL     1       8.155  45.345  57.755  1.00  0.00     0.147 C 
HETATM    9  N1  UNL     1       7.660  44.244  57.364  1.00  0.00    -0.401 N 
ATOM     10  H12 UNL     1       7.209  44.186  56.450  1.00  0.00     0.156 HD
ATOM     11  H11 UNL     1       7.727  43.434  57.981  1.00  0.00     0.156 HD
ENDBRANCH   2   8
TORSDOF 4
ENDMDL
MODEL 5
REMARK VINA RESULT: -4.037540074      3.349      6.091
REMARK  4 active torsions:
REMARK  status: ('A' for Active; 'I' for Inactive)
REMARK    1  A    between atoms: C2_2  and  C3_3 
REMARK    2  A    between atoms: C3_3  and  C4_4 
REMARK    3  A    between atoms: C5_5  and  C6_6 
REMARK    4  A    between atoms: C7_7  and  C8_8 
ROOT
HETATM    1  C6  UNL     1       8.551  46.316  57.442  1.00  0.00    -0.009 C 
HETATM    2  C7  UNL     1       8.857  45.366  58.140  1.00  0.00    -0.048 C 
ENDROOT
BRANCH   1   3
HETATM    3  C5  UNL     1       8.172  47.420  56.641  1.00  0.00    -0.015 C 
HETATM    4  C4  UNL     1       7.867  48.367  55.952  1.00  0.00    -0.092 C 
BRANCH   4   5
HETATM    5  C3  UNL     1       7.518  49.506  55.103  1.00  0.00     0.094 C 
BRANCH   5   6
HETATM    6  C2  UNL     1       7.821  49.155  53.655  1.00  0.00     0.007 C 
HETATM    7  C1  UNL     1       8.088  50.475  52.936  1.00  0.00     0.006 C 
ENDBRANCH   5   6
ENDBRANCH   4   5
ENDBRANCH   1   3
BRANCH   2   8
HETATM    8  C8  UNL     1       9.195  44.240  58.965  1.00  0.00     0.147 C 
HETATM    9  N1  UNL     1      10.408  44.081  59.305  1.00  0.00    -0.401 N 
ATOM     10  H12 UNL     1      11.113  44.748  58.992  1.00  0.00     0.156 HD
ATOM     11  H11 UNL     1      10.647  43.281  59.890  1.00  0.00     0.156 HD
ENDBRANCH   2   8
TORSDOF 4
ENDMDL
