MODEL 1
REMARK VINA RESULT: -8.010869204      0.000      0.000
REMARK  6 active torsions:
REMARK  status: ('A' for Active; 'I' for Inactive)
REMARK    1  A    between atoms: C3_3  and  C4_4 
REMARK    2  A    between atoms: C8_10  and  C9_11 
REMARK    3  A    between atoms: C12_14  and  C13_15 
REMARK    4  A    between atoms: C13_15  and  C14_17 
REMARK    5  A    between atoms: C14_17  and  N2_19 
REMARK    6  A    between atoms: N4_31  and  O3_32 
ROOT
HETATM    1  C9  UNL     1      15.858  49.588  61.253  1.00  0.00     0.038 C 
HETATM    2  C10 UNL     1      15.623  48.663  62.418  1.00  0.00     0.011 C 
HETATM    3  C11 UNL     1      14.747  49.405  63.390  1.00  0.00     0.013 C 
HETATM    4  C12 UNL     1      14.148  50.543  62.641  1.00  0.00     0.059 C 
HETATM    5  C22 UNL     1      14.793  50.608  61.268  1.00  0.00     0.023 C 
ENDROOT
BRANCH   1   6
HETATM    6  C8  UNL     1      17.231  50.125  61.339  1.00  0.00     0.031 A 
HETATM    7  N1  UNL     1      17.793  50.251  62.544  1.00  0.00    -0.359 N 
HETATM    8  C3  UNL     1      19.065  50.739  62.711  1.00  0.00     0.042 A 
ATOM      9  H1  UNL     1      17.259  49.976  63.368  1.00  0.00     0.165 HD
HETATM   10  C2  UNL     1      19.799  51.116  61.621  1.00  0.00     0.059 A 
HETATM   11  C1  UNL     1      21.149  51.639  61.715  1.00  0.00     0.073 C 
HETATM   12  N4  UNL     1      19.193  50.973  60.404  1.00  0.00    -0.237 N 
HETATM   13  C23 UNL     1      17.963  50.500  60.249  1.00  0.00     0.148 A 
BRANCH   8  14
HETATM   14  C4  UNL     1      19.655  50.863  64.064  1.00  0.00    -0.007 C 
HETATM   15  C5  UNL     1      18.536  50.501  65.063  1.00  0.00     0.021 C 
HETATM   16  C6  UNL     1      20.747  49.850  64.337  1.00  0.00     0.021 C 
HETATM   17  C7  UNL     1      20.053  52.272  64.428  1.00  0.00     0.021 C 
ENDBRANCH   8  14
BRANCH  12  18
HETATM   18  O3  UNL     1      19.901  51.342  59.284  1.00  0.00    -0.283 OA
ATOM     19  H3  UNL     1      19.430  51.774  58.581  1.00  0.00     0.245 HD
ENDBRANCH  12  18
ENDBRANCH   1   6
BRANCH   4  20
HETATM   20  C13 UNL     1      12.688  50.602  62.576  1.00  0.00     0.164 C 
HETATM   21  O1  UNL     1      12.164  51.571  61.998  1.00  0.00    -0.294 OA
BRANCH  20  22
HETATM   22  C14 UNL     1      11.715  49.639  63.118  1.00  0.00     0.230 C 
HETATM   23 BR1  UNL     1      10.772  50.157  64.687  1.00  0.00    -0.060 Br
BRANCH  22  24
HETATM   24  N2  UNL     1      10.778  49.189  62.111  1.00  0.00    -0.323 N 
HETATM   25  C15 UNL     1       9.489  49.828  62.057  1.00  0.00     0.254 C 
HETATM   26  O2  UNL     1       9.243  50.915  62.637  1.00  0.00    -0.271 OA
HETATM   27  C16 UNL     1       8.440  49.138  61.270  1.00  0.00     0.309 C 
HETATM   28  C17 UNL     1       7.245  50.068  61.077  1.00  0.00     0.053 C 
HETATM   29  N3  UNL     1       8.890  48.761  59.957  1.00  0.00     0.099 N 
HETATM   30  C18 UNL     1       8.221  47.587  59.485  1.00  0.00     0.311 C 
HETATM   31  C19 UNL     1      10.306  48.634  59.844  1.00  0.00     0.297 C 
HETATM   32  C20 UNL     1      10.975  48.173  61.148  1.00  0.00     0.113 C 
HETATM   33  C21 UNL     1      12.344  47.737  60.827  1.00  0.00     0.034 C 
ENDBRANCH  22  24
ENDBRANCH  20  22
ENDBRANCH   4  20
TORSDOF 6
ENDMDL
MODEL 2
REMARK VINA RESULT: -7.963523054      0.997      1.828
REMARK  6 active torsions:
REMARK  status: ('A' for Active; 'I' for Inactive)
REMARK    1  A    between atoms: C3_3  and  C4_4 
REMARK    2  A    between atoms: C8_10  and  C9_11 
REMARK    3  A    between atoms: C12_14  and  C13_15 
REMARK    4  A    between atoms: C13_15  and  C14_17 
REMARK    5  A    between atoms: C14_17  and  N2_19 
REMARK    6  A    between atoms: N4_31  and  O3_32 
ROOT
HETATM    1  C9  UNL     1      15.728  49.514  61.360  1.00  0.00     0.038 C 
HETATM    2  C10 UNL     1      15.603  48.608  62.557  1.00  0.00     0.011 C 
HETATM    3  C11 UNL     1      14.789  49.351  63.579  1.00  0.00     0.013 C 
HETATM    4  C12 UNL     1      14.109  50.462  62.859  1.00  0.00     0.059 C 
HETATM    5  C22 UNL     1      14.645  50.512  61.439  1.00  0.00     0.023 C 
ENDROOT
BRANCH   1   6
HETATM    6  C8  UNL     1      17.091  50.080  61.329  1.00  0.00     0.031 A 
HETATM    7  N1  UNL     1      17.754  50.211  62.481  1.00  0.00    -0.359 N 
HETATM    8  C3  UNL     1      19.026  50.725  62.539  1.00  0.00     0.042 A 
ATOM      9  H1  UNL     1      17.301  49.919  63.347  1.00  0.00     0.165 HD
HETATM   10  C2  UNL     1      19.653  51.125  61.392  1.00  0.00     0.059 A 
HETATM   11  C1  UNL     1      20.994  51.677  61.371  1.00  0.00     0.073 C 
HETATM   12  N4  UNL     1      18.945  50.977  60.232  1.00  0.00    -0.237 N 
HETATM   13  C23 UNL     1      17.716  50.478  60.182  1.00  0.00     0.148 A 
BRANCH   8  14
HETATM   14  C4  UNL     1      19.730  50.853  63.835  1.00  0.00    -0.007 C 
HETATM   15  C5  UNL     1      18.719  50.437  64.925  1.00  0.00     0.021 C 
HETATM   16  C6  UNL     1      20.878  49.878  63.994  1.00  0.00     0.021 C 
HETATM   17  C7  UNL     1      20.108  52.271  64.185  1.00  0.00     0.021 C 
ENDBRANCH   8  14
BRANCH  12  18
HETATM   18  O3  UNL     1      19.543  51.368  59.056  1.00  0.00    -0.283 OA
ATOM     19  H3  UNL     1      20.338  50.921  58.791  1.00  0.00     0.245 HD
ENDBRANCH  12  18
ENDBRANCH   1   6
BRANCH   4  20
HETATM   20  C13 UNL     1      12.648  50.490  62.906  1.00  0.00     0.164 C 
HETATM   21  O1  UNL     1      12.072  51.565  62.655  1.00  0.00    -0.294 OA
BRANCH  20  22
HETATM   22  C14 UNL     1      11.728  49.384  63.220  1.00  0.00     0.230 C 
HETATM   23 BR1  UNL     1      10.704  49.542  64.816  1.00  0.00    -0.060 Br
BRANCH  22  24
HETATM   24  N2  UNL     1      10.855  49.072  62.108  1.00  0.00    -0.323 N 
HETATM   25  C15 UNL     1      11.257  48.019  61.213  1.00  0.00     0.254 C 
HETATM   26  O2  UNL     1      12.158  47.192  61.495  1.00  0.00    -0.271 OA
HETATM   27  C16 UNL     1      10.546  47.948  59.914  1.00  0.00     0.309 C 
HETATM   28  C17 UNL     1      10.879  46.632  59.216  1.00  0.00     0.053 C 
HETATM   29  N3  UNL     1       9.116  47.990  60.063  1.00  0.00     0.099 N 
HETATM   30  C18 UNL     1       8.483  48.586  58.925  1.00  0.00     0.311 C 
HETATM   31  C19 UNL     1       8.676  48.592  61.278  1.00  0.00     0.297 C 
HETATM   32  C20 UNL     1       9.626  49.690  61.783  1.00  0.00     0.113 C 
HETATM   33  C21 UNL     1       8.914  50.469  62.810  1.00  0.00     0.034 C 
ENDBRANCH  22  24
ENDBRANCH  20  22
ENDBRANCH   4  20
TORSDOF 6
ENDMDL
MODEL 3
REMARK VINA RESULT: -7.916191828      1.707      2.294
REMARK  6 active torsions:
REMARK  status: ('A' for Active; 'I' for Inactive)
REMARK    1  A    between atoms: C3_3  and  C4_4 
REMARK    2  A    between atoms: C8_10  and  C9_11 
REMARK    3  A    between atoms: C12_14  and  C13_15 
REMARK    4  A    between atoms: C13_15  and  C14_17 
REMARK    5  A    between atoms: C14_17  and  N2_19 
REMARK    6  A    between atoms: N4_31  and  O3_32 
ROOT
HETATM    1  C9  UNL     1      15.984  49.111  62.031  1.00  0.00     0.038 C 
HETATM    2  C10 UNL     1      15.207  49.837  63.098  1.00  0.00     0.011 C 
HETATM    3  C11 UNL     1      14.103  50.580  62.399  1.00  0.00     0.013 C 
HETATM    4  C12 UNL     1      13.976  49.980  61.043  1.00  0.00     0.059 C 
HETATM    5  C22 UNL     1      15.116  48.998  60.843  1.00  0.00     0.023 C 
ENDROOT
BRANCH   1   6
HETATM    6  C8  UNL     1      17.259  49.820  61.801  1.00  0.00     0.031 A 
HETATM    7  N1  UNL     1      18.031  50.102  62.853  1.00  0.00    -0.359 N 
HETATM    8  C3  UNL     1      19.232  50.755  62.726  1.00  0.00     0.042 A 
ATOM      9  H1  UNL     1      17.719  49.822  63.783  1.00  0.00     0.165 HD
HETATM   10  C2  UNL     1      19.670  51.142  61.490  1.00  0.00     0.059 A 
HETATM   11  C1  UNL     1      20.926  51.835  61.274  1.00  0.00     0.073 C 
HETATM   12  N4  UNL     1      18.855  50.838  60.436  1.00  0.00    -0.237 N 
HETATM   13  C23 UNL     1      17.695  50.205  60.565  1.00  0.00     0.148 A 
BRANCH   8  14
HETATM   14  C4  UNL     1      20.062  51.048  63.916  1.00  0.00    -0.007 C 
HETATM   15  C5  UNL     1      19.165  50.798  65.147  1.00  0.00     0.021 C 
HETATM   16  C6  UNL     1      21.220  50.088  64.092  1.00  0.00     0.021 C 
HETATM   17  C7  UNL     1      20.473  52.495  64.031  1.00  0.00     0.021 C 
ENDBRANCH   8  14
BRANCH  12  18
HETATM   18  O3  UNL     1      19.262  51.211  59.176  1.00  0.00    -0.283 OA
ATOM     19  H3  UNL     1      18.711  50.972  58.441  1.00  0.00     0.245 HD
ENDBRANCH  12  18
ENDBRANCH   1   6
BRANCH   4  20
HETATM   20  C13 UNL     1      12.678  49.409  60.686  1.00  0.00     0.164 C 
HETATM   21  O1  UNL     1      11.867  50.129  60.075  1.00  0.00    -0.294 OA
BRANCH  20  22
HETATM   22  C14 UNL     1      12.177  48.052  60.958  1.00  0.00     0.230 C 
HETATM   23 BR1  UNL     1      12.604  47.300  62.653  1.00  0.00    -0.060 Br
BRANCH  22  24
HETATM   24  N2  UNL     1      10.754  47.939  60.718  1.00  0.00    -0.323 N 
HETATM   25  C15 UNL     1      10.318  47.072  59.654  1.00  0.00     0.254 C 
HETATM   26  O2  UNL     1      11.067  46.217  59.123  1.00  0.00    -0.271 OA
HETATM   27  C16 UNL     1       8.915  47.232  59.204  1.00  0.00     0.309 C 
HETATM   28  C17 UNL     1       8.532  46.070  58.292  1.00  0.00     0.053 C 
HETATM   29  N3  UNL     1       7.979  47.231  60.296  1.00  0.00     0.099 N 
HETATM   30  C18 UNL     1       6.820  48.019  60.001  1.00  0.00     0.311 C 
HETATM   31  C19 UNL     1       8.550  47.596  61.551  1.00  0.00     0.297 C 
HETATM   32  C20 UNL     1       9.713  48.592  61.415  1.00  0.00     0.113 C 
HETATM   33  C21 UNL     1       9.979  49.163  62.746  1.00  0.00     0.034 C 
ENDBRANCH  22  24
ENDBRANCH  20  22
ENDBRANCH   4  20
TORSDOF 6
ENDMDL
MODEL 4
REMARK VINA RESULT: -7.852905477      4.117      6.470
REMARK  6 active torsions:
REMARK  status: ('A' for Active; 'I' for Inactive)
REMARK    1  A    between atoms: C3_3  and  C4_4 
REMARK    2  A    between atoms: C8_10  and  C9_11 
REMARK    3  A    between atoms: C12_14  and  C13_15 
REMARK    4  A    between atoms: C13_15  and  C14_17 
REMARK    5  A    between atoms: C14_17  and  N2_19 
REMARK    6  A    between atoms: N4_31  and  O3_32 
ROOT
HETATM    1  C9  UNL     1      10.485  47.319  61.578  1.00  0.00     0.038 C 
HETATM    2  C10 UNL     1      10.119  48.660  61.000  1.00  0.00     0.011 C 
HETATM    3  C11 UNL     1      10.175  48.517  59.505  1.00  0.00     0.013 C 
HETATM    4  C12 UNL     1      10.157  47.057  59.215  1.00  0.00     0.059 C 
HETATM    5  C22 UNL     1      10.273  46.305  60.528  1.00  0.00     0.023 C 
ENDROOT
BRANCH   1   6
HETATM    6  C8  UNL     1      11.862  47.385  62.106  1.00  0.00     0.031 A 
HETATM    7  N1  UNL     1      12.641  48.404  61.731  1.00  0.00    -0.359 N 
HETATM    8  C3  UNL     1      13.932  48.542  62.178  1.00  0.00     0.042 A 
ATOM      9  H1  UNL     1      12.263  49.104  61.093  1.00  0.00     0.165 HD
HETATM   10  C2  UNL     1      14.460  47.615  63.033  1.00  0.00     0.059 A 
HETATM   11  C1  UNL     1      15.814  47.691  63.549  1.00  0.00     0.073 C 
HETATM   12  N4  UNL     1      13.636  46.586  63.395  1.00  0.00    -0.237 N 
HETATM   13  C23 UNL     1      12.388  46.460  62.961  1.00  0.00     0.148 A 
BRANCH   8  14
HETATM   14  C4  UNL     1      14.764  49.686  61.742  1.00  0.00    -0.007 C 
HETATM   15  C5  UNL     1      13.785  50.808  61.333  1.00  0.00     0.021 C 
HETATM   16  C6  UNL     1      15.585  50.292  62.860  1.00  0.00     0.021 C 
HETATM   17  C7  UNL     1      15.572  49.412  60.498  1.00  0.00     0.021 C 
ENDBRANCH   8  14
BRANCH  12  18
HETATM   18  O3  UNL     1      14.132  45.634  64.255  1.00  0.00    -0.283 OA
ATOM     19  H3  UNL     1      13.579  45.353  64.974  1.00  0.00     0.245 HD
ENDBRANCH  12  18
ENDBRANCH   1   6
BRANCH   4  20
HETATM   20  C13 UNL     1       9.064  46.558  58.380  1.00  0.00     0.164 C 
HETATM   21  O1  UNL     1       9.274  45.553  57.676  1.00  0.00    -0.294 OA
BRANCH  20  22
HETATM   22  C14 UNL     1       7.700  47.097  58.250  1.00  0.00     0.230 C 
HETATM   23 BR1  UNL     1       6.725  47.366  59.861  1.00  0.00    -0.060 Br
BRANCH  22  24
HETATM   24  N2  UNL     1       7.667  48.303  57.451  1.00  0.00    -0.323 N 
HETATM   25  C15 UNL     1       7.759  48.165  56.021  1.00  0.00     0.254 C 
HETATM   26  O2  UNL     1       7.590  47.071  55.430  1.00  0.00    -0.271 OA
HETATM   27  C16 UNL     1       8.067  49.397  55.256  1.00  0.00     0.309 C 
HETATM   28  C17 UNL     1       7.849  49.146  53.767  1.00  0.00     0.053 C 
HETATM   29  N3  UNL     1       7.222  50.502  55.621  1.00  0.00     0.099 N 
HETATM   30  C18 UNL     1       7.887  51.757  55.447  1.00  0.00     0.311 C 
HETATM   31  C19 UNL     1       6.651  50.391  56.923  1.00  0.00     0.297 C 
HETATM   32  C20 UNL     1       7.552  49.634  57.912  1.00  0.00     0.113 C 
HETATM   33  C21 UNL     1       7.048  49.889  59.271  1.00  0.00     0.034 C 
ENDBRANCH  22  24
ENDBRANCH  20  22
ENDBRANCH   4  20
TORSDOF 6
ENDMDL
MODEL 5
REMARK VINA RESULT: -7.808257209      4.166      6.140
REMARK  6 active torsions:
REMARK  status: ('A' for Active; 'I' for Inactive)
REMARK    1  A    between atoms: C3_3  and  C4_4 
REMARK    2  A    between atoms: C8_10  and  C9_11 
REMARK    3  A    between atoms: C12_14  and  C13_15 
REMARK    4  A    between atoms: C13_15  and  C14_17 
REMARK    5  A    between atoms: C14_17  and  N2_19 
REMARK    6  A    between atoms: N4_31  and  O3_32 
ROOT
HETATM    1  C9  UNL     1      10.908  47.310  61.555  1.00  0.00     0.038 C 
HETATM    2  C10 UNL     1      10.931  47.832  60.142  1.00  0.00     0.011 C 
HETATM    3  C11 UNL     1      10.896  46.631  59.237  1.00  0.00     0.013 C 
HETATM    4  C12 UNL     1      10.444  45.483  60.068  1.00  0.00     0.059 C 
HETATM    5  C22 UNL     1      10.376  45.935  61.516  1.00  0.00     0.023 C 
ENDROOT
BRANCH   1   6
HETATM    6  C8  UNL     1      12.261  47.436  62.133  1.00  0.00     0.031 A 
HETATM    7  N1  UNL     1      13.058  48.409  61.685  1.00  0.00    -0.359 N 
HETATM    8  C3  UNL     1      14.329  48.596  62.172  1.00  0.00     0.042 A 
ATOM      9  H1  UNL     1      12.712  49.035  60.958  1.00  0.00     0.165 HD
HETATM   10  C2  UNL     1      14.815  47.769  63.146  1.00  0.00     0.059 A 
HETATM   11  C1  UNL     1      16.144  47.903  63.710  1.00  0.00     0.073 C 
HETATM   12  N4  UNL     1      13.972  46.784  63.580  1.00  0.00    -0.237 N 
HETATM   13  C23 UNL     1      12.744  46.609  63.106  1.00  0.00     0.148 A 
BRANCH   8  14
HETATM   14  C4  UNL     1      15.183  49.688  61.652  1.00  0.00    -0.007 C 
HETATM   15  C5  UNL     1      14.232  50.843  61.270  1.00  0.00     0.021 C 
HETATM   16  C6  UNL     1      16.099  50.285  62.699  1.00  0.00     0.021 C 
HETATM   17  C7  UNL     1      15.899  49.343  60.370  1.00  0.00     0.021 C 
ENDBRANCH   8  14
BRANCH  12  18
HETATM   18  O3  UNL     1      14.426  45.932  64.559  1.00  0.00    -0.283 OA
ATOM     19  H3  UNL     1      15.071  45.279  64.317  1.00  0.00     0.245 HD
ENDBRANCH  12  18
ENDBRANCH   1   6
BRANCH   4  20
HETATM   20  C13 UNL     1       9.228  44.790  59.642  1.00  0.00     0.164 C 
HETATM   21  O1  UNL     1       8.942  43.712  60.194  1.00  0.00    -0.294 OA
BRANCH  20  22
HETATM   22  C14 UNL     1       8.259  45.206  58.615  1.00  0.00     0.230 C 
HETATM   23 BR1  UNL     1       6.774  44.055  58.316  1.00  0.00    -0.060 Br
BRANCH  22  24
HETATM   24  N2  UNL     1       7.793  46.561  58.824  1.00  0.00    -0.323 N 
HETATM   25  C15 UNL     1       7.859  47.474  57.713  1.00  0.00     0.254 C 
HETATM   26  O2  UNL     1       8.031  47.093  56.529  1.00  0.00    -0.271 OA
HETATM   27  C16 UNL     1       7.709  48.914  58.030  1.00  0.00     0.309 C 
HETATM   28  C17 UNL     1       7.516  49.707  56.741  1.00  0.00     0.053 C 
HETATM   29  N3  UNL     1       6.566  49.182  58.860  1.00  0.00     0.099 N 
HETATM   30  C18 UNL     1       6.774  50.329  59.692  1.00  0.00     0.311 C 
HETATM   31  C19 UNL     1       6.125  48.060  59.622  1.00  0.00     0.297 C 
HETATM   32  C20 UNL     1       7.270  47.113  60.015  1.00  0.00     0.113 C 
HETATM   33  C21 UNL     1       6.774  46.216  61.072  1.00  0.00     0.034 C 
ENDBRANCH  22  24
ENDBRANCH  20  22
ENDBRANCH   4  20
TORSDOF 6
ENDMDL
