MODEL 1
REMARK VINA RESULT: -6.990877350      0.000      0.000
REMARK  6 active torsions:
REMARK  status: ('A' for Active; 'I' for Inactive)
REMARK    1  A    between atoms: C3_3  and  C4_4 
REMARK    2  A    between atoms: C4_4  and  O2_6 
REMARK    3  A    between atoms: O2_6  and  C5_7 
REMARK    4  A    between atoms: C12_16  and  C13_17 
REMARK    5  A    between atoms: C13_17  and  C14_18 
REMARK    6  A    between atoms: C20_25  and  C21_26 
ROOT
HETATM    1  C1  UNL     1       9.434  47.400  58.314  1.00  0.00     0.069 C 
HETATM    2  C2  UNL     1       9.327  48.191  59.565  1.00  0.00     0.024 A 
HETATM    3  C3  UNL     1       8.255  48.912  59.799  1.00  0.00     0.074 A 
HETATM    4  C9  UNL     1       8.254  49.665  61.048  1.00  0.00     0.012 A 
HETATM    5  C10 UNL     1       7.269  50.458  61.569  1.00  0.00     0.104 A 
HETATM    6  N1  UNL     1       7.662  50.933  62.774  1.00  0.00    -0.359 N 
HETATM    7  C11 UNL     1       6.850  51.811  63.561  1.00  0.00     0.156 C 
HETATM    8  C12 UNL     1       8.906  50.452  63.051  1.00  0.00     0.049 A 
HETATM    9  C19 UNL     1       9.314  49.655  61.971  1.00  0.00     0.027 A 
HETATM   10  C20 UNL     1      10.390  48.925  61.701  1.00  0.00     0.029 A 
HETATM   11  N2  UNL     1      10.427  48.156  60.487  1.00  0.00    -0.356 N 
HETATM   12  C26 UNL     1      11.480  47.176  60.181  1.00  0.00     0.156 C 
ENDROOT
BRANCH   3  13
HETATM   13  C4  UNL     1       7.145  48.961  58.858  1.00  0.00     0.301 C 
HETATM   14  O1  UNL     1       6.181  48.158  58.871  1.00  0.00    -0.259 OA
BRANCH  13  15
HETATM   15  O2  UNL     1       7.012  49.902  57.832  1.00  0.00    -0.273 OA
BRANCH  15  16
HETATM   16  C5  UNL     1       7.342  49.654  56.508  1.00  0.00     0.097 A 
HETATM   17  C6  UNL     1       7.633  50.324  55.409  1.00  0.00     0.045 A 
HETATM   18 BR1  UNL     1       7.769  52.172  55.028  1.00  0.00    -0.048 Br
HETATM   19  C7  UNL     1       7.802  49.094  54.643  1.00  0.00     0.025 A 
HETATM   20  C8  UNL     1       7.509  48.417  55.741  1.00  0.00     0.040 A 
ENDBRANCH  15  16
ENDBRANCH  13  15
ENDBRANCH   3  13
BRANCH  10  21
HETATM   21  C21 UNL     1      11.583  48.843  62.575  1.00  0.00     0.045 A 
HETATM   22  C22 UNL     1      12.883  48.420  61.980  1.00  0.00     0.021 A 
HETATM   23  C23 UNL     1      12.713  49.810  62.471  1.00  0.00    -0.038 A 
HETATM   24  C24 UNL     1      13.660  50.118  63.598  1.00  0.00     0.015 C 
HETATM   25  C25 UNL     1      12.704  50.925  61.410  1.00  0.00     0.015 C 
ENDBRANCH  10  21
BRANCH   8  26
HETATM   26  C13 UNL     1       9.566  50.614  64.165  1.00  0.00     0.067 C 
BRANCH  26  27
HETATM   27  C14 UNL     1      10.479  51.710  64.534  1.00  0.00     0.077 A 
HETATM   28  C15 UNL     1      10.677  52.907  63.860  1.00  0.00     0.040 A 
HETATM   29  C16 UNL     1      11.612  53.621  64.578  1.00  0.00     0.035 A 
HETATM   30  C17 UNL     1      11.953  52.847  65.655  1.00  0.00     0.050 A 
HETATM   31  C18 UNL     1      12.914  53.119  66.755  1.00  0.00     0.076 C 
HETATM   32  O3  UNL     1      11.254  51.742  65.568  1.00  0.00    -0.316 OA
ENDBRANCH  26  27
ENDBRANCH   8  26
TORSDOF 6
ENDMDL
MODEL 2
REMARK VINA RESULT: -6.602640790      2.709      7.272
REMARK  6 active torsions:
REMARK  status: ('A' for Active; 'I' for Inactive)
REMARK    1  A    between atoms: C3_3  and  C4_4 
REMARK    2  A    between atoms: C4_4  and  O2_6 
REMARK    3  A    between atoms: O2_6  and  C5_7 
REMARK    4  A    between atoms: C12_16  and  C13_17 
REMARK    5  A    between atoms: C13_17  and  C14_18 
REMARK    6  A    between atoms: C20_25  and  C21_26 
ROOT
HETATM    1  C1  UNL     1      10.686  51.387  63.602  1.00  0.00     0.069 C 
HETATM    2  C2  UNL     1       9.785  50.662  62.673  1.00  0.00     0.024 A 
HETATM    3  C3  UNL     1       8.486  50.842  62.740  1.00  0.00     0.074 A 
HETATM    4  C9  UNL     1       7.687  50.070  61.795  1.00  0.00     0.012 A 
HETATM    5  C10 UNL     1       6.333  50.084  61.607  1.00  0.00     0.104 A 
HETATM    6  N1  UNL     1       6.009  49.247  60.593  1.00  0.00    -0.359 N 
HETATM    7  C11 UNL     1       4.658  49.032  60.172  1.00  0.00     0.156 C 
HETATM    8  C12 UNL     1       7.149  48.681  60.110  1.00  0.00     0.049 A 
HETATM    9  C19 UNL     1       8.229  49.173  60.857  1.00  0.00     0.027 A 
HETATM   10  C20 UNL     1       9.546  49.004  60.823  1.00  0.00     0.029 A 
HETATM   11  N2  UNL     1      10.372  49.755  61.728  1.00  0.00    -0.356 N 
HETATM   12  C26 UNL     1      11.841  49.785  61.649  1.00  0.00     0.156 C 
ENDROOT
BRANCH   3  13
HETATM   13  C4  UNL     1       7.887  51.749  63.708  1.00  0.00     0.301 C 
HETATM   14  O1  UNL     1       7.449  51.388  64.827  1.00  0.00    -0.259 OA
BRANCH  13  15
HETATM   15  O2  UNL     1       7.728  53.125  63.516  1.00  0.00    -0.273 OA
BRANCH  15  16
HETATM   16  C5  UNL     1       8.000  54.078  64.486  1.00  0.00     0.097 A 
HETATM   17  C6  UNL     1       7.590  55.279  64.850  1.00  0.00     0.045 A 
HETATM   18 BR1  UNL     1       6.272  56.450  64.163  1.00  0.00    -0.048 Br
HETATM   19  C7  UNL     1       8.536  55.322  65.959  1.00  0.00     0.025 A 
HETATM   20  C8  UNL     1       8.953  54.119  65.599  1.00  0.00     0.040 A 
ENDBRANCH  15  16
ENDBRANCH  13  15
ENDBRANCH   3  13
BRANCH  10  21
HETATM   21  C21 UNL     1      10.243  48.077  59.902  1.00  0.00     0.045 A 
HETATM   22  C22 UNL     1      11.487  47.398  60.369  1.00  0.00     0.021 A 
HETATM   23  C23 UNL     1      10.260  46.601  60.121  1.00  0.00    -0.038 A 
HETATM   24  C24 UNL     1      10.468  45.593  59.025  1.00  0.00     0.015 C 
HETATM   25  C25 UNL     1       9.577  45.977  61.350  1.00  0.00     0.015 C 
ENDBRANCH  10  21
BRANCH   8  26
HETATM   26  C13 UNL     1       7.242  47.900  59.068  1.00  0.00     0.067 C 
BRANCH  26  27
HETATM   27  C14 UNL     1       7.570  48.266  57.680  1.00  0.00     0.077 A 
HETATM   28  C15 UNL     1       8.164  47.467  56.713  1.00  0.00     0.040 A 
HETATM   29  C16 UNL     1       8.263  48.228  55.569  1.00  0.00     0.035 A 
HETATM   30  C17 UNL     1       7.733  49.455  55.868  1.00  0.00     0.050 A 
HETATM   31  C18 UNL     1       7.582  50.660  55.011  1.00  0.00     0.076 C 
HETATM   32  O3  UNL     1       7.346  49.410  57.119  1.00  0.00    -0.316 OA
ENDBRANCH  26  27
ENDBRANCH   8  26
TORSDOF 6
ENDMDL
MODEL 3
REMARK VINA RESULT: -6.599375463      1.608      2.028
REMARK  6 active torsions:
REMARK  status: ('A' for Active; 'I' for Inactive)
REMARK    1  A    between atoms: C3_3  and  C4_4 
REMARK    2  A    between atoms: C4_4  and  O2_6 
REMARK    3  A    between atoms: O2_6  and  C5_7 
REMARK    4  A    between atoms: C12_16  and  C13_17 
REMARK    5  A    between atoms: C13_17  and  C14_18 
REMARK    6  A    between atoms: C20_25  and  C21_26 
ROOT
HETATM    1  C1  UNL     1       9.717  47.899  59.079  1.00  0.00     0.069 C 
HETATM    2  C2  UNL     1       9.125  48.726  60.159  1.00  0.00     0.024 A 
HETATM    3  C3  UNL     1       7.904  49.194  60.036  1.00  0.00     0.074 A 
HETATM    4  C9  UNL     1       7.420  50.009  61.144  1.00  0.00     0.012 A 
HETATM    5  C10 UNL     1       6.191  50.586  61.309  1.00  0.00     0.104 A 
HETATM    6  N1  UNL     1       6.147  51.219  62.505  1.00  0.00    -0.359 N 
HETATM    7  C11 UNL     1       4.994  51.937  62.957  1.00  0.00     0.156 C 
HETATM    8  C12 UNL     1       7.346  51.059  63.131  1.00  0.00     0.049 A 
HETATM    9  C19 UNL     1       8.179  50.307  62.289  1.00  0.00     0.027 A 
HETATM   10  C20 UNL     1       9.414  49.829  62.379  1.00  0.00     0.029 A 
HETATM   11  N2  UNL     1       9.927  49.009  61.315  1.00  0.00    -0.356 N 
HETATM   12  C26 UNL     1      11.202  48.280  61.396  1.00  0.00     0.156 C 
ENDROOT
BRANCH   3  13
HETATM   13  C4  UNL     1       7.095  48.921  58.857  1.00  0.00     0.301 C 
HETATM   14  O1  UNL     1       6.388  47.894  58.715  1.00  0.00    -0.259 OA
BRANCH  13  15
HETATM   15  O2  UNL     1       7.001  49.763  57.743  1.00  0.00    -0.273 OA
BRANCH  15  16
HETATM   16  C5  UNL     1       7.539  49.464  56.501  1.00  0.00     0.097 A 
HETATM   17  C6  UNL     1       7.861  50.078  55.377  1.00  0.00     0.045 A 
HETATM   18 BR1  UNL     1       7.745  51.883  54.820  1.00  0.00    -0.048 Br
HETATM   19  C7  UNL     1       8.325  48.836  54.771  1.00  0.00     0.025 A 
HETATM   20  C8  UNL     1       8.003  48.214  55.894  1.00  0.00     0.040 A 
ENDBRANCH  15  16
ENDBRANCH  13  15
ENDBRANCH   3  13
BRANCH  10  21
HETATM   21  C21 UNL     1      10.326  50.084  63.518  1.00  0.00     0.045 A 
HETATM   22  C22 UNL     1      11.796  50.128  63.268  1.00  0.00     0.021 A 
HETATM   23  C23 UNL     1      11.077  51.364  63.665  1.00  0.00    -0.038 A 
HETATM   24  C24 UNL     1      11.578  51.897  64.979  1.00  0.00     0.015 C 
HETATM   25  C25 UNL     1      10.964  52.473  62.604  1.00  0.00     0.015 C 
ENDBRANCH  10  21
BRANCH   8  26
HETATM   26  C13 UNL     1       7.642  51.444  64.343  1.00  0.00     0.067 C 
BRANCH  26  27
HETATM   27  C14 UNL     1       7.970  52.801  64.814  1.00  0.00     0.077 A 
HETATM   28  C15 UNL     1       7.837  53.993  64.116  1.00  0.00     0.040 A 
HETATM   29  C16 UNL     1       8.256  55.000  64.959  1.00  0.00     0.035 A 
HETATM   30  C17 UNL     1       8.627  54.399  66.132  1.00  0.00     0.050 A 
HETATM   31  C18 UNL     1       9.155  55.002  67.383  1.00  0.00     0.076 C 
HETATM   32  O3  UNL     1       8.436  53.112  65.980  1.00  0.00    -0.316 OA
ENDBRANCH  26  27
ENDBRANCH   8  26
TORSDOF 6
ENDMDL
MODEL 4
REMARK VINA RESULT: -6.596771782      2.317      4.703
REMARK  6 active torsions:
REMARK  status: ('A' for Active; 'I' for Inactive)
REMARK    1  A    between atoms: C3_3  and  C4_4 
REMARK    2  A    between atoms: C4_4  and  O2_6 
REMARK    3  A    between atoms: O2_6  and  C5_7 
REMARK    4  A    between atoms: C12_16  and  C13_17 
REMARK    5  A    between atoms: C13_17  and  C14_18 
REMARK    6  A    between atoms: C20_25  and  C21_26 
ROOT
HETATM    1  C1  UNL     1       5.785  49.769  62.661  1.00  0.00     0.069 C 
HETATM    2  C2  UNL     1       7.256  49.850  62.487  1.00  0.00     0.024 A 
HETATM    3  C3  UNL     1       7.915  48.837  61.973  1.00  0.00     0.074 A 
HETATM    4  C9  UNL     1       9.359  49.009  61.860  1.00  0.00     0.012 A 
HETATM    5  C10 UNL     1      10.284  48.152  61.332  1.00  0.00     0.104 A 
HETATM    6  N1  UNL     1      11.511  48.724  61.384  1.00  0.00    -0.359 N 
HETATM    7  C11 UNL     1      12.692  48.061  60.921  1.00  0.00     0.156 C 
HETATM    8  C12 UNL     1      11.395  49.959  61.945  1.00  0.00     0.049 A 
HETATM    9  C19 UNL     1      10.047  50.166  62.269  1.00  0.00     0.027 A 
HETATM   10  C20 UNL     1       9.353  51.168  62.796  1.00  0.00     0.029 A 
HETATM   11  N2  UNL     1       7.926  51.046  62.913  1.00  0.00    -0.356 N 
HETATM   12  C26 UNL     1       7.047  52.159  63.306  1.00  0.00     0.156 C 
ENDROOT
BRANCH   3  13
HETATM   13  C4  UNL     1       7.240  47.617  61.555  1.00  0.00     0.301 C 
HETATM   14  O1  UNL     1       7.201  46.568  62.243  1.00  0.00    -0.259 OA
BRANCH  13  15
HETATM   15  O2  UNL     1       6.555  47.461  60.346  1.00  0.00    -0.273 OA
BRANCH  15  16
HETATM   16  C5  UNL     1       7.070  47.830  59.112  1.00  0.00     0.097 A 
HETATM   17  C6  UNL     1       8.010  47.449  58.267  1.00  0.00     0.045 A 
HETATM   18 BR1  UNL     1       9.279  46.046  58.304  1.00  0.00    -0.048 Br
HETATM   19  C7  UNL     1       7.673  48.515  57.331  1.00  0.00     0.025 A 
HETATM   20  C8  UNL     1       6.730  48.904  58.175  1.00  0.00     0.040 A 
ENDBRANCH  15  16
ENDBRANCH  13  15
ENDBRANCH   3  13
BRANCH  10  21
HETATM   21  C21 UNL     1       9.953  52.430  63.285  1.00  0.00     0.045 A 
HETATM   22  C22 UNL     1       9.286  53.160  64.402  1.00  0.00     0.021 A 
HETATM   23  C23 UNL     1      10.613  52.533  64.619  1.00  0.00    -0.038 A 
HETATM   24  C24 UNL     1      11.659  53.558  64.961  1.00  0.00     0.015 C 
HETATM   25  C25 UNL     1      10.663  51.325  65.571  1.00  0.00     0.015 C 
ENDBRANCH  10  21
BRANCH   8  26
HETATM   26  C13 UNL     1      12.348  50.843  62.068  1.00  0.00     0.067 C 
BRANCH  26  27
HETATM   27  C14 UNL     1      13.805  50.621  62.063  1.00  0.00     0.077 A 
HETATM   28  C15 UNL     1      14.603  50.231  63.128  1.00  0.00     0.040 A 
HETATM   29  C16 UNL     1      15.893  50.142  62.651  1.00  0.00     0.035 A 
HETATM   30  C17 UNL     1      15.843  50.478  61.325  1.00  0.00     0.050 A 
HETATM   31  C18 UNL     1      16.937  50.551  60.321  1.00  0.00     0.076 C 
HETATM   32  O3  UNL     1      14.592  50.747  61.045  1.00  0.00    -0.316 OA
ENDBRANCH  26  27
ENDBRANCH   8  26
TORSDOF 6
ENDMDL
MODEL 5
REMARK VINA RESULT: -6.591751276      5.554      8.365
REMARK  6 active torsions:
REMARK  status: ('A' for Active; 'I' for Inactive)
REMARK    1  A    between atoms: C3_3  and  C4_4 
REMARK    2  A    between atoms: C4_4  and  O2_6 
REMARK    3  A    between atoms: O2_6  and  C5_7 
REMARK    4  A    between atoms: C12_16  and  C13_17 
REMARK    5  A    between atoms: C13_17  and  C14_18 
REMARK    6  A    between atoms: C20_25  and  C21_26 
ROOT
HETATM    1  C1  UNL     1      11.477  44.706  63.486  1.00  0.00     0.069 C 
HETATM    2  C2  UNL     1      12.468  45.810  63.527  1.00  0.00     0.024 A 
HETATM    3  C3  UNL     1      13.515  45.726  64.315  1.00  0.00     0.074 A 
HETATM    4  C9  UNL     1      14.420  46.869  64.295  1.00  0.00     0.012 A 
HETATM    5  C10 UNL     1      15.597  47.042  64.970  1.00  0.00     0.104 A 
HETATM    6  N1  UNL     1      16.142  48.233  64.628  1.00  0.00    -0.359 N 
HETATM    7  C11 UNL     1      17.373  48.707  65.186  1.00  0.00     0.156 C 
HETATM    8  C12 UNL     1      15.327  48.846  63.726  1.00  0.00     0.049 A 
HETATM    9  C19 UNL     1      14.221  48.014  63.503  1.00  0.00     0.027 A 
HETATM   10  C20 UNL     1      13.146  48.074  62.725  1.00  0.00     0.029 A 
HETATM   11  N2  UNL     1      12.235  46.962  62.704  1.00  0.00    -0.356 N 
HETATM   12  C26 UNL     1      11.123  46.844  61.749  1.00  0.00     0.156 C 
ENDROOT
BRANCH   3  13
HETATM   13  C4  UNL     1      13.745  44.564  65.162  1.00  0.00     0.301 C 
HETATM   14  O1  UNL     1      13.178  44.381  66.266  1.00  0.00    -0.259 OA
BRANCH  13  15
HETATM   15  O2  UNL     1      14.618  43.516  64.855  1.00  0.00    -0.273 OA
BRANCH  15  16
HETATM   16  C5  UNL     1      14.390  42.589  63.850  1.00  0.00     0.097 A 
HETATM   17  C6  UNL     1      13.529  41.636  63.546  1.00  0.00     0.045 A 
HETATM   18 BR1  UNL     1      11.990  40.968  64.421  1.00  0.00    -0.048 Br
HETATM   19  C7  UNL     1      14.230  41.327  62.305  1.00  0.00     0.025 A 
HETATM   20  C8  UNL     1      15.098  42.280  62.604  1.00  0.00     0.040 A 
ENDBRANCH  15  16
ENDBRANCH  13  15
ENDBRANCH   3  13
BRANCH  10  21
HETATM   21  C21 UNL     1      12.806  49.226  61.860  1.00  0.00     0.045 A 
HETATM   22  C22 UNL     1      11.371  49.581  61.663  1.00  0.00     0.021 A 
HETATM   23  C23 UNL     1      12.263  50.502  62.410  1.00  0.00    -0.038 A 
HETATM   24  C24 UNL     1      12.386  51.832  61.721  1.00  0.00     0.015 C 
HETATM   25  C25 UNL     1      11.993  50.660  63.916  1.00  0.00     0.015 C 
ENDBRANCH  10  21
BRANCH   8  26
HETATM   26  C13 UNL     1      15.575  49.963  63.097  1.00  0.00     0.067 C 
BRANCH  26  27
HETATM   27  C14 UNL     1      16.462  50.182  61.942  1.00  0.00     0.077 A 
HETATM   28  C15 UNL     1      16.132  50.103  60.596  1.00  0.00     0.040 A 
HETATM   29  C16 UNL     1      17.277  50.395  59.885  1.00  0.00     0.035 A 
HETATM   30  C17 UNL     1      18.259  50.639  60.808  1.00  0.00     0.050 A 
HETATM   31  C18 UNL     1      19.686  51.000  60.604  1.00  0.00     0.076 C 
HETATM   32  O3  UNL     1      17.716  50.497  61.991  1.00  0.00    -0.316 OA
ENDBRANCH  26  27
ENDBRANCH   8  26
TORSDOF 6
ENDMDL
