MODEL 1
REMARK VINA RESULT: -6.296319970      0.000      0.000
REMARK  6 active torsions:
REMARK  status: ('A' for Active; 'I' for Inactive)
REMARK    1  A    between atoms: C2_2  and  C3_3 
REMARK    2  A    between atoms: C9_9  and  C10_10 
REMARK    3  A    between atoms: N1_17  and  C15_18 
REMARK    4  A    between atoms: C15_18  and  C16_19 
REMARK    5  A    between atoms: C16_19  and  O3_21 
REMARK    6  A    between atoms: O3_21  and  C17_22 
ROOT
HETATM    1  C3  UNL     1      13.358  48.247  65.649  1.00  0.00     0.013 C 
HETATM    2  C4  UNL     1      14.755  47.821  66.059  1.00  0.00     0.013 C 
HETATM    3  C5  UNL     1      15.536  49.097  66.375  1.00  0.00    -0.018 C 
HETATM    4  C6  UNL     1      17.027  48.833  66.378  1.00  0.00     0.010 C 
HETATM    5  C7  UNL     1      15.178  50.185  65.344  1.00  0.00     0.010 C 
HETATM    6  C8  UNL     1      14.767  49.474  64.145  1.00  0.00     0.000 C 
HETATM    7  C9  UNL     1      14.553  50.196  62.883  1.00  0.00     0.032 C 
HETATM    8  C12 UNL     1      13.728  49.183  62.081  1.00  0.00     0.131 C 
HETATM    9  C13 UNL     1      13.433  48.037  63.087  1.00  0.00     0.102 C 
HETATM   10  C14 UNL     1      12.352  47.198  62.659  1.00  0.00     0.227 C 
HETATM   11  O1  UNL     1      12.441  45.950  62.771  1.00  0.00    -0.273 OA
HETATM   12  N1  UNL     1      11.143  47.686  62.098  1.00  0.00    -0.329 N 
HETATM   13  C21 UNL     1      10.838  49.105  62.186  1.00  0.00     0.267 C 
HETATM   14  S1  UNL     1      12.253  49.990  61.591  1.00  0.00     0.166 S 
HETATM   15  O4  UNL     1      12.200  51.435  62.072  1.00  0.00    -0.226 OA
HETATM   16  O5  UNL     1      12.223  50.073  60.085  1.00  0.00    -0.226 OA
HETATM   17  C22 UNL     1      13.368  48.824  64.312  1.00  0.00     0.012 C 
ENDROOT
BRANCH  12  18
HETATM   18  C15 UNL     1      10.192  46.804  61.427  1.00  0.00     0.238 C 
BRANCH  18  19
HETATM   19  C16 UNL     1      10.323  46.857  59.977  1.00  0.00     0.277 C 
HETATM   20  O2  UNL     1      10.909  45.897  59.402  1.00  0.00    -0.263 OA
BRANCH  19  21
HETATM   21  O3  UNL     1       9.861  47.874  59.163  1.00  0.00    -0.310 OA
BRANCH  21  22
HETATM   22  C17 UNL     1       8.574  47.857  58.572  1.00  0.00     0.060 C 
HETATM   23  C18 UNL     1       8.649  47.373  57.132  1.00  0.00     0.045 C 
HETATM   24  C19 UNL     1       8.059  49.280  58.543  1.00  0.00     0.045 C 
HETATM   25  C20 UNL     1       7.606  46.977  59.310  1.00  0.00     0.045 C 
ENDBRANCH  21  22
ENDBRANCH  19  21
ENDBRANCH  18  19
ENDBRANCH  12  18
BRANCH   7  26
HETATM   26  C10 UNL     1      15.877  50.322  62.176  1.00  0.00    -0.013 C 
HETATM   27  C11 UNL     1      15.907  50.405  60.870  1.00  0.00     0.052 C 
HETATM   28 BR1  UNL     1      17.587  50.564  59.981  1.00  0.00    -0.064 Br
ENDBRANCH   7  26
BRANCH   1  29
HETATM   29  C2  UNL     1      12.326  47.270  65.988  1.00  0.00    -0.032 C 
HETATM   30  C1  UNL     1      12.625  46.043  66.351  1.00  0.00     0.007 C 
ENDBRANCH   1  29
TORSDOF 6
ENDMDL
MODEL 2
REMARK VINA RESULT: -6.059414751      3.146      7.353
REMARK  6 active torsions:
REMARK  status: ('A' for Active; 'I' for Inactive)
REMARK    1  A    between atoms: C2_2  and  C3_3 
REMARK    2  A    between atoms: C9_9  and  C10_10 
REMARK    3  A    between atoms: N1_17  and  C15_18 
REMARK    4  A    between atoms: C15_18  and  C16_19 
REMARK    5  A    between atoms: C16_19  and  O3_21 
REMARK    6  A    between atoms: O3_21  and  C17_22 
ROOT
HETATM    1  C3  UNL     1       7.166  48.719  62.985  1.00  0.00     0.013 C 
HETATM    2  C4  UNL     1       6.285  49.830  62.444  1.00  0.00     0.013 C 
HETATM    3  C5  UNL     1       5.073  49.162  61.794  1.00  0.00    -0.018 C 
HETATM    4  C6  UNL     1       4.359  50.121  60.866  1.00  0.00     0.010 C 
HETATM    5  C7  UNL     1       5.531  47.905  61.029  1.00  0.00     0.010 C 
HETATM    6  C8  UNL     1       6.919  48.143  60.670  1.00  0.00     0.000 C 
HETATM    7  C9  UNL     1       7.619  47.238  59.748  1.00  0.00     0.032 C 
HETATM    8  C12 UNL     1       9.086  47.589  60.021  1.00  0.00     0.131 C 
HETATM    9  C13 UNL     1       9.034  48.572  61.223  1.00  0.00     0.102 C 
HETATM   10  C14 UNL     1      10.302  48.702  61.880  1.00  0.00     0.227 C 
HETATM   11  O1  UNL     1      10.715  49.834  62.233  1.00  0.00    -0.273 OA
HETATM   12  N1  UNL     1      11.158  47.609  62.173  1.00  0.00    -0.329 N 
HETATM   13  C21 UNL     1      10.649  46.252  62.055  1.00  0.00     0.267 C 
HETATM   14  S1  UNL     1       9.902  46.102  60.457  1.00  0.00     0.166 S 
HETATM   15  O4  UNL     1       8.962  44.903  60.434  1.00  0.00    -0.226 OA
HETATM   16  O5  UNL     1      10.951  45.802  59.415  1.00  0.00    -0.226 OA
HETATM   17  C22 UNL     1       7.859  48.039  61.900  1.00  0.00     0.012 C 
ENDROOT
BRANCH  12  18
HETATM   18  C15 UNL     1      12.546  47.805  62.586  1.00  0.00     0.238 C 
BRANCH  18  19
HETATM   19  C16 UNL     1      13.407  48.163  61.467  1.00  0.00     0.277 C 
HETATM   20  O2  UNL     1      12.925  48.083  60.303  1.00  0.00    -0.263 OA
BRANCH  19  21
HETATM   21  O3  UNL     1      14.719  48.587  61.564  1.00  0.00    -0.310 OA
BRANCH  21  22
HETATM   22  C17 UNL     1      15.078  49.955  61.627  1.00  0.00     0.060 C 
HETATM   23  C18 UNL     1      16.127  50.285  60.575  1.00  0.00     0.045 C 
HETATM   24  C19 UNL     1      15.704  50.208  62.982  1.00  0.00     0.045 C 
HETATM   25  C20 UNL     1      13.909  50.875  61.424  1.00  0.00     0.045 C 
ENDBRANCH  21  22
ENDBRANCH  19  21
ENDBRANCH  18  19
ENDBRANCH  12  18
BRANCH   7  26
HETATM   26  C10 UNL     1       7.332  47.680  58.337  1.00  0.00    -0.013 C 
HETATM   27  C11 UNL     1       8.326  47.903  57.515  1.00  0.00     0.052 C 
HETATM   28 BR1  UNL     1       7.954  48.461  55.729  1.00  0.00    -0.064 Br
ENDBRANCH   7  26
BRANCH   1  29
HETATM   29  C2  UNL     1       7.923  49.100  64.175  1.00  0.00    -0.032 C 
HETATM   30  C1  UNL     1       8.021  50.352  64.564  1.00  0.00     0.007 C 
ENDBRANCH   1  29
TORSDOF 6
ENDMDL
MODEL 3
REMARK VINA RESULT: -6.038142449      1.710      2.218
REMARK  6 active torsions:
REMARK  status: ('A' for Active; 'I' for Inactive)
REMARK    1  A    between atoms: C2_2  and  C3_3 
REMARK    2  A    between atoms: C9_9  and  C10_10 
REMARK    3  A    between atoms: N1_17  and  C15_18 
REMARK    4  A    between atoms: C15_18  and  C16_19 
REMARK    5  A    between atoms: C16_19  and  O3_21 
REMARK    6  A    between atoms: O3_21  and  C17_22 
ROOT
HETATM    1  C3  UNL     1      13.084  46.587  64.036  1.00  0.00     0.013 C 
HETATM    2  C4  UNL     1      14.377  45.805  63.903  1.00  0.00     0.013 C 
HETATM    3  C5  UNL     1      15.373  46.418  64.888  1.00  0.00    -0.018 C 
HETATM    4  C6  UNL     1      16.792  46.013  64.548  1.00  0.00     0.010 C 
HETATM    5  C7  UNL     1      15.229  47.953  64.873  1.00  0.00     0.010 C 
HETATM    6  C8  UNL     1      14.706  48.288  63.559  1.00  0.00     0.000 C 
HETATM    7  C9  UNL     1      14.639  49.688  63.116  1.00  0.00     0.032 C 
HETATM    8  C12 UNL     1      13.652  49.596  61.946  1.00  0.00     0.131 C 
HETATM    9  C13 UNL     1      13.144  48.129  61.978  1.00  0.00     0.102 C 
HETATM   10  C14 UNL     1      11.933  47.952  61.232  1.00  0.00     0.227 C 
HETATM   11  O1  UNL     1      11.794  46.951  60.486  1.00  0.00    -0.273 OA
HETATM   12  N1  UNL     1      10.839  48.854  61.271  1.00  0.00    -0.329 N 
HETATM   13  C21 UNL     1      10.795  49.878  62.302  1.00  0.00     0.267 C 
HETATM   14  S1  UNL     1      12.352  50.722  62.278  1.00  0.00     0.166 S 
HETATM   15  O4  UNL     1      12.557  51.468  63.590  1.00  0.00    -0.226 OA
HETATM   16  O5  UNL     1      12.352  51.790  61.212  1.00  0.00    -0.226 OA
HETATM   17  C22 UNL     1      13.211  47.898  63.416  1.00  0.00     0.012 C 
ENDROOT
BRANCH  12  18
HETATM   18  C15 UNL     1       9.749  48.789  60.299  1.00  0.00     0.238 C 
BRANCH  18  19
HETATM   19  C16 UNL     1       8.661  47.932  60.750  1.00  0.00     0.277 C 
HETATM   20  O2  UNL     1       7.807  48.428  61.536  1.00  0.00    -0.263 OA
BRANCH  19  21
HETATM   21  O3  UNL     1       8.477  46.609  60.393  1.00  0.00    -0.310 OA
BRANCH  21  22
HETATM   22  C17 UNL     1       8.036  46.219  59.106  1.00  0.00     0.060 C 
HETATM   23  C18 UNL     1       7.213  44.941  59.183  1.00  0.00     0.045 C 
HETATM   24  C19 UNL     1       9.260  45.915  58.269  1.00  0.00     0.045 C 
HETATM   25  C20 UNL     1       7.203  47.270  58.431  1.00  0.00     0.045 C 
ENDBRANCH  21  22
ENDBRANCH  19  21
ENDBRANCH  18  19
ENDBRANCH  12  18
BRANCH   7  26
HETATM   26  C10 UNL     1      15.970  50.063  62.520  1.00  0.00    -0.013 C 
HETATM   27  C11 UNL     1      16.127  50.039  61.220  1.00  0.00     0.052 C 
HETATM   28 BR1  UNL     1      17.815  50.517  60.473  1.00  0.00    -0.064 Br
ENDBRANCH   7  26
BRANCH   1  29
HETATM   29  C2  UNL     1      11.889  45.792  63.765  1.00  0.00    -0.032 C 
HETATM   30  C1  UNL     1      11.898  44.479  63.840  1.00  0.00     0.007 C 
ENDBRANCH   1  29
TORSDOF 6
ENDMDL
MODEL 4
REMARK VINA RESULT: -5.995301151      3.009      7.173
REMARK  6 active torsions:
REMARK  status: ('A' for Active; 'I' for Inactive)
REMARK    1  A    between atoms: C2_2  and  C3_3 
REMARK    2  A    between atoms: C9_9  and  C10_10 
REMARK    3  A    between atoms: N1_17  and  C15_18 
REMARK    4  A    between atoms: C15_18  and  C16_19 
REMARK    5  A    between atoms: C16_19  and  O3_21 
REMARK    6  A    between atoms: O3_21  and  C17_22 
ROOT
HETATM    1  C3  UNL     1       7.265  48.051  62.869  1.00  0.00     0.013 C 
HETATM    2  C4  UNL     1       6.201  49.017  62.381  1.00  0.00     0.013 C 
HETATM    3  C5  UNL     1       5.397  48.287  61.305  1.00  0.00    -0.018 C 
HETATM    4  C6  UNL     1       4.606  49.266  60.462  1.00  0.00     0.010 C 
HETATM    5  C7  UNL     1       6.354  47.461  60.423  1.00  0.00     0.010 C 
HETATM    6  C8  UNL     1       7.641  48.130  60.502  1.00  0.00     0.000 C 
HETATM    7  C9  UNL     1       8.745  47.734  59.615  1.00  0.00     0.032 C 
HETATM    8  C12 UNL     1       9.955  48.343  60.334  1.00  0.00     0.131 C 
HETATM    9  C13 UNL     1       9.380  48.890  61.669  1.00  0.00     0.102 C 
HETATM   10  C14 UNL     1      10.401  49.133  62.646  1.00  0.00     0.227 C 
HETATM   11  O1  UNL     1      10.372  50.180  63.340  1.00  0.00    -0.273 OA
HETATM   12  N1  UNL     1      11.482  48.251  62.898  1.00  0.00    -0.329 N 
HETATM   13  C21 UNL     1      11.448  46.904  62.351  1.00  0.00     0.267 C 
HETATM   14  S1  UNL     1      11.094  47.044  60.621  1.00  0.00     0.166 S 
HETATM   15  O4  UNL     1      10.591  45.709  60.085  1.00  0.00    -0.226 OA
HETATM   16  O5  UNL     1      12.359  47.329  59.849  1.00  0.00    -0.226 OA
HETATM   17  C22 UNL     1       8.322  47.909  61.878  1.00  0.00     0.012 C 
ENDROOT
BRANCH  12  18
HETATM   18  C15 UNL     1      12.640  48.655  63.693  1.00  0.00     0.238 C 
BRANCH  18  19
HETATM   19  C16 UNL     1      13.888  48.136  63.149  1.00  0.00     0.277 C 
HETATM   20  O2  UNL     1      14.535  47.306  63.847  1.00  0.00    -0.263 OA
BRANCH  19  21
HETATM   21  O3  UNL     1      14.434  48.472  61.924  1.00  0.00    -0.310 OA
BRANCH  21  22
HETATM   22  C17 UNL     1      15.004  49.741  61.663  1.00  0.00     0.060 C 
HETATM   23  C18 UNL     1      13.922  50.761  61.342  1.00  0.00     0.045 C 
HETATM   24  C19 UNL     1      15.880  49.612  60.435  1.00  0.00     0.045 C 
HETATM   25  C20 UNL     1      15.812  50.266  62.815  1.00  0.00     0.045 C 
ENDBRANCH  21  22
ENDBRANCH  19  21
ENDBRANCH  18  19
ENDBRANCH  12  18
BRANCH   7  26
HETATM   26  C10 UNL     1       8.602  48.481  58.315  1.00  0.00    -0.013 C 
HETATM   27  C11 UNL     1       8.138  47.860  57.260  1.00  0.00     0.052 C 
HETATM   28 BR1  UNL     1       7.959  48.813  55.618  1.00  0.00    -0.064 Br
ENDBRANCH   7  26
BRANCH   1  29
HETATM   29  C2  UNL     1       7.633  48.246  64.270  1.00  0.00    -0.032 C 
HETATM   30  C1  UNL     1       7.331  49.348  64.919  1.00  0.00     0.007 C 
ENDBRANCH   1  29
TORSDOF 6
ENDMDL
MODEL 5
REMARK VINA RESULT: -5.975033534      1.390      1.687
REMARK  6 active torsions:
REMARK  status: ('A' for Active; 'I' for Inactive)
REMARK    1  A    between atoms: C2_2  and  C3_3 
REMARK    2  A    between atoms: C9_9  and  C10_10 
REMARK    3  A    between atoms: N1_17  and  C15_18 
REMARK    4  A    between atoms: C15_18  and  C16_19 
REMARK    5  A    between atoms: C16_19  and  O3_21 
REMARK    6  A    between atoms: O3_21  and  C17_22 
ROOT
HETATM    1  C3  UNL     1      13.430  46.609  64.920  1.00  0.00     0.013 C 
HETATM    2  C4  UNL     1      14.712  45.817  64.748  1.00  0.00     0.013 C 
HETATM    3  C5  UNL     1      15.813  46.584  65.481  1.00  0.00    -0.018 C 
HETATM    4  C6  UNL     1      17.184  46.129  65.029  1.00  0.00     0.010 C 
HETATM    5  C7  UNL     1      15.633  48.095  65.236  1.00  0.00     0.010 C 
HETATM    6  C8  UNL     1      14.939  48.210  63.965  1.00  0.00     0.000 C 
HETATM    7  C9  UNL     1      14.784  49.518  63.313  1.00  0.00     0.032 C 
HETATM    8  C12 UNL     1      13.656  49.235  62.312  1.00  0.00     0.131 C 
HETATM    9  C13 UNL     1      13.190  47.793  62.649  1.00  0.00     0.102 C 
HETATM   10  C14 UNL     1      11.897  47.494  62.106  1.00  0.00     0.227 C 
HETATM   11  O1  UNL     1      11.686  46.384  61.557  1.00  0.00    -0.273 OA
HETATM   12  N1  UNL     1      10.797  48.389  62.141  1.00  0.00    -0.329 N 
HETATM   13  C21 UNL     1      10.863  49.569  62.988  1.00  0.00     0.267 C 
HETATM   14  S1  UNL     1      12.385  50.399  62.624  1.00  0.00     0.166 S 
HETATM   15  O4  UNL     1      12.741  51.350  63.760  1.00  0.00    -0.226 OA
HETATM   16  O5  UNL     1      12.224  51.278  61.408  1.00  0.00    -0.226 OA
HETATM   17  C22 UNL     1      13.447  47.801  64.084  1.00  0.00     0.012 C 
ENDROOT
BRANCH  12  18
HETATM   18  C15 UNL     1       9.593  48.165  61.343  1.00  0.00     0.238 C 
BRANCH  18  19
HETATM   19  C16 UNL     1       9.775  48.559  59.952  1.00  0.00     0.277 C 
HETATM   20  O2  UNL     1      10.907  49.000  59.607  1.00  0.00    -0.263 OA
BRANCH  19  21
HETATM   21  O3  UNL     1       8.810  48.496  58.965  1.00  0.00    -0.310 OA
BRANCH  21  22
HETATM   22  C17 UNL     1       8.532  47.310  58.241  1.00  0.00     0.060 C 
HETATM   23  C18 UNL     1       8.331  47.616  56.765  1.00  0.00     0.045 C 
HETATM   24  C19 UNL     1       7.231  46.743  58.765  1.00  0.00     0.045 C 
HETATM   25  C20 UNL     1       9.623  46.285  58.361  1.00  0.00     0.045 C 
ENDBRANCH  21  22
ENDBRANCH  19  21
ENDBRANCH  18  19
ENDBRANCH  12  18
BRANCH   7  26
HETATM   26  C10 UNL     1      16.018  49.792  62.495  1.00  0.00    -0.013 C 
HETATM   27  C11 UNL     1      15.897  50.178  61.250  1.00  0.00     0.052 C 
HETATM   28 BR1  UNL     1      17.465  50.525  60.221  1.00  0.00    -0.064 Br
ENDBRANCH   7  26
BRANCH   1  29
HETATM   29  C2  UNL     1      12.228  45.779  64.940  1.00  0.00    -0.032 C 
HETATM   30  C1  UNL     1      12.236  44.537  64.509  1.00  0.00     0.007 C 
ENDBRANCH   1  29
TORSDOF 6
ENDMDL
