MODEL 1
REMARK VINA RESULT: -9.137994654      0.000      0.000
REMARK  4 active torsions:
REMARK  status: ('A' for Active; 'I' for Inactive)
REMARK    1  A    between atoms: C2_2  and  C4_5 
REMARK    2  A    between atoms: N3_10  and  C8_11 
REMARK    3  A    between atoms: C19_23  and  C20_24 
REMARK       I    between atoms: N5_27  and  C23_28 
REMARK    4  A    between atoms: C23_28  and  C24_30 
ROOT
HETATM    1  C1  UNL     1       0.554  52.296  62.872  1.00  0.00     0.027 C 
HETATM    2  C2  UNL     1       1.458  51.913  61.708  1.00  0.00     0.113 C 
HETATM    3  C3  UNL     1       2.330  53.063  61.469  1.00  0.00     0.065 C 
HETATM    4  N1  UNL     1       3.016  53.981  61.270  1.00  0.00    -0.197 NA
ENDROOT
BRANCH   2   5
HETATM    5  C4  UNL     1       2.312  50.757  62.155  1.00  0.00     0.092 C 
HETATM    6  C5  UNL     1       1.702  49.506  61.702  1.00  0.00     0.072 C 
HETATM    7  N2  UNL     1       1.223  48.521  61.334  1.00  0.00    -0.196 NA
HETATM    8  C6  UNL     1       2.500  50.719  63.656  1.00  0.00     0.058 C 
HETATM    9  C7  UNL     1       4.019  50.675  63.851  1.00  0.00     0.275 C 
HETATM   10  N3  UNL     1       4.456  50.146  62.604  1.00  0.00     0.095 N 
HETATM   11  C29 UNL     1       3.742  50.876  61.627  1.00  0.00     0.298 C 
BRANCH  10  12
HETATM   12  C8  UNL     1       5.867  50.052  62.440  1.00  0.00     0.223 C 
HETATM   13  C9  UNL     1       6.243  48.631  62.802  1.00  0.00     0.036 C 
HETATM   14  C10 UNL     1       7.726  48.402  62.549  1.00  0.00     0.014 C 
HETATM   15  C11 UNL     1       7.928  48.594  61.087  1.00  0.00    -0.007 C 
HETATM   16  C12 UNL     1       7.714  50.030  60.714  1.00  0.00     0.014 C 
HETATM   17  C14 UNL     1       6.779  47.828  60.391  1.00  0.00     0.047 C 
HETATM   18  C19 UNL     1       9.047  47.900  60.452  1.00  0.00     0.237 C 
HETATM   19  C13 UNL     1       6.376  50.528  61.129  1.00  0.00     0.036 C 
HETATM   20  C15 UNL     1       7.361  47.648  58.990  1.00  0.00     0.224 C 
HETATM   21  C16 UNL     1       7.391  46.176  58.695  1.00  0.00     0.037 C 
HETATM   22  N4  UNL     1       8.738  48.104  59.040  1.00  0.00     0.099 N 
HETATM   23  C17 UNL     1       8.830  45.829  58.393  1.00  0.00     0.032 C 
HETATM   24  C18 UNL     1       9.431  47.201  58.179  1.00  0.00     0.273 C 
BRANCH  18  25
HETATM   25  C20 UNL     1      10.421  48.075  60.821  1.00  0.00     0.039 C 
HETATM   26  C21 UNL     1      11.016  47.039  61.745  1.00  0.00     0.028 C 
HETATM   27  C22 UNL     1      12.460  47.569  61.793  1.00  0.00     0.126 C 
HETATM   28  N5  UNL     1      12.329  49.016  61.569  1.00  0.00    -0.351 N 
HETATM   29  C23 UNL     1      13.411  49.891  61.461  1.00  0.00     0.224 C 
HETATM   30  C28 UNL     1      10.886  49.323  61.488  1.00  0.00     0.132 C 
HETATM   31  O1  UNL     1      13.200  51.113  61.271  1.00  0.00    -0.273 OA
BRANCH  29  32
HETATM   32  C24 UNL     1      14.814  49.429  61.561  1.00  0.00     0.083 C 
HETATM   33  C25 UNL     1      15.818  50.468  61.985  1.00  0.00     0.051 C 
HETATM   34  C26 UNL     1      16.658  50.125  60.776  1.00  0.00     0.171 C 
HETATM   35  F1  UNL     1      16.956  51.190  59.950  1.00  0.00    -0.249 F 
HETATM   36  C27 UNL     1      15.526  49.260  60.241  1.00  0.00     0.051 C 
ENDBRANCH  29  32
ENDBRANCH  18  25
ENDBRANCH  10  12
ENDBRANCH   2   5
TORSDOF 4
ENDMDL
MODEL 2
REMARK VINA RESULT: -9.095159510      1.160      1.598
REMARK  4 active torsions:
REMARK  status: ('A' for Active; 'I' for Inactive)
REMARK    1  A    between atoms: C2_2  and  C4_5 
REMARK    2  A    between atoms: N3_10  and  C8_11 
REMARK    3  A    between atoms: C19_23  and  C20_24 
REMARK       I    between atoms: N5_27  and  C23_28 
REMARK    4  A    between atoms: C23_28  and  C24_30 
ROOT
HETATM    1  C1  UNL     1       1.608  49.524  64.521  1.00  0.00     0.027 C 
HETATM    2  C2  UNL     1       1.081  50.513  63.489  1.00  0.00     0.113 C 
HETATM    3  C3  UNL     1       1.297  51.846  64.050  1.00  0.00     0.065 C 
HETATM    4  N1  UNL     1       1.458  52.907  64.499  1.00  0.00    -0.197 NA
ENDROOT
BRANCH   2   5
HETATM    5  C4  UNL     1       1.929  50.376  62.253  1.00  0.00     0.092 C 
HETATM    6  C5  UNL     1       1.492  51.358  61.259  1.00  0.00     0.072 C 
HETATM    7  N2  UNL     1       1.151  52.141  60.482  1.00  0.00    -0.196 NA
HETATM    8  C6  UNL     1       1.869  48.987  61.657  1.00  0.00     0.058 C 
HETATM    9  C7  UNL     1       3.334  48.552  61.549  1.00  0.00     0.275 C 
HETATM   10  N3  UNL     1       4.007  49.806  61.527  1.00  0.00     0.095 N 
HETATM   11  C29 UNL     1       3.414  50.557  62.566  1.00  0.00     0.298 C 
BRANCH  10  12
HETATM   12  C8  UNL     1       5.428  49.737  61.506  1.00  0.00     0.223 C 
HETATM   13  C9  UNL     1       5.802  48.454  62.218  1.00  0.00     0.036 C 
HETATM   14  C10 UNL     1       7.306  48.236  62.149  1.00  0.00     0.014 C 
HETATM   15  C11 UNL     1       7.635  48.096  60.704  1.00  0.00    -0.007 C 
HETATM   16  C12 UNL     1       7.424  49.397  59.992  1.00  0.00     0.014 C 
HETATM   17  C14 UNL     1       6.571  47.142  60.113  1.00  0.00     0.047 C 
HETATM   18  C19 UNL     1       8.822  47.322  60.343  1.00  0.00     0.237 C 
HETATM   19  C13 UNL     1       6.043  49.920  60.167  1.00  0.00     0.036 C 
HETATM   20  C15 UNL     1       7.280  46.670  58.845  1.00  0.00     0.224 C 
HETATM   21  C16 UNL     1       7.369  45.173  58.904  1.00  0.00     0.037 C 
HETATM   22  N4  UNL     1       8.637  47.184  58.902  1.00  0.00     0.099 N 
HETATM   23  C17 UNL     1       8.837  44.827  58.811  1.00  0.00     0.032 C 
HETATM   24  C18 UNL     1       9.425  46.138  58.334  1.00  0.00     0.273 C 
BRANCH  18  25
HETATM   25  C20 UNL     1      10.153  47.635  60.774  1.00  0.00     0.039 C 
HETATM   26  C21 UNL     1      10.725  46.791  61.887  1.00  0.00     0.028 C 
HETATM   27  C22 UNL     1      12.133  47.409  61.950  1.00  0.00     0.126 C 
HETATM   28  N5  UNL     1      11.948  48.795  61.494  1.00  0.00    -0.351 N 
HETATM   29  C23 UNL     1      12.990  49.708  61.325  1.00  0.00     0.224 C 
HETATM   30  C28 UNL     1      10.502  48.997  61.267  1.00  0.00     0.132 C 
HETATM   31  O1  UNL     1      12.733  50.871  60.932  1.00  0.00    -0.273 OA
BRANCH  29  32
HETATM   32  C24 UNL     1      14.402  49.353  61.593  1.00  0.00     0.083 C 
HETATM   33  C25 UNL     1      15.279  50.476  62.080  1.00  0.00     0.051 C 
HETATM   34  C26 UNL     1      16.268  50.159  60.983  1.00  0.00     0.171 C 
HETATM   35  F1  UNL     1      16.580  51.216  60.152  1.00  0.00    -0.249 F 
HETATM   36  C27 UNL     1      15.264  49.197  60.364  1.00  0.00     0.051 C 
ENDBRANCH  29  32
ENDBRANCH  18  25
ENDBRANCH  10  12
ENDBRANCH   2   5
TORSDOF 4
ENDMDL
MODEL 3
REMARK VINA RESULT: -8.689432543      1.170      2.192
REMARK  4 active torsions:
REMARK  status: ('A' for Active; 'I' for Inactive)
REMARK    1  A    between atoms: C2_2  and  C4_5 
REMARK    2  A    between atoms: N3_10  and  C8_11 
REMARK    3  A    between atoms: C19_23  and  C20_24 
REMARK       I    between atoms: N5_27  and  C23_28 
REMARK    4  A    between atoms: C23_28  and  C24_30 
ROOT
HETATM    1  C1  UNL     1       1.719  48.011  61.571  1.00  0.00     0.027 C 
HETATM    2  C2  UNL     1       1.362  48.816  62.813  1.00  0.00     0.113 C 
HETATM    3  C3  UNL     1       1.518  47.908  63.949  1.00  0.00     0.065 C 
HETATM    4  N1  UNL     1       1.631  47.186  64.853  1.00  0.00    -0.197 NA
ENDROOT
BRANCH   2   5
HETATM    5  C4  UNL     1       2.375  49.921  62.946  1.00  0.00     0.092 C 
HETATM    6  C5  UNL     1       2.113  50.666  64.179  1.00  0.00     0.072 C 
HETATM    7  N2  UNL     1       1.909  51.245  65.157  1.00  0.00    -0.196 NA
HETATM    8  C6  UNL     1       2.363  50.867  61.766  1.00  0.00     0.058 C 
HETATM    9  C7  UNL     1       3.816  50.893  61.280  1.00  0.00     0.275 C 
HETATM   10  N3  UNL     1       4.519  50.492  62.451  1.00  0.00     0.095 N 
HETATM   11  C29 UNL     1       3.803  49.378  62.944  1.00  0.00     0.298 C 
BRANCH  10  12
HETATM   12  C8  UNL     1       5.926  50.342  62.297  1.00  0.00     0.223 C 
HETATM   13  C9  UNL     1       6.255  48.934  62.745  1.00  0.00     0.036 C 
HETATM   14  C10 UNL     1       7.730  48.642  62.512  1.00  0.00     0.014 C 
HETATM   15  C11 UNL     1       7.941  48.738  61.041  1.00  0.00    -0.007 C 
HETATM   16  C12 UNL     1       7.774  50.156  60.582  1.00  0.00     0.014 C 
HETATM   17  C14 UNL     1       6.767  47.970  60.389  1.00  0.00     0.047 C 
HETATM   18  C19 UNL     1       9.037  47.971  60.452  1.00  0.00     0.237 C 
HETATM   19  C13 UNL     1       6.452  50.721  60.961  1.00  0.00     0.036 C 
HETATM   20  C15 UNL     1       7.345  47.687  59.003  1.00  0.00     0.224 C 
HETATM   21  C16 UNL     1       7.326  46.200  58.797  1.00  0.00     0.037 C 
HETATM   22  N4  UNL     1       8.736  48.100  59.030  1.00  0.00     0.099 N 
HETATM   23  C17 UNL     1       8.754  45.788  58.521  1.00  0.00     0.032 C 
HETATM   24  C18 UNL     1       9.400  47.125  58.227  1.00  0.00     0.273 C 
BRANCH  18  25
HETATM   25  C20 UNL     1      10.415  48.123  60.815  1.00  0.00     0.039 C 
HETATM   26  C21 UNL     1      11.016  47.040  61.679  1.00  0.00     0.028 C 
HETATM   27  C22 UNL     1      12.463  47.563  61.737  1.00  0.00     0.126 C 
HETATM   28  N5  UNL     1      12.335  49.020  61.588  1.00  0.00    -0.351 N 
HETATM   29  C23 UNL     1      13.419  49.895  61.511  1.00  0.00     0.224 C 
HETATM   30  C28 UNL     1      10.892  49.335  61.538  1.00  0.00     0.132 C 
HETATM   31  O1  UNL     1      13.210  51.126  61.384  1.00  0.00    -0.273 OA
BRANCH  29  32
HETATM   32  C24 UNL     1      14.821  49.425  61.573  1.00  0.00     0.083 C 
HETATM   33  C25 UNL     1      15.840  50.452  61.988  1.00  0.00     0.051 C 
HETATM   34  C26 UNL     1      16.651  50.122  60.756  1.00  0.00     0.171 C 
HETATM   35  F1  UNL     1      16.936  51.197  59.939  1.00  0.00    -0.249 F 
HETATM   36  C27 UNL     1      15.502  49.271  60.235  1.00  0.00     0.051 C 
ENDBRANCH  29  32
ENDBRANCH  18  25
ENDBRANCH  10  12
ENDBRANCH   2   5
TORSDOF 4
ENDMDL
MODEL 4
REMARK VINA RESULT: -8.554997813      1.142      1.727
REMARK  4 active torsions:
REMARK  status: ('A' for Active; 'I' for Inactive)
REMARK    1  A    between atoms: C2_2  and  C4_5 
REMARK    2  A    between atoms: N3_10  and  C8_11 
REMARK    3  A    between atoms: C19_23  and  C20_24 
REMARK       I    between atoms: N5_27  and  C23_28 
REMARK    4  A    between atoms: C23_28  and  C24_30 
ROOT
HETATM    1  C1  UNL     1       1.863  51.059  61.130  1.00  0.00     0.027 C 
HETATM    2  C2  UNL     1       1.469  50.093  62.240  1.00  0.00     0.113 C 
HETATM    3  C3  UNL     1       1.411  48.766  61.627  1.00  0.00     0.065 C 
HETATM    4  N1  UNL     1       1.353  47.711  61.140  1.00  0.00    -0.197 NA
ENDROOT
BRANCH   2   5
HETATM    5  C4  UNL     1       2.576  50.095  63.260  1.00  0.00     0.092 C 
HETATM    6  C5  UNL     1       2.236  49.166  64.339  1.00  0.00     0.072 C 
HETATM    7  N2  UNL     1       1.969  48.426  65.184  1.00  0.00    -0.196 NA
HETATM    8  C6  UNL     1       2.836  51.471  63.833  1.00  0.00     0.058 C 
HETATM    9  C7  UNL     1       4.335  51.701  63.613  1.00  0.00     0.275 C 
HETATM   10  N3  UNL     1       4.820  50.367  63.508  1.00  0.00     0.095 N 
HETATM   11  C29 UNL     1       3.918  49.718  62.634  1.00  0.00     0.298 C 
BRANCH  10  12
HETATM   12  C8  UNL     1       6.208  50.242  63.218  1.00  0.00     0.223 C 
HETATM   13  C9  UNL     1       6.558  48.785  63.436  1.00  0.00     0.036 C 
HETATM   14  C10 UNL     1       8.005  48.530  63.041  1.00  0.00     0.014 C 
HETATM   15  C11 UNL     1       8.094  48.831  61.586  1.00  0.00    -0.007 C 
HETATM   16  C12 UNL     1       7.904  50.298  61.344  1.00  0.00     0.014 C 
HETATM   17  C14 UNL     1       6.862  48.159  60.934  1.00  0.00     0.047 C 
HETATM   18  C19 UNL     1       9.129  48.155  60.807  1.00  0.00     0.237 C 
HETATM   19  C13 UNL     1       6.624  50.803  61.908  1.00  0.00     0.036 C 
HETATM   20  C15 UNL     1       7.319  48.073  59.479  1.00  0.00     0.224 C 
HETATM   21  C16 UNL     1       7.269  46.629  59.071  1.00  0.00     0.037 C 
HETATM   22  N4  UNL     1       8.712  48.480  59.446  1.00  0.00     0.099 N 
HETATM   23  C17 UNL     1       8.664  46.262  58.621  1.00  0.00     0.032 C 
HETATM   24  C18 UNL     1       9.297  47.627  58.463  1.00  0.00     0.273 C 
BRANCH  18  25
HETATM   25  C20 UNL     1      10.534  48.257  61.070  1.00  0.00     0.039 C 
HETATM   26  C21 UNL     1      11.152  47.162  61.907  1.00  0.00     0.028 C 
HETATM   27  C22 UNL     1      12.618  47.627  61.856  1.00  0.00     0.126 C 
HETATM   28  N5  UNL     1      12.537  49.087  61.693  1.00  0.00    -0.351 N 
HETATM   29  C23 UNL     1      13.646  49.917  61.527  1.00  0.00     0.224 C 
HETATM   30  C28 UNL     1      11.107  49.458  61.739  1.00  0.00     0.132 C 
HETATM   31  O1  UNL     1      13.476  51.153  61.396  1.00  0.00    -0.273 OA
BRANCH  29  32
HETATM   32  C24 UNL     1      15.029  49.392  61.499  1.00  0.00     0.083 C 
HETATM   33  C25 UNL     1      16.104  50.351  61.937  1.00  0.00     0.051 C 
HETATM   34  C26 UNL     1      16.851  50.075  60.653  1.00  0.00     0.171 C 
HETATM   35  F1  UNL     1      17.146  51.190  59.895  1.00  0.00    -0.249 F 
HETATM   36  C27 UNL     1      15.650  49.303  60.126  1.00  0.00     0.051 C 
ENDBRANCH  29  32
ENDBRANCH  18  25
ENDBRANCH  10  12
ENDBRANCH   2   5
TORSDOF 4
ENDMDL
MODEL 5
REMARK VINA RESULT: -8.524898002      1.108      1.287
REMARK  4 active torsions:
REMARK  status: ('A' for Active; 'I' for Inactive)
REMARK    1  A    between atoms: C2_2  and  C4_5 
REMARK    2  A    between atoms: N3_10  and  C8_11 
REMARK    3  A    between atoms: C19_23  and  C20_24 
REMARK       I    between atoms: N5_27  and  C23_28 
REMARK    4  A    between atoms: C23_28  and  C24_30 
ROOT
HETATM    1  C1  UNL     1       1.497  50.911  64.382  1.00  0.00     0.027 C 
HETATM    2  C2  UNL     1       1.058  50.132  63.150  1.00  0.00     0.113 C 
HETATM    3  C3  UNL     1       1.171  51.054  62.019  1.00  0.00     0.065 C 
HETATM    4  N1  UNL     1       1.249  51.788  61.121  1.00  0.00    -0.197 NA
ENDROOT
BRANCH   2   5
HETATM    5  C4  UNL     1       2.040  49.010  62.946  1.00  0.00     0.092 C 
HETATM    6  C5  UNL     1       1.535  48.114  61.904  1.00  0.00     0.072 C 
HETATM    7  N2  UNL     1       1.139  47.414  61.075  1.00  0.00    -0.196 NA
HETATM    8  C6  UNL     1       2.298  48.225  64.213  1.00  0.00     0.058 C 
HETATM    9  C7  UNL     1       3.822  48.250  64.376  1.00  0.00     0.275 C 
HETATM   10  N3  UNL     1       4.251  48.489  63.040  1.00  0.00     0.095 N 
HETATM   11  C29 UNL     1       3.425  49.536  62.572  1.00  0.00     0.298 C 
BRANCH  10  12
HETATM   12  C8  UNL     1       5.655  48.645  62.868  1.00  0.00     0.223 C 
HETATM   13  C9  UNL     1       6.233  47.246  62.804  1.00  0.00     0.036 C 
HETATM   14  C10 UNL     1       7.724  47.310  62.509  1.00  0.00     0.014 C 
HETATM   15  C11 UNL     1       7.851  47.942  61.167  1.00  0.00    -0.007 C 
HETATM   16  C12 UNL     1       7.432  49.380  61.226  1.00  0.00     0.014 C 
HETATM   17  C14 UNL     1       6.795  47.257  60.269  1.00  0.00     0.047 C 
HETATM   18  C19 UNL     1       9.033  47.624  60.368  1.00  0.00     0.237 C 
HETATM   19  C13 UNL     1       6.052  49.545  61.756  1.00  0.00     0.036 C 
HETATM   20  C15 UNL     1       7.350  47.572  58.881  1.00  0.00     0.224 C 
HETATM   21  C16 UNL     1       7.571  46.267  58.172  1.00  0.00     0.037 C 
HETATM   22  N4  UNL     1       8.653  48.182  59.074  1.00  0.00     0.099 N 
HETATM   23  C17 UNL     1       9.033  46.227  57.794  1.00  0.00     0.032 C 
HETATM   24  C18 UNL     1       9.435  47.672  57.993  1.00  0.00     0.273 C 
BRANCH  18  25
HETATM   25  C20 UNL     1      10.382  47.875  60.784  1.00  0.00     0.039 C 
HETATM   26  C21 UNL     1      10.980  46.908  61.777  1.00  0.00     0.028 C 
HETATM   27  C22 UNL     1      12.397  47.502  61.858  1.00  0.00     0.126 C 
HETATM   28  N5  UNL     1      12.215  48.932  61.565  1.00  0.00    -0.351 N 
HETATM   29  C23 UNL     1      13.263  49.847  61.460  1.00  0.00     0.224 C 
HETATM   30  C28 UNL     1      10.765  49.171  61.411  1.00  0.00     0.132 C 
HETATM   31  O1  UNL     1      13.009  51.049  61.206  1.00  0.00    -0.273 OA
BRANCH  29  32
HETATM   32  C24 UNL     1      14.678  49.452  61.638  1.00  0.00     0.083 C 
HETATM   33  C25 UNL     1      15.623  50.557  62.030  1.00  0.00     0.051 C 
HETATM   34  C26 UNL     1      16.521  50.177  60.875  1.00  0.00     0.171 C 
HETATM   35  F1  UNL     1      16.807  51.201  59.995  1.00  0.00    -0.249 F 
HETATM   36  C27 UNL     1      15.446  49.234  60.356  1.00  0.00     0.051 C 
ENDBRANCH  29  32
ENDBRANCH  18  25
ENDBRANCH  10  12
ENDBRANCH   2   5
TORSDOF 4
ENDMDL
