MODEL 1
REMARK VINA RESULT: -7.553211688      0.000      0.000
REMARK  5 active torsions:
REMARK  status: ('A' for Active; 'I' for Inactive)
REMARK    1  A    between atoms: C6_6  and  C7_7 
REMARK       I    between atoms: C7_7  and  N1_9 
REMARK    2  A    between atoms: N1_9  and  C9_11 
REMARK    3  A    between atoms: C9_11  and  C10_12 
REMARK       I    between atoms: C10_12  and  N2_14 
REMARK    4  A    between atoms: C21_26  and  O4_28 
REMARK    5  A    between atoms: O4_28  and  C23_29 
ROOT
HETATM    1  C1  UNL     1      12.580  46.867  65.412  1.00  0.00     0.015 C 
HETATM    2  C2  UNL     1      12.899  47.634  64.390  1.00  0.00    -0.072 C 
HETATM    3  C3  UNL     1      12.208  47.475  63.056  1.00  0.00     0.044 C 
HETATM    4  C4  UNL     1      12.088  48.730  62.281  1.00  0.00    -0.024 C 
HETATM    5  C5  UNL     1      10.879  49.494  62.849  1.00  0.00     0.016 C 
HETATM    6  C6  UNL     1      11.839  48.554  60.836  1.00  0.00     0.087 C 
HETATM    7  C15 UNL     1      13.243  48.362  60.300  1.00  0.00     0.015 C 
HETATM    8  C16 UNL     1      13.852  49.658  60.863  1.00  0.00     0.007 C 
HETATM    9  C17 UNL     1      13.315  49.623  62.302  1.00  0.00     0.001 C 
HETATM   10  C18 UNL     1      14.386  48.991  63.111  1.00  0.00     0.015 C 
HETATM   11  C19 UNL     1      15.590  49.824  63.372  1.00  0.00     0.051 C 
HETATM   12  C20 UNL     1      16.175  49.167  64.568  1.00  0.00     0.019 C 
HETATM   13  C21 UNL     1      17.401  49.431  65.057  1.00  0.00     0.062 C 
HETATM   14  C22 UNL     1      18.228  50.434  64.371  1.00  0.00     0.077 C 
HETATM   15  C25 UNL     1      15.209  48.210  65.111  1.00  0.00     0.171 C 
HETATM   16  O6  UNL     1      15.488  47.271  65.880  1.00  0.00    -0.291 OA
HETATM   17  C26 UNL     1      13.924  48.653  64.522  1.00  0.00     0.048 C 
HETATM   18  C27 UNL     1      13.487  49.879  65.275  1.00  0.00     0.029 C 
ENDROOT
BRANCH   6  19
HETATM   19  C7  UNL     1      10.887  47.563  60.398  1.00  0.00     0.224 C 
HETATM   20  O1  UNL     1      11.139  46.312  60.320  1.00  0.00    -0.273 OA
HETATM   21  N1  UNL     1       9.567  47.915  60.013  1.00  0.00    -0.347 N 
HETATM   22  C8  UNL     1       9.103  49.287  60.053  1.00  0.00     0.153 C 
BRANCH  21  23
HETATM   23  C9  UNL     1       8.590  46.921  59.548  1.00  0.00     0.228 C 
BRANCH  23  24
HETATM   24  C10 UNL     1       8.666  46.812  58.073  1.00  0.00     0.237 C 
HETATM   25  O2  UNL     1       9.436  45.969  57.556  1.00  0.00    -0.272 OA
HETATM   26  N2  UNL     1       7.896  47.629  57.206  1.00  0.00    -0.347 N 
HETATM   27  C11 UNL     1       6.969  48.640  57.726  1.00  0.00     0.152 C 
HETATM   28  C14 UNL     1       7.983  47.515  55.774  1.00  0.00     0.152 C 
HETATM   29  C12 UNL     1       7.345  49.934  57.003  1.00  0.00     0.187 C 
HETATM   30  O3  UNL     1       7.277  49.817  55.643  1.00  0.00    -0.388 OA
HETATM   31  C13 UNL     1       8.079  48.859  55.094  1.00  0.00     0.187 C 
ENDBRANCH  23  24
ENDBRANCH  21  23
ENDBRANCH   6  19
BRANCH  13  32
HETATM   32  O4  UNL     1      17.830  48.755  66.173  1.00  0.00    -0.283 OA
BRANCH  32  33
HETATM   33  C23 UNL     1      18.862  47.872  66.180  1.00  0.00     0.259 C 
HETATM   34  C24 UNL     1      20.262  48.301  66.527  1.00  0.00     0.126 C 
HETATM   35  O5  UNL     1      18.687  46.672  65.900  1.00  0.00    -0.265 OA
ENDBRANCH  32  33
ENDBRANCH  13  32
TORSDOF 5
ENDMDL
MODEL 2
REMARK VINA RESULT: -7.411315233      7.032     10.640
REMARK  5 active torsions:
REMARK  status: ('A' for Active; 'I' for Inactive)
REMARK    1  A    between atoms: C6_6  and  C7_7 
REMARK       I    between atoms: C7_7  and  N1_9 
REMARK    2  A    between atoms: N1_9  and  C9_11 
REMARK    3  A    between atoms: C9_11  and  C10_12 
REMARK       I    between atoms: C10_12  and  N2_14 
REMARK    4  A    between atoms: C21_26  and  O4_28 
REMARK    5  A    between atoms: O4_28  and  C23_29 
ROOT
HETATM    1  C1  UNL     1       7.895  45.355  58.367  1.00  0.00     0.015 C 
HETATM    2  C2  UNL     1       7.477  46.476  58.917  1.00  0.00    -0.072 C 
HETATM    3  C3  UNL     1       6.636  46.458  60.171  1.00  0.00     0.044 C 
HETATM    4  C4  UNL     1       6.834  47.630  61.052  1.00  0.00    -0.024 C 
HETATM    5  C5  UNL     1       8.110  47.367  61.869  1.00  0.00     0.016 C 
HETATM    6  C6  UNL     1       5.749  47.874  62.024  1.00  0.00     0.087 C 
HETATM    7  C15 UNL     1       4.760  48.668  61.195  1.00  0.00     0.015 C 
HETATM    8  C16 UNL     1       5.720  49.789  60.756  1.00  0.00     0.007 C 
HETATM    9  C17 UNL     1       6.947  48.964  60.337  1.00  0.00     0.001 C 
HETATM   10  C18 UNL     1       6.811  48.766  58.873  1.00  0.00     0.015 C 
HETATM   11  C19 UNL     1       7.075  49.957  58.022  1.00  0.00     0.051 C 
HETATM   12  C20 UNL     1       7.377  49.342  56.704  1.00  0.00     0.019 C 
HETATM   13  C21 UNL     1       7.471  50.027  55.549  1.00  0.00     0.062 C 
HETATM   14  C22 UNL     1       7.264  51.482  55.579  1.00  0.00     0.077 C 
HETATM   15  C25 UNL     1       7.552  47.899  56.877  1.00  0.00     0.171 C 
HETATM   16  O6  UNL     1       7.480  47.055  55.963  1.00  0.00    -0.291 OA
HETATM   17  C26 UNL     1       7.815  47.759  58.328  1.00  0.00     0.048 C 
HETATM   18  C27 UNL     1       9.233  48.199  58.569  1.00  0.00     0.029 C 
ENDROOT
BRANCH   6  19
HETATM   19  C7  UNL     1       5.176  46.760  62.739  1.00  0.00     0.224 C 
HETATM   20  O1  UNL     1       5.123  45.566  62.284  1.00  0.00    -0.273 OA
HETATM   21  N1  UNL     1       4.615  46.914  64.034  1.00  0.00    -0.347 N 
HETATM   22  C8  UNL     1       4.602  48.195  64.710  1.00  0.00     0.153 C 
BRANCH  21  23
HETATM   23  C9  UNL     1       4.012  45.793  64.769  1.00  0.00     0.228 C 
BRANCH  23  24
HETATM   24  C10 UNL     1       2.537  45.868  64.654  1.00  0.00     0.237 C 
HETATM   25  O2  UNL     1       1.991  45.612  63.555  1.00  0.00    -0.272 OA
HETATM   26  N2  UNL     1       1.703  46.222  65.745  1.00  0.00    -0.347 N 
HETATM   27  C11 UNL     1       2.258  46.536  67.066  1.00  0.00     0.152 C 
HETATM   28  C14 UNL     1       0.271  46.295  65.618  1.00  0.00     0.152 C 
HETATM   29  C12 UNL     1       1.652  47.888  67.441  1.00  0.00     0.187 C 
HETATM   30  O3  UNL     1       0.285  47.871  67.444  1.00  0.00    -0.388 OA
HETATM   31  C13 UNL     1      -0.301  47.537  66.257  1.00  0.00     0.187 C 
ENDBRANCH  23  24
ENDBRANCH  21  23
ENDBRANCH   6  19
BRANCH  13  32
HETATM   32  O4  UNL     1       7.756  49.342  54.394  1.00  0.00    -0.283 OA
BRANCH  32  33
HETATM   33  C23 UNL     1       8.750  49.681  53.532  1.00  0.00     0.259 C 
HETATM   34  C24 UNL     1       8.662  50.915  52.674  1.00  0.00     0.126 C 
HETATM   35  O5  UNL     1       9.775  48.983  53.421  1.00  0.00    -0.265 OA
ENDBRANCH  32  33
ENDBRANCH  13  32
TORSDOF 5
ENDMDL
MODEL 3
REMARK VINA RESULT: -7.353116959      3.563      9.778
REMARK  5 active torsions:
REMARK  status: ('A' for Active; 'I' for Inactive)
REMARK    1  A    between atoms: C6_6  and  C7_7 
REMARK       I    between atoms: C7_7  and  N1_9 
REMARK    2  A    between atoms: N1_9  and  C9_11 
REMARK    3  A    between atoms: C9_11  and  C10_12 
REMARK       I    between atoms: C10_12  and  N2_14 
REMARK    4  A    between atoms: C21_26  and  O4_28 
REMARK    5  A    between atoms: O4_28  and  C23_29 
ROOT
HETATM    1  C1  UNL     1       8.930  46.560  57.880  1.00  0.00     0.015 C 
HETATM    2  C2  UNL     1       9.082  46.381  59.176  1.00  0.00    -0.072 C 
HETATM    3  C3  UNL     1      10.170  47.102  59.937  1.00  0.00     0.044 C 
HETATM    4  C4  UNL     1       9.827  47.408  61.343  1.00  0.00    -0.024 C 
HETATM    5  C5  UNL     1       8.957  48.677  61.327  1.00  0.00     0.016 C 
HETATM    6  C6  UNL     1      10.979  47.693  62.222  1.00  0.00     0.087 C 
HETATM    7  C15 UNL     1      11.409  46.300  62.633  1.00  0.00     0.015 C 
HETATM    8  C16 UNL     1      10.057  45.831  63.200  1.00  0.00     0.007 C 
HETATM    9  C17 UNL     1       9.105  46.300  62.088  1.00  0.00     0.001 C 
HETATM   10  C18 UNL     1       8.925  45.127  61.199  1.00  0.00     0.015 C 
HETATM   11  C19 UNL     1       8.079  44.025  61.729  1.00  0.00     0.051 C 
HETATM   12  C20 UNL     1       7.674  43.313  60.490  1.00  0.00     0.019 C 
HETATM   13  C21 UNL     1       7.072  42.110  60.466  1.00  0.00     0.062 C 
HETATM   14  C22 UNL     1       6.790  41.442  61.744  1.00  0.00     0.077 C 
HETATM   15  C25 UNL     1       8.032  44.131  59.329  1.00  0.00     0.171 C 
HETATM   16  O6  UNL     1       8.144  43.707  58.163  1.00  0.00    -0.291 OA
HETATM   17  C26 UNL     1       8.204  45.484  59.906  1.00  0.00     0.048 C 
HETATM   18  C27 UNL     1       6.830  46.037  60.167  1.00  0.00     0.029 C 
ENDROOT
BRANCH   6  19
HETATM   19  C7  UNL     1      12.047  48.533  61.738  1.00  0.00     0.224 C 
HETATM   20  O1  UNL     1      12.919  48.162  60.880  1.00  0.00    -0.273 OA
HETATM   21  N1  UNL     1      12.209  49.869  62.191  1.00  0.00    -0.347 N 
HETATM   22  C8  UNL     1      11.302  50.462  63.152  1.00  0.00     0.153 C 
BRANCH  21  23
HETATM   23  C9  UNL     1      13.301  50.733  61.721  1.00  0.00     0.228 C 
BRANCH  23  24
HETATM   24  C10 UNL     1      14.508  50.487  62.542  1.00  0.00     0.237 C 
HETATM   25  O2  UNL     1      14.451  50.644  63.784  1.00  0.00    -0.272 OA
HETATM   26  N2  UNL     1      15.745  50.077  61.980  1.00  0.00    -0.347 N 
HETATM   27  C11 UNL     1      15.900  49.869  60.537  1.00  0.00     0.152 C 
HETATM   28  C14 UNL     1      16.911  49.847  62.790  1.00  0.00     0.152 C 
HETATM   29  C12 UNL     1      17.124  50.697  60.144  1.00  0.00     0.187 C 
HETATM   30  O3  UNL     1      18.244  50.345  60.843  1.00  0.00    -0.388 OA
HETATM   31  C13 UNL     1      18.154  50.467  62.199  1.00  0.00     0.187 C 
ENDBRANCH  23  24
ENDBRANCH  21  23
ENDBRANCH   6  19
BRANCH  13  32
HETATM   32  O4  UNL     1       6.746  41.555  59.252  1.00  0.00    -0.283 OA
BRANCH  32  33
HETATM   33  C23 UNL     1       5.501  41.589  58.709  1.00  0.00     0.259 C 
HETATM   34  C24 UNL     1       4.330  40.928  59.384  1.00  0.00     0.126 C 
HETATM   35  O5  UNL     1       5.283  42.169  57.630  1.00  0.00    -0.265 OA
ENDBRANCH  32  33
ENDBRANCH  13  32
TORSDOF 5
ENDMDL
MODEL 4
REMARK VINA RESULT: -7.322145381      1.639      2.221
REMARK  5 active torsions:
REMARK  status: ('A' for Active; 'I' for Inactive)
REMARK    1  A    between atoms: C6_6  and  C7_7 
REMARK       I    between atoms: C7_7  and  N1_9 
REMARK    2  A    between atoms: N1_9  and  C9_11 
REMARK    3  A    between atoms: C9_11  and  C10_12 
REMARK       I    between atoms: C10_12  and  N2_14 
REMARK    4  A    between atoms: C21_26  and  O4_28 
REMARK    5  A    between atoms: O4_28  and  C23_29 
ROOT
HETATM    1  C1  UNL     1      14.960  47.417  66.026  1.00  0.00     0.015 C 
HETATM    2  C2  UNL     1      14.960  48.180  64.953  1.00  0.00    -0.072 C 
HETATM    3  C3  UNL     1      13.961  47.955  63.842  1.00  0.00     0.044 C 
HETATM    4  C4  UNL     1      13.570  49.185  63.119  1.00  0.00    -0.024 C 
HETATM    5  C5  UNL     1      12.503  49.890  63.975  1.00  0.00     0.016 C 
HETATM    6  C6  UNL     1      12.971  48.966  61.787  1.00  0.00     0.087 C 
HETATM    7  C15 UNL     1      14.199  48.844  60.909  1.00  0.00     0.015 C 
HETATM    8  C16 UNL     1      14.853  50.184  61.290  1.00  0.00     0.007 C 
HETATM    9  C17 UNL     1      14.705  50.147  62.819  1.00  0.00     0.001 C 
HETATM   10  C18 UNL     1      15.984  49.594  63.328  1.00  0.00     0.015 C 
HETATM   11  C19 UNL     1      17.162  50.500  63.266  1.00  0.00     0.051 C 
HETATM   12  C20 UNL     1      18.073  49.902  64.275  1.00  0.00     0.019 C 
HETATM   13  C21 UNL     1      19.365  50.245  64.431  1.00  0.00     0.062 C 
HETATM   14  C22 UNL     1      19.927  51.279  63.551  1.00  0.00     0.077 C 
HETATM   15  C25 UNL     1      17.339  48.901  65.052  1.00  0.00     0.171 C 
HETATM   16  O6  UNL     1      17.861  47.996  65.729  1.00  0.00    -0.291 OA
HETATM   17  C26 UNL     1      15.921  49.259  64.813  1.00  0.00     0.048 C 
HETATM   18  C27 UNL     1      15.619  50.473  65.647  1.00  0.00     0.029 C 
ENDROOT
BRANCH   6  19
HETATM   19  C7  UNL     1      12.000  47.914  61.613  1.00  0.00     0.224 C 
HETATM   20  O1  UNL     1      12.274  46.666  61.680  1.00  0.00    -0.273 OA
HETATM   21  N1  UNL     1      10.633  48.194  61.349  1.00  0.00    -0.347 N 
HETATM   22  C8  UNL     1      10.141  49.553  61.254  1.00  0.00     0.153 C 
BRANCH  21  23
HETATM   23  C9  UNL     1       9.635  47.134  61.153  1.00  0.00     0.228 C 
BRANCH  23  24
HETATM   24  C10 UNL     1       9.388  46.956  59.703  1.00  0.00     0.237 C 
HETATM   25  O2  UNL     1      10.287  46.467  58.980  1.00  0.00    -0.272 OA
HETATM   26  N2  UNL     1       8.163  47.320  59.087  1.00  0.00    -0.347 N 
HETATM   27  C11 UNL     1       7.058  47.899  59.858  1.00  0.00     0.152 C 
HETATM   28  C14 UNL     1       7.938  47.146  57.676  1.00  0.00     0.152 C 
HETATM   29  C12 UNL     1       6.676  49.176  59.109  1.00  0.00     0.187 C 
HETATM   30  O3  UNL     1       6.333  48.941  57.807  1.00  0.00    -0.388 OA
HETATM   31  C13 UNL     1       7.300  48.357  57.041  1.00  0.00     0.187 C 
ENDBRANCH  23  24
ENDBRANCH  21  23
ENDBRANCH   6  19
BRANCH  13  32
HETATM   32  O4  UNL     1      20.106  49.617  65.403  1.00  0.00    -0.283 OA
BRANCH  32  33
HETATM   33  C23 UNL     1      21.420  49.865  65.639  1.00  0.00     0.259 C 
HETATM   34  C24 UNL     1      22.505  49.069  64.965  1.00  0.00     0.126 C 
HETATM   35  O5  UNL     1      21.777  50.763  66.423  1.00  0.00    -0.265 OA
ENDBRANCH  32  33
ENDBRANCH  13  32
TORSDOF 5
ENDMDL
MODEL 5
REMARK VINA RESULT: -7.312176064      6.595     10.075
REMARK  5 active torsions:
REMARK  status: ('A' for Active; 'I' for Inactive)
REMARK    1  A    between atoms: C6_6  and  C7_7 
REMARK       I    between atoms: C7_7  and  N1_9 
REMARK    2  A    between atoms: N1_9  and  C9_11 
REMARK    3  A    between atoms: C9_11  and  C10_12 
REMARK       I    between atoms: C10_12  and  N2_14 
REMARK    4  A    between atoms: C21_26  and  O4_28 
REMARK    5  A    between atoms: O4_28  and  C23_29 
ROOT
HETATM    1  C1  UNL     1       7.932  45.380  58.426  1.00  0.00     0.015 C 
HETATM    2  C2  UNL     1       7.540  46.504  58.992  1.00  0.00    -0.072 C 
HETATM    3  C3  UNL     1       6.737  46.489  60.271  1.00  0.00     0.044 C 
HETATM    4  C4  UNL     1       6.973  47.657  61.149  1.00  0.00    -0.024 C 
HETATM    5  C5  UNL     1       8.270  47.379  61.927  1.00  0.00     0.016 C 
HETATM    6  C6  UNL     1       5.920  47.908  62.153  1.00  0.00     0.087 C 
HETATM    7  C15 UNL     1       4.915  48.714  61.356  1.00  0.00     0.015 C 
HETATM    8  C16 UNL     1       5.872  49.826  60.892  1.00  0.00     0.007 C 
HETATM    9  C17 UNL     1       7.077  48.992  60.434  1.00  0.00     0.001 C 
HETATM   10  C18 UNL     1       6.896  48.800  58.975  1.00  0.00     0.015 C 
HETATM   11  C19 UNL     1       7.145  49.990  58.120  1.00  0.00     0.051 C 
HETATM   12  C20 UNL     1       7.402  49.377  56.791  1.00  0.00     0.019 C 
HETATM   13  C21 UNL     1       7.468  50.064  55.636  1.00  0.00     0.062 C 
HETATM   14  C22 UNL     1       7.276  51.521  55.676  1.00  0.00     0.077 C 
HETATM   15  C25 UNL     1       7.569  47.931  56.954  1.00  0.00     0.171 C 
HETATM   16  O6  UNL     1       7.461  47.091  56.041  1.00  0.00    -0.291 OA
HETATM   17  C26 UNL     1       7.874  47.785  58.397  1.00  0.00     0.048 C 
HETATM   18  C27 UNL     1       9.302  48.210  58.597  1.00  0.00     0.029 C 
ENDROOT
BRANCH   6  19
HETATM   19  C7  UNL     1       5.357  46.797  62.882  1.00  0.00     0.224 C 
HETATM   20  O1  UNL     1       4.582  45.921  62.367  1.00  0.00    -0.273 OA
HETATM   21  N1  UNL     1       5.633  46.592  64.259  1.00  0.00    -0.347 N 
HETATM   22  C8  UNL     1       6.505  47.480  65.001  1.00  0.00     0.153 C 
BRANCH  21  23
HETATM   23  C9  UNL     1       5.055  45.476  65.020  1.00  0.00     0.228 C 
BRANCH  23  24
HETATM   24  C10 UNL     1       6.005  44.339  65.020  1.00  0.00     0.237 C 
HETATM   25  O2  UNL     1       7.114  44.462  65.592  1.00  0.00    -0.272 OA
HETATM   26  N2  UNL     1       5.715  43.101  64.392  1.00  0.00    -0.347 N 
HETATM   27  C11 UNL     1       4.441  42.871  63.701  1.00  0.00     0.152 C 
HETATM   28  C14 UNL     1       6.649  42.006  64.396  1.00  0.00     0.152 C 
HETATM   29  C12 UNL     1       4.828  42.356  62.314  1.00  0.00     0.187 C 
HETATM   30  O3  UNL     1       5.601  41.231  62.366  1.00  0.00    -0.388 OA
HETATM   31  C13 UNL     1       6.783  41.359  63.038  1.00  0.00     0.187 C 
ENDBRANCH  23  24
ENDBRANCH  21  23
ENDBRANCH   6  19
BRANCH  13  32
HETATM   32  O4  UNL     1       7.712  49.381  54.470  1.00  0.00    -0.283 OA
BRANCH  32  33
HETATM   33  C23 UNL     1       8.683  49.713  53.581  1.00  0.00     0.259 C 
HETATM   34  C24 UNL     1       8.572  50.941  52.717  1.00  0.00     0.126 C 
HETATM   35  O5  UNL     1       9.704  49.014  53.447  1.00  0.00    -0.265 OA
ENDBRANCH  32  33
ENDBRANCH  13  32
TORSDOF 5
ENDMDL
