MODEL 1
REMARK VINA RESULT: -7.226966202      0.000      0.000
REMARK  5 active torsions:
REMARK  status: ('A' for Active; 'I' for Inactive)
REMARK    1  A    between atoms: N1_2  and  C3_4 
REMARK    2  A    between atoms: N2_9  and  O1_10 
REMARK    3  A    between atoms: N3_19  and  C15_20 
REMARK    4  A    between atoms: C15_20  and  C16_21 
REMARK    5  A    between atoms: N4_28  and  C21_29 
ROOT
HETATM    1  C3  UNL     1       8.253  49.863  62.012  1.00  0.00     0.118 A 
HETATM    2  C4  UNL     1       8.980  50.787  62.714  1.00  0.00     0.038 A 
HETATM    3  C5  UNL     1       8.313  51.774  63.448  1.00  0.00     0.019 A 
HETATM    4  C6  UNL     1       9.014  52.712  64.161  1.00  0.00     0.021 A 
HETATM    5  C7  UNL     1      10.382  52.664  64.142  1.00  0.00     0.123 A 
HETATM    6  N2  UNL     1      11.046  51.697  63.423  1.00  0.00    -0.234 N 
HETATM    7  C8  UNL     1      10.377  50.787  62.732  1.00  0.00     0.088 A 
HETATM    8  C9  UNL     1      11.042  49.808  62.006  1.00  0.00     0.021 A 
HETATM    9  C10 UNL     1      12.406  49.760  61.973  1.00  0.00     0.016 A 
HETATM   10  C11 UNL     1      13.046  48.766  61.220  1.00  0.00     0.001 A 
HETATM   11  C12 UNL     1      12.288  47.857  60.529  1.00  0.00     0.002 A 
HETATM   12  C13 UNL     1      10.914  47.893  60.554  1.00  0.00     0.030 A 
HETATM   13  C14 UNL     1      10.261  48.869  61.292  1.00  0.00     0.049 A 
HETATM   14  N3  UNL     1       8.913  48.920  61.313  1.00  0.00    -0.326 N 
ENDROOT
BRANCH  14  15
HETATM   15  C15 UNL     1       8.143  47.984  60.556  1.00  0.00     0.188 C 
BRANCH  15  16
HETATM   16  C16 UNL     1       8.037  48.213  59.112  1.00  0.00     0.039 A 
HETATM   17  C17 UNL     1       7.972  49.445  58.573  1.00  0.00     0.083 A 
HETATM   18  C18 UNL     1       7.840  49.654  57.197  1.00  0.00     0.192 A 
HETATM   19  O2  UNL     1       7.782  50.808  56.721  1.00  0.00    -0.287 OA
HETATM   20  C19 UNL     1       7.778  48.552  56.388  1.00  0.00     0.076 A 
HETATM   21 BR1  UNL     1       7.599  48.821  54.494  1.00  0.00    -0.045 Br
HETATM   22  C20 UNL     1       7.848  47.318  56.954  1.00  0.00     0.121 A 
HETATM   23  N4  UNL     1       7.972  47.136  58.273  1.00  0.00    -0.317 N 
BRANCH  23  24
HETATM   24  C21 UNL     1       8.034  45.784  58.779  1.00  0.00     0.080 A 
HETATM   25  C22 UNL     1       7.032  44.854  58.783  1.00  0.00     0.038 A 
HETATM   26  C23 UNL     1       7.301  43.653  59.303  1.00  0.00     0.010 A 
HETATM   27  C24 UNL     1       8.563  43.445  59.794  1.00  0.00     0.052 A 
HETATM   28  S1  UNL     1       9.327  44.943  59.508  1.00  0.00    -0.084 SA
ENDBRANCH  23  24
ENDBRANCH  15  16
ENDBRANCH  14  15
BRANCH   1  29
HETATM   29  N1  UNL     1       6.827  49.948  62.057  1.00  0.00    -0.375 N 
HETATM   30  C1  UNL     1       6.100  49.134  63.015  1.00  0.00     0.150 C 
HETATM   31  C2  UNL     1       6.045  50.802  61.190  1.00  0.00     0.150 C 
ENDBRANCH   1  29
BRANCH   6  32
HETATM   32  O1  UNL     1      12.384  51.759  63.489  1.00  0.00    -0.283 OA
ATOM     33  H1  UNL     1      12.821  50.922  63.594  1.00  0.00     0.245 HD
ENDBRANCH   6  32
TORSDOF 5
ENDMDL
MODEL 2
REMARK VINA RESULT: -7.202730450      7.477     10.515
REMARK  5 active torsions:
REMARK  status: ('A' for Active; 'I' for Inactive)
REMARK    1  A    between atoms: N1_2  and  C3_4 
REMARK    2  A    between atoms: N2_9  and  O1_10 
REMARK    3  A    between atoms: N3_19  and  C15_20 
REMARK    4  A    between atoms: C15_20  and  C16_21 
REMARK    5  A    between atoms: N4_28  and  C21_29 
ROOT
HETATM    1  C3  UNL     1      18.405  50.500  64.033  1.00  0.00     0.118 A 
HETATM    2  C4  UNL     1      19.015  50.790  62.842  1.00  0.00     0.038 A 
HETATM    3  C5  UNL     1      20.333  51.258  62.841  1.00  0.00     0.019 A 
HETATM    4  C6  UNL     1      20.971  51.556  61.664  1.00  0.00     0.021 A 
HETATM    5  C7  UNL     1      20.291  51.385  60.487  1.00  0.00     0.123 A 
HETATM    6  N2  UNL     1      18.994  50.925  60.480  1.00  0.00    -0.234 N 
HETATM    7  C8  UNL     1      18.371  50.635  61.612  1.00  0.00     0.088 A 
HETATM    8  C9  UNL     1      17.063  50.171  61.610  1.00  0.00     0.021 A 
HETATM    9  C10 UNL     1      16.375  50.009  60.441  1.00  0.00     0.016 A 
HETATM   10  C11 UNL     1      15.051  49.549  60.476  1.00  0.00     0.001 A 
HETATM   11  C12 UNL     1      14.470  49.268  61.685  1.00  0.00     0.002 A 
HETATM   12  C13 UNL     1      15.152  49.426  62.868  1.00  0.00     0.030 A 
HETATM   13  C14 UNL     1      16.462  49.880  62.857  1.00  0.00     0.049 A 
HETATM   14  N3  UNL     1      17.135  50.050  64.014  1.00  0.00    -0.326 N 
ENDROOT
BRANCH  14  15
HETATM   15  C15 UNL     1      16.498  49.785  65.265  1.00  0.00     0.188 C 
BRANCH  15  16
HETATM   16  C16 UNL     1      16.291  48.380  65.629  1.00  0.00     0.039 A 
HETATM   17  C17 UNL     1      17.204  47.422  65.382  1.00  0.00     0.083 A 
HETATM   18  C18 UNL     1      16.985  46.079  65.705  1.00  0.00     0.192 A 
HETATM   19  O2  UNL     1      17.849  45.208  65.465  1.00  0.00    -0.287 OA
HETATM   20  C19 UNL     1      15.794  45.751  66.293  1.00  0.00     0.076 A 
HETATM   21 BR1  UNL     1      15.479  43.910  66.745  1.00  0.00    -0.045 Br
HETATM   22  C20 UNL     1      14.889  46.735  66.534  1.00  0.00     0.121 A 
HETATM   23  N4  UNL     1      15.113  48.014  66.218  1.00  0.00    -0.317 N 
BRANCH  23  24
HETATM   24  C21 UNL     1      14.086  48.988  66.511  1.00  0.00     0.080 A 
HETATM   25  C22 UNL     1      12.970  49.263  65.772  1.00  0.00     0.038 A 
HETATM   26  C23 UNL     1      12.141  50.207  66.225  1.00  0.00     0.010 A 
HETATM   27  C24 UNL     1      12.474  50.829  67.400  1.00  0.00     0.052 A 
HETATM   28  S1  UNL     1      13.938  50.065  67.825  1.00  0.00    -0.084 SA
ENDBRANCH  23  24
ENDBRANCH  15  16
ENDBRANCH  14  15
BRANCH   1  29
HETATM   29  N1  UNL     1      19.148  50.693  65.239  1.00  0.00    -0.375 N 
HETATM   30  C1  UNL     1      19.065  51.970  65.924  1.00  0.00     0.150 C 
HETATM   31  C2  UNL     1      19.998  49.682  65.829  1.00  0.00     0.150 C 
ENDBRANCH   1  29
BRANCH   6  32
HETATM   32  O1  UNL     1      18.444  50.801  59.264  1.00  0.00    -0.283 OA
ATOM     33  H1  UNL     1      18.840  51.337  58.587  1.00  0.00     0.245 HD
ENDBRANCH   6  32
TORSDOF 5
ENDMDL
MODEL 3
REMARK VINA RESULT: -7.197054376      6.906     10.128
REMARK  5 active torsions:
REMARK  status: ('A' for Active; 'I' for Inactive)
REMARK    1  A    between atoms: N1_2  and  C3_4 
REMARK    2  A    between atoms: N2_9  and  O1_10 
REMARK    3  A    between atoms: N3_19  and  C15_20 
REMARK    4  A    between atoms: C15_20  and  C16_21 
REMARK    5  A    between atoms: N4_28  and  C21_29 
ROOT
HETATM    1  C3  UNL     1      18.368  50.523  64.481  1.00  0.00     0.118 A 
HETATM    2  C4  UNL     1      19.387  50.926  63.659  1.00  0.00     0.038 A 
HETATM    3  C5  UNL     1      20.590  51.366  64.221  1.00  0.00     0.019 A 
HETATM    4  C6  UNL     1      21.628  51.775  63.424  1.00  0.00     0.021 A 
HETATM    5  C7  UNL     1      21.465  51.743  62.065  1.00  0.00     0.123 A 
HETATM    6  N2  UNL     1      20.284  51.311  61.504  1.00  0.00    -0.234 N 
HETATM    7  C8  UNL     1      19.277  50.915  62.266  1.00  0.00     0.088 A 
HETATM    8  C9  UNL     1      18.084  50.478  61.706  1.00  0.00     0.021 A 
HETATM    9  C10 UNL     1      17.910  50.454  60.352  1.00  0.00     0.016 A 
HETATM   10  C11 UNL     1      16.689  50.017  59.820  1.00  0.00     0.001 A 
HETATM   11  C12 UNL     1      15.689  49.622  60.670  1.00  0.00     0.002 A 
HETATM   12  C13 UNL     1      15.852  49.641  62.034  1.00  0.00     0.030 A 
HETATM   13  C14 UNL     1      17.053  50.069  62.583  1.00  0.00     0.049 A 
HETATM   14  N3  UNL     1      17.217  50.102  63.921  1.00  0.00    -0.326 N 
ENDROOT
BRANCH  14  15
HETATM   15  C15 UNL     1      16.150  49.718  64.790  1.00  0.00     0.188 C 
BRANCH  15  16
HETATM   16  C16 UNL     1      15.887  48.283  64.937  1.00  0.00     0.039 A 
HETATM   17  C17 UNL     1      16.870  47.370  65.040  1.00  0.00     0.083 A 
HETATM   18  C18 UNL     1      16.610  46.000  65.150  1.00  0.00     0.192 A 
HETATM   19  O2  UNL     1      17.541  45.172  65.245  1.00  0.00    -0.287 OA
HETATM   20  C19 UNL     1      15.303  45.597  65.150  1.00  0.00     0.076 A 
HETATM   21 BR1  UNL     1      14.928  43.718  65.301  1.00  0.00    -0.045 Br
HETATM   22  C20 UNL     1      14.327  46.537  65.046  1.00  0.00     0.121 A 
HETATM   23  N4  UNL     1      14.592  47.843  64.941  1.00  0.00    -0.317 N 
BRANCH  23  24
HETATM   24  C21 UNL     1      13.485  48.766  64.830  1.00  0.00     0.080 A 
HETATM   25  C22 UNL     1      12.774  49.076  63.705  1.00  0.00     0.038 A 
HETATM   26  C23 UNL     1      11.780  49.960  63.822  1.00  0.00     0.010 A 
HETATM   27  C24 UNL     1      11.549  50.491  65.064  1.00  0.00     0.052 A 
HETATM   28  S1  UNL     1      12.735  49.728  66.023  1.00  0.00    -0.084 SA
ENDBRANCH  23  24
ENDBRANCH  15  16
ENDBRANCH  14  15
BRANCH   1  29
HETATM   29  N1  UNL     1      18.578  50.573  65.894  1.00  0.00    -0.375 N 
HETATM   30  C1  UNL     1      18.175  51.760  66.627  1.00  0.00     0.150 C 
HETATM   31  C2  UNL     1      19.182  49.501  66.654  1.00  0.00     0.150 C 
ENDBRANCH   1  29
BRANCH   6  32
HETATM   32  O1  UNL     1      20.254  51.327  60.164  1.00  0.00    -0.283 OA
ATOM     33  H1  UNL     1      19.534  51.816  59.784  1.00  0.00     0.245 HD
ENDBRANCH   6  32
TORSDOF 5
ENDMDL
MODEL 4
REMARK VINA RESULT: -7.011986459      3.851      7.022
REMARK  5 active torsions:
REMARK  status: ('A' for Active; 'I' for Inactive)
REMARK    1  A    between atoms: N1_2  and  C3_4 
REMARK    2  A    between atoms: N2_9  and  O1_10 
REMARK    3  A    between atoms: N3_19  and  C15_20 
REMARK    4  A    between atoms: C15_20  and  C16_21 
REMARK    5  A    between atoms: N4_28  and  C21_29 
ROOT
HETATM    1  C3  UNL     1       6.055  47.473  60.945  1.00  0.00     0.118 A 
HETATM    2  C4  UNL     1       6.690  46.323  60.561  1.00  0.00     0.038 A 
HETATM    3  C5  UNL     1       6.643  45.200  61.394  1.00  0.00     0.019 A 
HETATM    4  C6  UNL     1       7.269  44.034  61.037  1.00  0.00     0.021 A 
HETATM    5  C7  UNL     1       7.942  43.988  59.845  1.00  0.00     0.123 A 
HETATM    6  N2  UNL     1       7.993  45.088  59.019  1.00  0.00    -0.234 N 
HETATM    7  C8  UNL     1       7.391  46.218  59.357  1.00  0.00     0.088 A 
HETATM    8  C9  UNL     1       7.438  47.330  58.528  1.00  0.00     0.021 A 
HETATM    9  C10 UNL     1       8.117  47.296  57.342  1.00  0.00     0.016 A 
HETATM   10  C11 UNL     1       8.155  48.441  56.535  1.00  0.00     0.001 A 
HETATM   11  C12 UNL     1       7.509  49.577  56.949  1.00  0.00     0.002 A 
HETATM   12  C13 UNL     1       6.822  49.624  58.138  1.00  0.00     0.030 A 
HETATM   13  C14 UNL     1       6.772  48.503  58.954  1.00  0.00     0.049 A 
HETATM   14  N3  UNL     1       6.111  48.543  60.129  1.00  0.00    -0.326 N 
ENDROOT
BRANCH  14  15
HETATM   15  C15 UNL     1       5.474  49.748  60.558  1.00  0.00     0.188 C 
BRANCH  15  16
HETATM   16  C16 UNL     1       6.195  50.582  61.525  1.00  0.00     0.039 A 
HETATM   17  C17 UNL     1       7.537  50.576  61.633  1.00  0.00     0.083 A 
HETATM   18  C18 UNL     1       8.214  51.352  62.578  1.00  0.00     0.192 A 
HETATM   19  O2  UNL     1       9.462  51.330  62.658  1.00  0.00    -0.287 OA
HETATM   20  C19 UNL     1       7.467  52.137  63.413  1.00  0.00     0.076 A 
HETATM   21 BR1  UNL     1       8.383  53.211  64.717  1.00  0.00    -0.045 Br
HETATM   22  C20 UNL     1       6.114  52.128  63.285  1.00  0.00     0.121 A 
HETATM   23  N4  UNL     1       5.481  51.379  62.376  1.00  0.00    -0.317 N 
BRANCH  23  24
HETATM   24  C21 UNL     1       4.038  51.434  62.320  1.00  0.00     0.080 A 
HETATM   25  C22 UNL     1       3.152  50.640  62.992  1.00  0.00     0.038 A 
HETATM   26  C23 UNL     1       1.849  50.860  62.798  1.00  0.00     0.010 A 
HETATM   27  C24 UNL     1       1.499  51.868  61.938  1.00  0.00     0.052 A 
HETATM   28  S1  UNL     1       3.013  52.470  61.434  1.00  0.00    -0.084 SA
ENDBRANCH  23  24
ENDBRANCH  15  16
ENDBRANCH  14  15
BRANCH   1  29
HETATM   29  N1  UNL     1       5.364  47.480  62.197  1.00  0.00    -0.375 N 
HETATM   30  C1  UNL     1       3.935  47.225  62.217  1.00  0.00     0.150 C 
HETATM   31  C2  UNL     1       6.007  47.736  63.467  1.00  0.00     0.150 C 
ENDBRANCH   1  29
BRANCH   6  32
HETATM   32  O1  UNL     1       8.681  44.912  57.882  1.00  0.00    -0.283 OA
ATOM     33  H1  UNL     1       8.349  45.393  57.133  1.00  0.00     0.245 HD
ENDBRANCH   6  32
TORSDOF 5
ENDMDL
MODEL 5
REMARK VINA RESULT: -6.919831511      4.433      7.344
REMARK  5 active torsions:
REMARK  status: ('A' for Active; 'I' for Inactive)
REMARK    1  A    between atoms: N1_2  and  C3_4 
REMARK    2  A    between atoms: N2_9  and  O1_10 
REMARK    3  A    between atoms: N3_19  and  C15_20 
REMARK    4  A    between atoms: C15_20  and  C16_21 
REMARK    5  A    between atoms: N4_28  and  C21_29 
ROOT
HETATM    1  C3  UNL     1      14.522  49.727  62.357  1.00  0.00     0.118 A 
HETATM    2  C4  UNL     1      15.770  49.993  61.860  1.00  0.00     0.038 A 
HETATM    3  C5  UNL     1      15.951  50.099  60.477  1.00  0.00     0.019 A 
HETATM    4  C6  UNL     1      17.188  50.365  59.950  1.00  0.00     0.021 A 
HETATM    5  C7  UNL     1      18.246  50.526  60.805  1.00  0.00     0.123 A 
HETATM    6  N2  UNL     1      18.076  50.423  62.167  1.00  0.00    -0.234 N 
HETATM    7  C8  UNL     1      16.885  50.167  62.684  1.00  0.00     0.088 A 
HETATM    8  C9  UNL     1      16.707  50.063  64.057  1.00  0.00     0.021 A 
HETATM    9  C10 UNL     1      17.759  50.212  64.916  1.00  0.00     0.016 A 
HETATM   10  C11 UNL     1      17.547  50.088  66.296  1.00  0.00     0.001 A 
HETATM   11  C12 UNL     1      16.286  49.821  66.760  1.00  0.00     0.002 A 
HETATM   12  C13 UNL     1      15.219  49.670  65.907  1.00  0.00     0.030 A 
HETATM   13  C14 UNL     1      15.406  49.788  64.537  1.00  0.00     0.049 A 
HETATM   14  N3  UNL     1      14.367  49.629  63.691  1.00  0.00    -0.326 N 
ENDROOT
BRANCH  14  15
HETATM   15  C15 UNL     1      13.067  49.316  64.195  1.00  0.00     0.188 C 
BRANCH  15  16
HETATM   16  C16 UNL     1      12.099  50.415  64.284  1.00  0.00     0.039 A 
HETATM   17  C17 UNL     1      12.441  51.656  64.674  1.00  0.00     0.083 A 
HETATM   18  C18 UNL     1      11.505  52.689  64.784  1.00  0.00     0.192 A 
HETATM   19  O2  UNL     1      11.848  53.835  65.149  1.00  0.00    -0.287 OA
HETATM   20  C19 UNL     1      10.202  52.405  64.480  1.00  0.00     0.076 A 
HETATM   21 BR1  UNL     1       8.904  53.815  64.625  1.00  0.00    -0.045 Br
HETATM   22  C20 UNL     1       9.881  51.145  64.086  1.00  0.00     0.121 A 
HETATM   23  N4  UNL     1      10.788  50.167  63.987  1.00  0.00    -0.317 N 
BRANCH  23  24
HETATM   24  C21 UNL     1      10.347  48.858  63.564  1.00  0.00     0.080 A 
HETATM   25  C22 UNL     1       9.855  48.505  62.338  1.00  0.00     0.038 A 
HETATM   26  C23 UNL     1       9.503  47.230  62.153  1.00  0.00     0.010 A 
HETATM   27  C24 UNL     1       9.664  46.370  63.208  1.00  0.00     0.052 A 
HETATM   28  S1  UNL     1      10.302  47.384  64.422  1.00  0.00    -0.084 SA
ENDBRANCH  23  24
ENDBRANCH  15  16
ENDBRANCH  14  15
BRANCH   1  29
HETATM   29  N1  UNL     1      13.445  49.564  61.431  1.00  0.00    -0.375 N 
HETATM   30  C1  UNL     1      13.116  48.232  60.957  1.00  0.00     0.150 C 
HETATM   31  C2  UNL     1      12.651  50.661  60.921  1.00  0.00     0.150 C 
ENDBRANCH   1  29
BRANCH   6  32
HETATM   32  O1  UNL     1      19.189  50.604  62.892  1.00  0.00    -0.283 OA
ATOM     33  H1  UNL     1      19.833  49.909  62.821  1.00  0.00     0.245 HD
ENDBRANCH   6  32
TORSDOF 5
ENDMDL
