MODEL 1
REMARK VINA RESULT: -7.301713552      0.000      0.000
REMARK  13 active torsions:
REMARK  status: ('A' for Active; 'I' for Inactive)
REMARK       I    between atoms: C3_5  and  N2_6 
REMARK       I    between atoms: C3_5  and  N4_15 
REMARK    1  A    between atoms: N2_6  and  C4_8 
REMARK    2  A    between atoms: C4_8  and  C5_9 
REMARK    3  A    between atoms: C5_9  and  C6_10 
REMARK    4  A    between atoms: C6_10  and  N3_11 
REMARK    5  A    between atoms: N4_15  and  C10_16 
REMARK    6  A    between atoms: N4_15  and  C13_23 
REMARK    7  A    between atoms: C10_16  and  C11_17 
REMARK    8  A    between atoms: C11_17  and  C12_18 
REMARK    9  A    between atoms: C12_18  and  N5_19 
REMARK   10  A    between atoms: C13_23  and  C14_24 
REMARK   11  A    between atoms: C14_24  and  O1_25 
REMARK   12  A    between atoms: C14_24  and  C15_27 
REMARK   13  A    between atoms: C15_27  and  N6_28 
ROOT
HETATM    1  C1  UNL     1      19.661  -6.331  18.167  1.00  0.00     0.037 C 
HETATM    2  C2  UNL     1      18.796  -6.713  18.897  1.00  0.00     0.001 C 
HETATM    3  N1  UNL     1      17.843  -7.151  19.744  1.00  0.00    -0.292 N 
ATOM      4  H1  UNL     1      18.193  -7.254  20.696  1.00  0.00     0.178 HD
HETATM    5  C3  UNL     1      16.638  -7.462  19.651  1.00  0.00     0.163 C 
HETATM    6  N2  UNL     1      15.859  -7.429  18.479  1.00  0.00    -0.366 N 
ATOM      7  H2  UNL     1      14.850  -7.376  18.615  1.00  0.00     0.162 HD
HETATM    8  N4  UNL     1      15.950  -7.911  20.854  1.00  0.00    -0.248 NA
ENDROOT
BRANCH   6   9
HETATM    9  C4  UNL     1      16.305  -7.460  17.125  1.00  0.00     0.124 C 
BRANCH   9  10
HETATM   10  C5  UNL     1      15.109  -7.465  16.157  1.00  0.00     0.047 C 
BRANCH  10  11
HETATM   11  C6  UNL     1      15.357  -8.449  15.033  1.00  0.00     0.237 C 
BRANCH  11  12
HETATM   12  N3  UNL     1      15.339  -7.818  13.745  1.00  0.00    -0.079 N 
HETATM   13  C7  UNL     1      14.957  -8.817  12.756  1.00  0.00     0.271 C 
HETATM   14  C8  UNL     1      14.420  -6.716  13.642  1.00  0.00     0.271 C 
HETATM   15  C9  UNL     1      16.674  -7.362  13.350  1.00  0.00     0.271 C 
ENDBRANCH  11  12
ENDBRANCH  10  11
ENDBRANCH   9  10
ENDBRANCH   6   9
BRANCH   8  16
HETATM   16  C10 UNL     1      16.832  -8.976  21.358  1.00  0.00     0.100 C 
BRANCH  16  17
HETATM   17  C11 UNL     1      17.020  -8.928  22.838  1.00  0.00     0.042 C 
BRANCH  17  18
HETATM   18  C12 UNL     1      18.485  -8.950  23.223  1.00  0.00     0.230 C 
BRANCH  18  19
HETATM   19  N5  UNL     1      18.705  -7.889  24.212  1.00  0.00    -0.079 N 
ATOM     20  H53 UNL     1      19.630  -7.931  24.639  1.00  0.00     0.274 HD
ATOM     21  H52 UNL     1      18.793  -6.965  23.788  1.00  0.00     0.274 HD
ATOM     22  H51 UNL     1      17.951  -7.941  24.896  1.00  0.00     0.274 HD
ENDBRANCH  18  19
ENDBRANCH  17  18
ENDBRANCH  16  17
ENDBRANCH   8  16
BRANCH   8  23
HETATM   23  C13 UNL     1      15.950  -6.873  21.875  1.00  0.00     0.164 C 
BRANCH  23  24
HETATM   24  C14 UNL     1      14.560  -6.361  22.153  1.00  0.00     0.080 C 
BRANCH  24  25
HETATM   25  O1  UNL     1      13.931  -7.121  23.101  1.00  0.00    -0.362 OA
ATOM     26  H1  UNL     1      14.326  -7.004  23.956  1.00  0.00     0.217 HD
ENDBRANCH  24  25
BRANCH  24  27
HETATM   27  C15 UNL     1      13.788  -5.963  20.977  1.00  0.00     0.235 C 
BRANCH  27  28
HETATM   28  N6  UNL     1      13.739  -4.622  20.544  1.00  0.00    -0.049 N 
HETATM   29  C16 UNL     1      13.502  -3.846  21.789  1.00  0.00     0.278 C 
HETATM   30  C17 UNL     1      12.578  -4.306  19.725  1.00  0.00     0.242 C 
HETATM   31  C18 UNL     1      12.852  -3.258  18.693  1.00  0.00     0.028 C 
HETATM   32  C19 UNL     1      13.700  -2.115  19.174  1.00  0.00     0.003 C 
HETATM   33  C20 UNL     1      14.826  -2.533  20.070  1.00  0.00     0.028 C 
HETATM   34  C21 UNL     1      14.945  -4.065  19.996  1.00  0.00     0.242 C 
ENDBRANCH  27  28
ENDBRANCH  24  27
ENDBRANCH  23  24
ENDBRANCH   8  23
TORSDOF 13
ENDMDL
MODEL 2
REMARK VINA RESULT: -7.255519950      1.774      5.174
REMARK  13 active torsions:
REMARK  status: ('A' for Active; 'I' for Inactive)
REMARK       I    between atoms: C3_5  and  N2_6 
REMARK       I    between atoms: C3_5  and  N4_15 
REMARK    1  A    between atoms: N2_6  and  C4_8 
REMARK    2  A    between atoms: C4_8  and  C5_9 
REMARK    3  A    between atoms: C5_9  and  C6_10 
REMARK    4  A    between atoms: C6_10  and  N3_11 
REMARK    5  A    between atoms: N4_15  and  C10_16 
REMARK    6  A    between atoms: N4_15  and  C13_23 
REMARK    7  A    between atoms: C10_16  and  C11_17 
REMARK    8  A    between atoms: C11_17  and  C12_18 
REMARK    9  A    between atoms: C12_18  and  N5_19 
REMARK   10  A    between atoms: C13_23  and  C14_24 
REMARK   11  A    between atoms: C14_24  and  O1_25 
REMARK   12  A    between atoms: C14_24  and  C15_27 
REMARK   13  A    between atoms: C15_27  and  N6_28 
ROOT
HETATM    1  C1  UNL     1      12.306  -6.237  16.063  1.00  0.00     0.037 C 
HETATM    2  C2  UNL     1      12.747  -6.088  17.163  1.00  0.00     0.001 C 
HETATM    3  N1  UNL     1      13.213  -5.910  18.415  1.00  0.00    -0.292 N 
ATOM      4  H1  UNL     1      12.460  -5.831  19.097  1.00  0.00     0.178 HD
HETATM    5  C3  UNL     1      14.339  -5.820  18.946  1.00  0.00     0.163 C 
HETATM    6  N2  UNL     1      15.579  -5.890  18.283  1.00  0.00    -0.366 N 
ATOM      7  H2  UNL     1      16.381  -6.139  18.861  1.00  0.00     0.162 HD
HETATM    8  N4  UNL     1      14.404  -5.614  20.387  1.00  0.00    -0.248 NA
ENDROOT
BRANCH   6   9
HETATM    9  C4  UNL     1      15.853  -5.655  16.904  1.00  0.00     0.124 C 
BRANCH   9  10
HETATM   10  C5  UNL     1      16.582  -6.858  16.280  1.00  0.00     0.047 C 
BRANCH  10  11
HETATM   11  C6  UNL     1      15.576  -7.898  15.833  1.00  0.00     0.237 C 
BRANCH  11  12
HETATM   12  N3  UNL     1      15.633  -8.137  14.420  1.00  0.00    -0.079 N 
HETATM   13  C7  UNL     1      15.041  -9.441  14.157  1.00  0.00     0.271 C 
HETATM   14  C8  UNL     1      14.931  -7.162  13.629  1.00  0.00     0.271 C 
HETATM   15  C9  UNL     1      17.016  -8.228  13.945  1.00  0.00     0.271 C 
ENDBRANCH  11  12
ENDBRANCH  10  11
ENDBRANCH   9  10
ENDBRANCH   6   9
BRANCH   8  16
HETATM   16  C10 UNL     1      13.521  -4.455  20.594  1.00  0.00     0.100 C 
BRANCH  16  17
HETATM   17  C11 UNL     1      14.176  -3.349  21.351  1.00  0.00     0.042 C 
BRANCH  17  18
HETATM   18  C12 UNL     1      15.541  -3.009  20.789  1.00  0.00     0.230 C 
BRANCH  18  19
HETATM   19  N5  UNL     1      16.542  -3.753  21.560  1.00  0.00    -0.079 N 
ATOM     20  H53 UNL     1      17.193  -3.144  22.056  1.00  0.00     0.274 HD
ATOM     21  H52 UNL     1      16.146  -4.221  22.376  1.00  0.00     0.274 HD
ATOM     22  H51 UNL     1      17.011  -4.397  20.923  1.00  0.00     0.274 HD
ENDBRANCH  18  19
ENDBRANCH  17  18
ENDBRANCH  16  17
ENDBRANCH   8  16
BRANCH   8  23
HETATM   23  C13 UNL     1      13.786  -6.722  21.101  1.00  0.00     0.164 C 
BRANCH  23  24
HETATM   24  C14 UNL     1      14.483  -7.005  22.407  1.00  0.00     0.080 C 
BRANCH  24  25
HETATM   25  O1  UNL     1      14.014  -6.195  23.406  1.00  0.00    -0.362 OA
ATOM     26  H1  UNL     1      13.151  -6.468  23.694  1.00  0.00     0.217 HD
ENDBRANCH  24  25
BRANCH  24  27
HETATM   27  C15 UNL     1      15.929  -7.210  22.320  1.00  0.00     0.235 C 
BRANCH  27  28
HETATM   28  N6  UNL     1      16.596  -8.130  23.154  1.00  0.00    -0.049 N 
HETATM   29  C16 UNL     1      17.477  -8.887  22.227  1.00  0.00     0.278 C 
HETATM   30  C17 UNL     1      15.731  -9.160  23.710  1.00  0.00     0.242 C 
HETATM   31  C18 UNL     1      16.157  -9.617  25.068  1.00  0.00     0.028 C 
HETATM   32  C19 UNL     1      17.640  -9.788  25.233  1.00  0.00     0.003 C 
HETATM   33  C20 UNL     1      18.449  -8.718  24.563  1.00  0.00     0.028 C 
HETATM   34  C21 UNL     1      17.488  -7.593  24.143  1.00  0.00     0.242 C 
ENDBRANCH  27  28
ENDBRANCH  24  27
ENDBRANCH  23  24
ENDBRANCH   8  23
TORSDOF 13
ENDMDL
MODEL 3
REMARK VINA RESULT: -7.242546083      3.589      6.884
REMARK  13 active torsions:
REMARK  status: ('A' for Active; 'I' for Inactive)
REMARK       I    between atoms: C3_5  and  N2_6 
REMARK       I    between atoms: C3_5  and  N4_15 
REMARK    1  A    between atoms: N2_6  and  C4_8 
REMARK    2  A    between atoms: C4_8  and  C5_9 
REMARK    3  A    between atoms: C5_9  and  C6_10 
REMARK    4  A    between atoms: C6_10  and  N3_11 
REMARK    5  A    between atoms: N4_15  and  C10_16 
REMARK    6  A    between atoms: N4_15  and  C13_23 
REMARK    7  A    between atoms: C10_16  and  C11_17 
REMARK    8  A    between atoms: C11_17  and  C12_18 
REMARK    9  A    between atoms: C12_18  and  N5_19 
REMARK   10  A    between atoms: C13_23  and  C14_24 
REMARK   11  A    between atoms: C14_24  and  O1_25 
REMARK   12  A    between atoms: C14_24  and  C15_27 
REMARK   13  A    between atoms: C15_27  and  N6_28 
ROOT
HETATM    1  C1  UNL     1      15.596  -7.487  16.648  1.00  0.00     0.037 C 
HETATM    2  C2  UNL     1      14.950  -6.633  17.178  1.00  0.00     0.001 C 
HETATM    3  N1  UNL     1      14.238  -5.646  17.758  1.00  0.00    -0.292 N 
ATOM      4  H1  UNL     1      14.354  -4.755  17.277  1.00  0.00     0.178 HD
HETATM    5  C3  UNL     1      13.472  -5.554  18.739  1.00  0.00     0.163 C 
HETATM    6  N2  UNL     1      13.105  -6.598  19.608  1.00  0.00    -0.366 N 
ATOM      7  H2  UNL     1      12.239  -6.462  20.130  1.00  0.00     0.162 HD
HETATM    8  N4  UNL     1      12.896  -4.250  19.039  1.00  0.00    -0.248 NA
ENDROOT
BRANCH   6   9
HETATM    9  C4  UNL     1      13.792  -7.824  19.851  1.00  0.00     0.124 C 
BRANCH   9  10
HETATM   10  C5  UNL     1      14.834  -7.652  20.971  1.00  0.00     0.047 C 
BRANCH  10  11
HETATM   11  C6  UNL     1      14.537  -8.611  22.104  1.00  0.00     0.237 C 
BRANCH  11  12
HETATM   12  N3  UNL     1      15.426  -8.430  23.215  1.00  0.00    -0.079 N 
HETATM   13  C7  UNL     1      15.321  -7.047  23.659  1.00  0.00     0.271 C 
HETATM   14  C8  UNL     1      15.144  -9.281  24.340  1.00  0.00     0.271 C 
HETATM   15  C9  UNL     1      16.826  -8.612  22.820  1.00  0.00     0.271 C 
ENDBRANCH  11  12
ENDBRANCH  10  11
ENDBRANCH   9  10
ENDBRANCH   6   9
BRANCH   8  16
HETATM   16  C10 UNL     1      14.075  -3.371  19.083  1.00  0.00     0.100 C 
BRANCH  16  17
HETATM   17  C11 UNL     1      14.174  -2.588  20.350  1.00  0.00     0.042 C 
BRANCH  17  18
HETATM   18  C12 UNL     1      14.624  -3.449  21.513  1.00  0.00     0.230 C 
BRANCH  18  19
HETATM   19  N5  UNL     1      13.431  -4.067  22.101  1.00  0.00    -0.079 N 
ATOM     20  H53 UNL     1      12.608  -3.468  22.048  1.00  0.00     0.274 HD
ATOM     21  H52 UNL     1      13.071  -4.842  21.543  1.00  0.00     0.274 HD
ATOM     22  H51 UNL     1      13.661  -4.340  23.056  1.00  0.00     0.274 HD
ENDBRANCH  18  19
ENDBRANCH  17  18
ENDBRANCH  16  17
ENDBRANCH   8  16
BRANCH   8  23
HETATM   23  C13 UNL     1      12.080  -3.772  17.932  1.00  0.00     0.164 C 
BRANCH  23  24
HETATM   24  C14 UNL     1      10.615  -3.745  18.285  1.00  0.00     0.080 C 
BRANCH  24  25
HETATM   25  O1  UNL     1      10.411  -4.124  19.585  1.00  0.00    -0.362 OA
ATOM     26  H1  UNL     1      10.135  -5.031  19.640  1.00  0.00     0.217 HD
ENDBRANCH  24  25
BRANCH  24  27
HETATM   27  C15 UNL     1       9.711  -4.285  17.270  1.00  0.00     0.235 C 
BRANCH  27  28
HETATM   28  N6  UNL     1       8.659  -3.514  16.734  1.00  0.00    -0.049 N 
HETATM   29  C16 UNL     1       7.731  -4.520  16.155  1.00  0.00     0.278 C 
HETATM   30  C17 UNL     1       9.042  -2.709  15.583  1.00  0.00     0.242 C 
HETATM   31  C18 UNL     1       8.286  -1.423  15.487  1.00  0.00     0.028 C 
HETATM   32  C19 UNL     1       6.822  -1.532  15.807  1.00  0.00     0.003 C 
HETATM   33  C20 UNL     1       6.523  -2.441  16.960  1.00  0.00     0.028 C 
HETATM   34  C21 UNL     1       7.852  -2.770  17.660  1.00  0.00     0.242 C 
ENDBRANCH  27  28
ENDBRANCH  24  27
ENDBRANCH  23  24
ENDBRANCH   8  23
TORSDOF 13
ENDMDL
MODEL 4
REMARK VINA RESULT: -7.218475237      2.397      7.616
REMARK  13 active torsions:
REMARK  status: ('A' for Active; 'I' for Inactive)
REMARK       I    between atoms: C3_5  and  N2_6 
REMARK       I    between atoms: C3_5  and  N4_15 
REMARK    1  A    between atoms: N2_6  and  C4_8 
REMARK    2  A    between atoms: C4_8  and  C5_9 
REMARK    3  A    between atoms: C5_9  and  C6_10 
REMARK    4  A    between atoms: C6_10  and  N3_11 
REMARK    5  A    between atoms: N4_15  and  C10_16 
REMARK    6  A    between atoms: N4_15  and  C13_23 
REMARK    7  A    between atoms: C10_16  and  C11_17 
REMARK    8  A    between atoms: C11_17  and  C12_18 
REMARK    9  A    between atoms: C12_18  and  N5_19 
REMARK   10  A    between atoms: C13_23  and  C14_24 
REMARK   11  A    between atoms: C14_24  and  O1_25 
REMARK   12  A    between atoms: C14_24  and  C15_27 
REMARK   13  A    between atoms: C15_27  and  N6_28 
ROOT
HETATM    1  C1  UNL     1      16.098  -3.578  21.474  1.00  0.00     0.037 C 
HETATM    2  C2  UNL     1      15.232  -3.949  20.739  1.00  0.00     0.001 C 
HETATM    3  N1  UNL     1      14.251  -4.337  19.901  1.00  0.00    -0.292 N 
ATOM      4  H1  UNL     1      13.999  -3.603  19.239  1.00  0.00     0.178 HD
HETATM    5  C3  UNL     1      13.573  -5.372  19.734  1.00  0.00     0.163 C 
HETATM    6  N2  UNL     1      13.675  -6.561  20.479  1.00  0.00    -0.366 N 
ATOM      7  H2  UNL     1      13.321  -7.404  20.026  1.00  0.00     0.162 HD
HETATM    8  N4  UNL     1      12.569  -5.372  18.677  1.00  0.00    -0.248 NA
ENDROOT
BRANCH   6   9
HETATM    9  C4  UNL     1      14.212  -6.735  21.788  1.00  0.00     0.124 C 
BRANCH   9  10
HETATM   10  C5  UNL     1      15.584  -7.430  21.727  1.00  0.00     0.047 C 
BRANCH  10  11
HETATM   11  C6  UNL     1      16.390  -7.093  22.964  1.00  0.00     0.237 C 
BRANCH  11  12
HETATM   12  N3  UNL     1      17.080  -8.236  23.489  1.00  0.00    -0.079 N 
HETATM   13  C7  UNL     1      17.554  -9.034  22.367  1.00  0.00     0.271 C 
HETATM   14  C8  UNL     1      18.212  -7.911  24.315  1.00  0.00     0.271 C 
HETATM   15  C9  UNL     1      16.177  -9.110  24.242  1.00  0.00     0.271 C 
ENDBRANCH  11  12
ENDBRANCH  10  11
ENDBRANCH   9  10
ENDBRANCH   6   9
BRANCH   8  16
HETATM   16  C10 UNL     1      11.791  -4.155  18.963  1.00  0.00     0.100 C 
BRANCH  16  17
HETATM   17  C11 UNL     1      11.086  -3.618  17.763  1.00  0.00     0.042 C 
BRANCH  17  18
HETATM   18  C12 UNL     1       9.657  -4.114  17.677  1.00  0.00     0.230 C 
BRANCH  18  19
HETATM   19  N5  UNL     1       9.637  -5.264  16.766  1.00  0.00    -0.079 N 
ATOM     20  H53 UNL     1       9.944  -6.128  17.212  1.00  0.00     0.274 HD
ATOM     21  H52 UNL     1       8.691  -5.564  16.527  1.00  0.00     0.274 HD
ATOM     22  H51 UNL     1      10.194  -5.022  15.947  1.00  0.00     0.274 HD
ENDBRANCH  18  19
ENDBRANCH  17  18
ENDBRANCH  16  17
ENDBRANCH   8  16
BRANCH   8  23
HETATM   23  C13 UNL     1      13.182  -5.160  17.374  1.00  0.00     0.164 C 
BRANCH  23  24
HETATM   24  C14 UNL     1      13.114  -6.396  16.514  1.00  0.00     0.080 C 
BRANCH  24  25
HETATM   25  O1  UNL     1      12.016  -7.154  16.820  1.00  0.00    -0.362 OA
ATOM     26  H1  UNL     1      11.926  -7.887  16.222  1.00  0.00     0.217 HD
ENDBRANCH  24  25
BRANCH  24  27
HETATM   27  C15 UNL     1      14.384  -7.091  16.308  1.00  0.00     0.235 C 
BRANCH  27  28
HETATM   28  N6  UNL     1      15.085  -7.002  15.088  1.00  0.00    -0.049 N 
HETATM   29  C16 UNL     1      15.536  -8.394  14.826  1.00  0.00     0.278 C 
HETATM   30  C17 UNL     1      16.331  -6.256  15.173  1.00  0.00     0.242 C 
HETATM   31  C18 UNL     1      16.667  -5.524  13.913  1.00  0.00     0.028 C 
HETATM   32  C19 UNL     1      16.401  -6.296  12.652  1.00  0.00     0.003 C 
HETATM   33  C20 UNL     1      15.131  -7.091  12.688  1.00  0.00     0.028 C 
HETATM   34  C21 UNL     1      14.328  -6.643  13.921  1.00  0.00     0.242 C 
ENDBRANCH  27  28
ENDBRANCH  24  27
ENDBRANCH  23  24
ENDBRANCH   8  23
TORSDOF 13
ENDMDL
MODEL 5
REMARK VINA RESULT: -7.194632790      6.552     10.062
REMARK  13 active torsions:
REMARK  status: ('A' for Active; 'I' for Inactive)
REMARK       I    between atoms: C3_5  and  N2_6 
REMARK       I    between atoms: C3_5  and  N4_15 
REMARK    1  A    between atoms: N2_6  and  C4_8 
REMARK    2  A    between atoms: C4_8  and  C5_9 
REMARK    3  A    between atoms: C5_9  and  C6_10 
REMARK    4  A    between atoms: C6_10  and  N3_11 
REMARK    5  A    between atoms: N4_15  and  C10_16 
REMARK    6  A    between atoms: N4_15  and  C13_23 
REMARK    7  A    between atoms: C10_16  and  C11_17 
REMARK    8  A    between atoms: C11_17  and  C12_18 
REMARK    9  A    between atoms: C12_18  and  N5_19 
REMARK   10  A    between atoms: C13_23  and  C14_24 
REMARK   11  A    between atoms: C14_24  and  O1_25 
REMARK   12  A    between atoms: C14_24  and  C15_27 
REMARK   13  A    between atoms: C15_27  and  N6_28 
ROOT
HETATM    1  C1  UNL     1      12.578  -6.446  16.224  1.00  0.00     0.037 C 
HETATM    2  C2  UNL     1      11.642  -5.707  16.289  1.00  0.00     0.001 C 
HETATM    3  N1  UNL     1      10.579  -4.880  16.330  1.00  0.00    -0.292 N 
ATOM      4  H1  UNL     1       9.952  -5.022  15.538  1.00  0.00     0.178 HD
HETATM    5  C3  UNL     1      10.171  -3.984  17.097  1.00  0.00     0.163 C 
HETATM    6  N2  UNL     1      10.803  -3.549  18.277  1.00  0.00    -0.366 N 
ATOM      7  H2  UNL     1      10.206  -3.076  18.955  1.00  0.00     0.162 HD
HETATM    8  N4  UNL     1       8.928  -3.303  16.758  1.00  0.00    -0.248 NA
ENDROOT
BRANCH   6   9
HETATM    9  C4  UNL     1      12.175  -3.686  18.642  1.00  0.00     0.124 C 
BRANCH   9  10
HETATM   10  C5  UNL     1      12.349  -4.793  19.697  1.00  0.00     0.047 C 
BRANCH  10  11
HETATM   11  C6  UNL     1      13.227  -4.296  20.827  1.00  0.00     0.237 C 
BRANCH  11  12
HETATM   12  N3  UNL     1      14.122  -5.310  21.305  1.00  0.00    -0.079 N 
HETATM   13  C7  UNL     1      15.468  -4.971  20.863  1.00  0.00     0.271 C 
HETATM   14  C8  UNL     1      14.145  -5.448  22.737  1.00  0.00     0.271 C 
HETATM   15  C9  UNL     1      13.827  -6.614  20.706  1.00  0.00     0.271 C 
ENDBRANCH  11  12
ENDBRANCH  10  11
ENDBRANCH   9  10
ENDBRANCH   6   9
BRANCH   8  16
HETATM   16  C10 UNL     1       9.155  -2.878  15.367  1.00  0.00     0.100 C 
BRANCH  16  17
HETATM   17  C11 UNL     1       8.636  -1.509  15.082  1.00  0.00     0.042 C 
BRANCH  17  18
HETATM   18  C12 UNL     1       7.374  -1.544  14.244  1.00  0.00     0.230 C 
BRANCH  18  19
HETATM   19  N5  UNL     1       7.563  -2.546  13.190  1.00  0.00    -0.079 N 
ATOM     20  H53 UNL     1       6.780  -3.195  13.116  1.00  0.00     0.274 HD
ATOM     21  H52 UNL     1       7.501  -2.151  12.252  1.00  0.00     0.274 HD
ATOM     22  H51 UNL     1       8.452  -3.016  13.364  1.00  0.00     0.274 HD
ENDBRANCH  18  19
ENDBRANCH  17  18
ENDBRANCH  16  17
ENDBRANCH   8  16
BRANCH   8  23
HETATM   23  C13 UNL     1       7.814  -4.239  16.716  1.00  0.00     0.164 C 
BRANCH  23  24
HETATM   24  C14 UNL     1       6.655  -3.769  17.556  1.00  0.00     0.080 C 
BRANCH  24  25
HETATM   25  O1  UNL     1       7.055  -3.468  18.830  1.00  0.00    -0.362 OA
ATOM     26  H1  UNL     1       7.060  -4.242  19.382  1.00  0.00     0.217 HD
ENDBRANCH  24  25
BRANCH  24  27
HETATM   27  C15 UNL     1       5.411  -4.522  17.394  1.00  0.00     0.235 C 
BRANCH  27  28
HETATM   28  N6  UNL     1       4.178  -4.019  17.856  1.00  0.00    -0.049 N 
HETATM   29  C16 UNL     1       3.623  -3.287  16.688  1.00  0.00     0.278 C 
HETATM   30  C17 UNL     1       4.304  -2.983  18.872  1.00  0.00     0.242 C 
HETATM   31  C18 UNL     1       3.182  -2.989  19.860  1.00  0.00     0.028 C 
HETATM   32  C19 UNL     1       1.824  -3.219  19.263  1.00  0.00     0.003 C 
HETATM   33  C20 UNL     1       1.809  -4.250  18.176  1.00  0.00     0.028 C 
HETATM   34  C21 UNL     1       3.164  -4.978  18.197  1.00  0.00     0.242 C 
ENDBRANCH  27  28
ENDBRANCH  24  27
ENDBRANCH  23  24
ENDBRANCH   8  23
TORSDOF 13
ENDMDL
