MODEL 1
REMARK VINA RESULT: -8.005201720      0.000      0.000
REMARK  12 active torsions:
REMARK  status: ('A' for Active; 'I' for Inactive)
REMARK    1  A    between atoms: C3_3  and  N1_4 
REMARK    2  A    between atoms: N1_4  and  C5_6 
REMARK    3  A    between atoms: N1_4  and  C6_8 
REMARK    4  A    between atoms: C6_8  and  C7_9 
REMARK       I    between atoms: C7_9  and  N2_11 
REMARK    5  A    between atoms: N2_11  and  C8_13 
REMARK    6  A    between atoms: C8_13  and  C9_14 
REMARK    7  A    between atoms: C9_14  and  C10_15 
REMARK    8  A    between atoms: C10_15  and  N3_16 
REMARK    9  A    between atoms: C12_21  and  N5_22 
REMARK   10  A    between atoms: N5_22  and  C13_24 
REMARK   11  A    between atoms: C13_24  and  C14_25 
REMARK   12  A    between atoms: C14_25  and  C15_26 
ROOT
HETATM    1  C1  UNL     1      15.487  -9.386  24.713  1.00  0.00     0.013 C 
HETATM    2  C2  UNL     1      15.022  -9.113  23.627  1.00  0.00    -0.089 C 
HETATM    3  C3  UNL     1      14.460  -8.781  22.308  1.00  0.00     0.339 C 
ENDROOT
BRANCH   3   4
HETATM    4  N1  UNL     1      15.387  -7.994  21.545  1.00  0.00     0.001 N 
HETATM    5  C4  UNL     1      14.797  -7.583  20.265  1.00  0.00     0.284 C 
BRANCH   4   6
HETATM    6  C5  UNL     1      16.558  -8.740  21.214  1.00  0.00     0.460 C 
HETATM    7  O1  UNL     1      16.473  -9.717  20.490  1.00  0.00    -0.276 OA
ENDBRANCH   4   6
BRANCH   4   8
HETATM    8  C6  UNL     1      15.782  -6.786  22.226  1.00  0.00     0.349 C 
BRANCH   8   9
HETATM    9  C7  UNL     1      14.752  -5.728  22.146  1.00  0.00     0.244 C 
HETATM   10  O2  UNL     1      13.766  -5.770  22.912  1.00  0.00    -0.272 OA
HETATM   11  N2  UNL     1      14.901  -4.687  21.202  1.00  0.00    -0.359 N 
ATOM     12  H2  UNL     1      15.708  -4.657  20.578  1.00  0.00     0.162 HD
BRANCH  11  13
HETATM   13  C8  UNL     1      13.878  -3.666  21.145  1.00  0.00     0.128 C 
BRANCH  13  14
HETATM   14  C9  UNL     1      14.348  -2.352  20.583  1.00  0.00     0.064 C 
BRANCH  14  15
HETATM   15  C10 UNL     1      14.337  -2.456  19.067  1.00  0.00     0.064 C 
BRANCH  15  16
HETATM   16  N3  UNL     1      13.190  -2.986  18.519  1.00  0.00    -0.355 N 
HETATM   17  C11 UNL     1      12.763  -3.910  17.831  1.00  0.00     0.128 A 
HETATM   18  N4  UNL     1      11.415  -3.956  17.571  1.00  0.00    -0.176 N 
HETATM   19  C19 UNL     1      13.498  -4.930  17.276  1.00  0.00     0.005 A 
HETATM   20  C12 UNL     1      10.852  -4.920  16.832  1.00  0.00     0.679 A 
ATOM     21  H4  UNL     1      10.817  -3.225  17.956  1.00  0.00     0.186 HD
HETATM   22  N6  UNL     1      11.557  -5.920  16.286  1.00  0.00    -0.195 N 
HETATM   23  C17 UNL     1      12.880  -5.927  16.506  1.00  0.00     0.032 A 
ATOM     24  H6  UNL     1      11.108  -6.643  15.726  1.00  0.00     0.184 HD
HETATM   25  C18 UNL     1      13.711  -7.010  15.926  1.00  0.00     0.069 C 
HETATM   26  C20 UNL     1      14.963  -5.011  17.471  1.00  0.00     0.054 C 
ATOM     27  H3  UNL     1      12.404  -2.391  18.781  1.00  0.00     0.166 HD
BRANCH  20  28
HETATM   28  N5  UNL     1       9.579  -4.904  16.626  1.00  0.00    -0.226 N 
ATOM     29  H5  UNL     1       9.117  -5.804  16.491  1.00  0.00     0.177 HD
BRANCH  28  30
HETATM   30  C13 UNL     1       8.762  -3.738  16.570  1.00  0.00     0.138 C 
BRANCH  30  31
HETATM   31  C14 UNL     1       8.688  -3.183  15.163  1.00  0.00     0.020 C 
BRANCH  31  32
HETATM   32  C15 UNL     1       8.273  -1.714  15.271  1.00  0.00    -0.003 C 
HETATM   33  C16 UNL     1       7.367  -1.439  14.091  1.00  0.00     0.005 C 
ENDBRANCH  31  32
ENDBRANCH  30  31
ENDBRANCH  28  30
ENDBRANCH  20  28
ENDBRANCH  15  16
ENDBRANCH  14  15
ENDBRANCH  13  14
ENDBRANCH  11  13
ENDBRANCH   8   9
ENDBRANCH   4   8
ENDBRANCH   3   4
TORSDOF 12
ENDMDL
MODEL 2
REMARK VINA RESULT: -7.726416569      3.068      5.426
REMARK  12 active torsions:
REMARK  status: ('A' for Active; 'I' for Inactive)
REMARK    1  A    between atoms: C3_3  and  N1_4 
REMARK    2  A    between atoms: N1_4  and  C5_6 
REMARK    3  A    between atoms: N1_4  and  C6_8 
REMARK    4  A    between atoms: C6_8  and  C7_9 
REMARK       I    between atoms: C7_9  and  N2_11 
REMARK    5  A    between atoms: N2_11  and  C8_13 
REMARK    6  A    between atoms: C8_13  and  C9_14 
REMARK    7  A    between atoms: C9_14  and  C10_15 
REMARK    8  A    between atoms: C10_15  and  N3_16 
REMARK    9  A    between atoms: C12_21  and  N5_22 
REMARK   10  A    between atoms: N5_22  and  C13_24 
REMARK   11  A    between atoms: C13_24  and  C14_25 
REMARK   12  A    between atoms: C14_25  and  C15_26 
ROOT
HETATM    1  C1  UNL     1      16.145  -3.698  16.592  1.00  0.00     0.013 C 
HETATM    2  C2  UNL     1      16.442  -4.773  17.070  1.00  0.00    -0.089 C 
HETATM    3  C3  UNL     1      16.803  -6.076  17.651  1.00  0.00     0.339 C 
ENDROOT
BRANCH   3   4
HETATM    4  N1  UNL     1      17.778  -5.914  18.692  1.00  0.00     0.001 N 
HETATM    5  C4  UNL     1      17.312  -4.958  19.704  1.00  0.00     0.284 C 
BRANCH   4   6
HETATM    6  C5  UNL     1      19.001  -5.383  18.186  1.00  0.00     0.460 C 
HETATM    7  O1  UNL     1      19.683  -4.652  18.883  1.00  0.00    -0.276 OA
ENDBRANCH   4   6
BRANCH   4   8
HETATM    8  C6  UNL     1      18.057  -7.147  19.386  1.00  0.00     0.349 C 
BRANCH   8   9
HETATM    9  C7  UNL     1      16.976  -7.531  20.319  1.00  0.00     0.244 C 
HETATM   10  O2  UNL     1      15.931  -8.048  19.869  1.00  0.00    -0.272 OA
HETATM   11  N2  UNL     1      17.143  -7.305  21.703  1.00  0.00    -0.359 N 
ATOM     12  H2  UNL     1      17.998  -6.882  22.066  1.00  0.00     0.162 HD
BRANCH  11  13
HETATM   13  C8  UNL     1      16.068  -7.689  22.592  1.00  0.00     0.128 C 
BRANCH  13  14
HETATM   14  C9  UNL     1      15.768  -6.683  23.669  1.00  0.00     0.064 C 
BRANCH  14  15
HETATM   15  C10 UNL     1      14.498  -5.945  23.285  1.00  0.00     0.064 C 
BRANCH  15  16
HETATM   16  N3  UNL     1      14.063  -6.148  21.994  1.00  0.00    -0.355 N 
HETATM   17  C11 UNL     1      13.802  -5.571  20.941  1.00  0.00     0.128 A 
HETATM   18  N4  UNL     1      13.371  -6.326  19.878  1.00  0.00    -0.176 N 
HETATM   19  C19 UNL     1      13.893  -4.222  20.698  1.00  0.00     0.005 A 
HETATM   20  C12 UNL     1      13.060  -5.794  18.689  1.00  0.00     0.679 A 
ATOM     21  H4  UNL     1      13.283  -7.336  19.998  1.00  0.00     0.186 HD
HETATM   22  N6  UNL     1      13.144  -4.481  18.439  1.00  0.00    -0.195 N 
HETATM   23  C17 UNL     1      13.560  -3.692  19.441  1.00  0.00     0.032 A 
ATOM     24  H6  UNL     1      12.902  -4.097  17.526  1.00  0.00     0.184 HD
HETATM   25  C18 UNL     1      13.672  -2.230  19.221  1.00  0.00     0.069 C 
HETATM   26  C20 UNL     1      14.342  -3.284  21.750  1.00  0.00     0.054 C 
ATOM     27  H3  UNL     1      13.897  -7.146  21.864  1.00  0.00     0.166 HD
BRANCH  20  28
HETATM   28  N5  UNL     1      12.660  -6.561  17.732  1.00  0.00    -0.226 N 
ATOM     29  H5  UNL     1      11.677  -6.834  17.733  1.00  0.00     0.177 HD
BRANCH  28  30
HETATM   30  C13 UNL     1      13.474  -7.060  16.674  1.00  0.00     0.138 C 
BRANCH  30  31
HETATM   31  C14 UNL     1      13.177  -6.351  15.369  1.00  0.00     0.020 C 
BRANCH  31  32
HETATM   32  C15 UNL     1      14.308  -6.691  14.396  1.00  0.00    -0.003 C 
HETATM   33  C16 UNL     1      15.036  -7.878  14.987  1.00  0.00     0.005 C 
ENDBRANCH  31  32
ENDBRANCH  30  31
ENDBRANCH  28  30
ENDBRANCH  20  28
ENDBRANCH  15  16
ENDBRANCH  14  15
ENDBRANCH  13  14
ENDBRANCH  11  13
ENDBRANCH   8   9
ENDBRANCH   4   8
ENDBRANCH   3   4
TORSDOF 12
ENDMDL
MODEL 3
REMARK VINA RESULT: -7.701537192      3.069      6.724
REMARK  12 active torsions:
REMARK  status: ('A' for Active; 'I' for Inactive)
REMARK    1  A    between atoms: C3_3  and  N1_4 
REMARK    2  A    between atoms: N1_4  and  C5_6 
REMARK    3  A    between atoms: N1_4  and  C6_8 
REMARK    4  A    between atoms: C6_8  and  C7_9 
REMARK       I    between atoms: C7_9  and  N2_11 
REMARK    5  A    between atoms: N2_11  and  C8_13 
REMARK    6  A    between atoms: C8_13  and  C9_14 
REMARK    7  A    between atoms: C9_14  and  C10_15 
REMARK    8  A    between atoms: C10_15  and  N3_16 
REMARK    9  A    between atoms: C12_21  and  N5_22 
REMARK   10  A    between atoms: N5_22  and  C13_24 
REMARK   11  A    between atoms: C13_24  and  C14_25 
REMARK   12  A    between atoms: C14_25  and  C15_26 
ROOT
HETATM    1  C1  UNL     1      15.741  -7.585  15.520  1.00  0.00     0.013 C 
HETATM    2  C2  UNL     1      15.057  -7.321  16.486  1.00  0.00    -0.089 C 
HETATM    3  C3  UNL     1      14.225  -7.000  17.657  1.00  0.00     0.339 C 
ENDROOT
BRANCH   3   4
HETATM    4  N1  UNL     1      13.241  -6.010  17.324  1.00  0.00     0.001 N 
HETATM    5  C4  UNL     1      12.540  -6.362  16.083  1.00  0.00     0.284 C 
BRANCH   4   6
HETATM    6  C5  UNL     1      13.839  -4.736  17.087  1.00  0.00     0.460 C 
HETATM    7  O1  UNL     1      13.145  -3.736  17.041  1.00  0.00    -0.276 OA
ENDBRANCH   4   6
BRANCH   4   8
HETATM    8  C6  UNL     1      12.231  -5.867  18.344  1.00  0.00     0.349 C 
BRANCH   8   9
HETATM    9  C7  UNL     1      12.806  -5.567  19.673  1.00  0.00     0.244 C 
HETATM   10  O2  UNL     1      13.102  -6.506  20.441  1.00  0.00    -0.272 OA
HETATM   11  N2  UNL     1      13.009  -4.221  20.051  1.00  0.00    -0.359 N 
ATOM     12  H2  UNL     1      12.765  -3.457  19.420  1.00  0.00     0.162 HD
BRANCH  11  13
HETATM   13  C8  UNL     1      13.572  -3.956  21.357  1.00  0.00     0.128 C 
BRANCH  13  14
HETATM   14  C9  UNL     1      14.727  -2.992  21.348  1.00  0.00     0.064 C 
BRANCH  14  15
HETATM   15  C10 UNL     1      15.976  -3.748  21.766  1.00  0.00     0.064 C 
BRANCH  15  16
HETATM   16  N3  UNL     1      16.580  -4.487  20.772  1.00  0.00    -0.355 N 
HETATM   17  C11 UNL     1      16.850  -5.633  20.424  1.00  0.00     0.128 A 
HETATM   18  N4  UNL     1      17.523  -5.810  19.240  1.00  0.00    -0.176 N 
HETATM   19  C19 UNL     1      16.550  -6.791  21.101  1.00  0.00     0.005 A 
HETATM   20  C12 UNL     1      17.864  -7.018  18.773  1.00  0.00     0.679 A 
ATOM     21  H4  UNL     1      17.774  -4.987  18.692  1.00  0.00     0.186 HD
HETATM   22  N6  UNL     1      17.578  -8.153  19.423  1.00  0.00    -0.195 N 
HETATM   23  C17 UNL     1      16.921  -8.043  20.587  1.00  0.00     0.032 A 
ATOM     24  H6  UNL     1      17.848  -9.062  19.049  1.00  0.00     0.184 HD
HETATM   25  C18 UNL     1      16.577  -9.267  21.350  1.00  0.00     0.069 C 
HETATM   26  C20 UNL     1      15.828  -6.757  22.392  1.00  0.00     0.054 C 
ATOM     27  H3  UNL     1      16.933  -3.844  20.063  1.00  0.00     0.166 HD
BRANCH  20  28
HETATM   28  N5  UNL     1      18.497  -7.113  17.652  1.00  0.00    -0.226 N 
ATOM     29  H5  UNL     1      18.214  -7.862  17.020  1.00  0.00     0.177 HD
BRANCH  28  30
HETATM   30  C13 UNL     1      19.555  -6.262  17.222  1.00  0.00     0.138 C 
BRANCH  30  31
HETATM   31  C14 UNL     1      19.201  -5.548  15.935  1.00  0.00     0.020 C 
BRANCH  31  32
HETATM   32  C15 UNL     1      18.813  -4.113  16.298  1.00  0.00    -0.003 C 
HETATM   33  C16 UNL     1      17.362  -3.950  15.902  1.00  0.00     0.005 C 
ENDBRANCH  31  32
ENDBRANCH  30  31
ENDBRANCH  28  30
ENDBRANCH  20  28
ENDBRANCH  15  16
ENDBRANCH  14  15
ENDBRANCH  13  14
ENDBRANCH  11  13
ENDBRANCH   8   9
ENDBRANCH   4   8
ENDBRANCH   3   4
TORSDOF 12
ENDMDL
MODEL 4
REMARK VINA RESULT: -7.616789002      1.376      2.221
REMARK  12 active torsions:
REMARK  status: ('A' for Active; 'I' for Inactive)
REMARK    1  A    between atoms: C3_3  and  N1_4 
REMARK    2  A    between atoms: N1_4  and  C5_6 
REMARK    3  A    between atoms: N1_4  and  C6_8 
REMARK    4  A    between atoms: C6_8  and  C7_9 
REMARK       I    between atoms: C7_9  and  N2_11 
REMARK    5  A    between atoms: N2_11  and  C8_13 
REMARK    6  A    between atoms: C8_13  and  C9_14 
REMARK    7  A    between atoms: C9_14  and  C10_15 
REMARK    8  A    between atoms: C10_15  and  N3_16 
REMARK    9  A    between atoms: C12_21  and  N5_22 
REMARK   10  A    between atoms: N5_22  and  C13_24 
REMARK   11  A    between atoms: C13_24  and  C14_25 
REMARK   12  A    between atoms: C14_25  and  C15_26 
ROOT
HETATM    1  C1  UNL     1      12.706  -7.803  19.026  1.00  0.00     0.013 C 
HETATM    2  C2  UNL     1      13.866  -7.611  19.321  1.00  0.00    -0.089 C 
HETATM    3  C3  UNL     1      15.274  -7.379  19.681  1.00  0.00     0.339 C 
ENDROOT
BRANCH   3   4
HETATM    4  N1  UNL     1      15.502  -7.686  21.065  1.00  0.00     0.001 N 
HETATM    5  C4  UNL     1      16.065  -9.033  21.218  1.00  0.00     0.284 C 
BRANCH   4   6
HETATM    6  C5  UNL     1      14.284  -7.685  21.808  1.00  0.00     0.460 C 
HETATM    7  O1  UNL     1      14.163  -6.956  22.778  1.00  0.00    -0.276 OA
ENDBRANCH   4   6
BRANCH   4   8
HETATM    8  C6  UNL     1      16.430  -6.775  21.689  1.00  0.00     0.349 C 
BRANCH   8   9
HETATM    9  C7  UNL     1      16.463  -5.455  21.024  1.00  0.00     0.244 C 
HETATM   10  O2  UNL     1      17.315  -5.235  20.137  1.00  0.00    -0.272 OA
HETATM   11  N2  UNL     1      15.530  -4.465  21.404  1.00  0.00    -0.359 N 
ATOM     12  H2  UNL     1      14.836  -4.649  22.129  1.00  0.00     0.162 HD
BRANCH  11  13
HETATM   13  C8  UNL     1      15.586  -3.182  20.737  1.00  0.00     0.128 C 
BRANCH  13  14
HETATM   14  C9  UNL     1      14.256  -2.491  20.615  1.00  0.00     0.064 C 
BRANCH  14  15
HETATM   15  C10 UNL     1      13.990  -2.235  19.142  1.00  0.00     0.064 C 
BRANCH  15  16
HETATM   16  N3  UNL     1      12.864  -2.841  18.630  1.00  0.00    -0.355 N 
HETATM   17  C11 UNL     1      12.482  -3.741  17.887  1.00  0.00     0.128 A 
HETATM   18  N4  UNL     1      11.130  -3.918  17.724  1.00  0.00    -0.176 N 
HETATM   19  C19 UNL     1      13.273  -4.616  17.181  1.00  0.00     0.005 A 
HETATM   20  C12 UNL     1      10.612  -4.869  16.937  1.00  0.00     0.679 A 
ATOM     21  H4  UNL     1      10.492  -3.297  18.223  1.00  0.00     0.186 HD
HETATM   22  N6  UNL     1      11.372  -5.728  16.243  1.00  0.00    -0.195 N 
HETATM   23  C17 UNL     1      12.702  -5.604  16.364  1.00  0.00     0.032 A 
ATOM     24  H6  UNL     1      10.956  -6.445  15.649  1.00  0.00     0.184 HD
HETATM   25  C18 UNL     1      13.591  -6.527  15.619  1.00  0.00     0.069 C 
HETATM   26  C20 UNL     1      14.748  -4.546  17.257  1.00  0.00     0.054 C 
ATOM     27  H3  UNL     1      12.044  -2.365  19.007  1.00  0.00     0.166 HD
BRANCH  20  28
HETATM   28  N5  UNL     1       9.331  -4.980  16.828  1.00  0.00    -0.226 N 
ATOM     29  H5  UNL     1       8.929  -5.905  16.984  1.00  0.00     0.177 HD
BRANCH  28  30
HETATM   30  C13 UNL     1       8.432  -3.923  16.509  1.00  0.00     0.138 C 
BRANCH  30  31
HETATM   31  C14 UNL     1       8.744  -3.321  15.155  1.00  0.00     0.020 C 
BRANCH  31  32
HETATM   32  C15 UNL     1       8.689  -1.800  15.305  1.00  0.00    -0.003 C 
HETATM   33  C16 UNL     1       7.273  -1.463  15.717  1.00  0.00     0.005 C 
ENDBRANCH  31  32
ENDBRANCH  30  31
ENDBRANCH  28  30
ENDBRANCH  20  28
ENDBRANCH  15  16
ENDBRANCH  14  15
ENDBRANCH  13  14
ENDBRANCH  11  13
ENDBRANCH   8   9
ENDBRANCH   4   8
ENDBRANCH   3   4
TORSDOF 12
ENDMDL
MODEL 5
REMARK VINA RESULT: -7.601634778      2.336      5.357
REMARK  12 active torsions:
REMARK  status: ('A' for Active; 'I' for Inactive)
REMARK    1  A    between atoms: C3_3  and  N1_4 
REMARK    2  A    between atoms: N1_4  and  C5_6 
REMARK    3  A    between atoms: N1_4  and  C6_8 
REMARK    4  A    between atoms: C6_8  and  C7_9 
REMARK       I    between atoms: C7_9  and  N2_11 
REMARK    5  A    between atoms: N2_11  and  C8_13 
REMARK    6  A    between atoms: C8_13  and  C9_14 
REMARK    7  A    between atoms: C9_14  and  C10_15 
REMARK    8  A    between atoms: C10_15  and  N3_16 
REMARK    9  A    between atoms: C12_21  and  N5_22 
REMARK   10  A    between atoms: N5_22  and  C13_24 
REMARK   11  A    between atoms: C13_24  and  C14_25 
REMARK   12  A    between atoms: C14_25  and  C15_26 
ROOT
HETATM    1  C1  UNL     1      13.036  -6.474  15.398  1.00  0.00     0.013 C 
HETATM    2  C2  UNL     1      13.984  -6.786  16.086  1.00  0.00    -0.089 C 
HETATM    3  C3  UNL     1      15.136  -7.165  16.920  1.00  0.00     0.339 C 
ENDROOT
BRANCH   3   4
HETATM    4  N1  UNL     1      16.297  -7.397  16.107  1.00  0.00     0.001 N 
HETATM    5  C4  UNL     1      16.535  -6.268  15.198  1.00  0.00     0.284 C 
BRANCH   4   6
HETATM    6  C5  UNL     1      16.131  -8.542  15.272  1.00  0.00     0.460 C 
HETATM    7  O1  UNL     1      16.649  -9.601  15.580  1.00  0.00    -0.276 OA
ENDBRANCH   4   6
BRANCH   4   8
HETATM    8  C6  UNL     1      17.498  -7.559  16.888  1.00  0.00     0.349 C 
BRANCH   8   9
HETATM    9  C7  UNL     1      17.264  -7.360  18.334  1.00  0.00     0.244 C 
HETATM   10  O2  UNL     1      17.031  -6.212  18.767  1.00  0.00    -0.272 OA
HETATM   11  N2  UNL     1      17.311  -8.474  19.202  1.00  0.00    -0.359 N 
ATOM     12  H2  UNL     1      17.502  -9.410  18.845  1.00  0.00     0.162 HD
BRANCH  11  13
HETATM   13  C8  UNL     1      17.079  -8.250  20.613  1.00  0.00     0.128 C 
BRANCH  13  14
HETATM   14  C9  UNL     1      16.240  -9.306  21.277  1.00  0.00     0.064 C 
BRANCH  14  15
HETATM   15  C10 UNL     1      15.057  -8.622  21.940  1.00  0.00     0.064 C 
BRANCH  15  16
HETATM   16  N3  UNL     1      14.257  -7.879  21.100  1.00  0.00    -0.355 N 
HETATM   17  C11 UNL     1      13.908  -6.732  20.832  1.00  0.00     0.128 A 
HETATM   18  N4  UNL     1      13.009  -6.549  19.810  1.00  0.00    -0.176 N 
HETATM   19  C19 UNL     1      14.323  -5.579  21.455  1.00  0.00     0.005 A 
HETATM   20  C12 UNL     1      12.566  -5.341  19.441  1.00  0.00     0.679 A 
ATOM     21  H4  UNL     1      12.664  -7.369  19.310  1.00  0.00     0.186 HD
HETATM   22  N6  UNL     1      12.962  -4.210  20.040  1.00  0.00    -0.195 N 
HETATM   23  C17 UNL     1      13.841  -4.326  21.046  1.00  0.00     0.032 A 
ATOM     24  H6  UNL     1      12.611  -3.301  19.743  1.00  0.00     0.184 HD
HETATM   25  C18 UNL     1      14.315  -3.108  21.746  1.00  0.00     0.069 C 
HETATM   26  C20 UNL     1      15.289  -5.620  22.574  1.00  0.00     0.054 C 
ATOM     27  H3  UNL     1      13.777  -8.518  20.465  1.00  0.00     0.166 HD
BRANCH  20  28
HETATM   28  N5  UNL     1      11.720  -5.241  18.472  1.00  0.00    -0.226 N 
ATOM     29  H5  UNL     1      11.800  -5.916  17.711  1.00  0.00     0.177 HD
BRANCH  28  30
HETATM   30  C13 UNL     1      10.685  -4.267  18.372  1.00  0.00     0.138 C 
BRANCH  30  31
HETATM   31  C14 UNL     1      10.740  -3.536  17.048  1.00  0.00     0.020 C 
BRANCH  31  32
HETATM   32  C15 UNL     1       9.343  -3.607  16.427  1.00  0.00    -0.003 C 
HETATM   33  C16 UNL     1       9.209  -2.389  15.539  1.00  0.00     0.005 C 
ENDBRANCH  31  32
ENDBRANCH  30  31
ENDBRANCH  28  30
ENDBRANCH  20  28
ENDBRANCH  15  16
ENDBRANCH  14  15
ENDBRANCH  13  14
ENDBRANCH  11  13
ENDBRANCH   8   9
ENDBRANCH   4   8
ENDBRANCH   3   4
TORSDOF 12
ENDMDL
