MODEL 1
REMARK VINA RESULT: -6.931477418      0.000      0.000
REMARK  12 active torsions:
REMARK  status: ('A' for Active; 'I' for Inactive)
REMARK    1  A    between atoms: C2_2  and  N1_3 
REMARK    2  A    between atoms: N2_7  and  C6_8 
REMARK    3  A    between atoms: C6_8  and  C7_9 
REMARK    4  A    between atoms: C7_9  and  C8_10 
REMARK    5  A    between atoms: C8_10  and  N3_11 
REMARK    6  A    between atoms: N3_11  and  C10_13 
REMARK    7  A    between atoms: N3_11  and  C14_21 
REMARK    8  A    between atoms: C10_13  and  C11_14 
REMARK    9  A    between atoms: C11_14  and  C12_15 
REMARK   10  A    between atoms: C12_15  and  N4_16 
REMARK   11  A    between atoms: C14_21  and  C15_22 
REMARK   12  A    between atoms: C15_22  and  S1_23 
ROOT
HETATM    1  N3  UNL     1      14.727  -5.234  21.010  1.00  0.00    -0.070 N 
HETATM    2  C9  UNL     1      15.772  -4.461  21.692  1.00  0.00     0.272 C 
ENDROOT
BRANCH   1   3
HETATM    3  C8  UNL     1      15.124  -5.807  19.778  1.00  0.00     0.238 C 
BRANCH   3   4
HETATM    4  C7  UNL     1      16.453  -5.476  19.209  1.00  0.00     0.044 C 
BRANCH   4   5
HETATM    5  C6  UNL     1      16.942  -6.387  18.123  1.00  0.00     0.115 C 
BRANCH   5   6
HETATM    6  N2  UNL     1      16.156  -6.269  16.936  1.00  0.00    -0.229 NA
HETATM    7  C5  UNL     1      15.633  -7.513  16.431  1.00  0.00     0.115 C 
HETATM    8  C4  UNL     1      14.211  -7.267  15.990  1.00  0.00     0.036 C 
HETATM    9  C3  UNL     1      14.065  -6.588  14.676  1.00  0.00     0.126 C 
HETATM   10  N1  UNL     1      15.265  -6.301  13.964  1.00  0.00    -0.358 N 
HETATM   11  C17 UNL     1      16.463  -5.726  14.475  1.00  0.00     0.184 C 
HETATM   12  N7  UNL     1      16.825  -5.655  15.870  1.00  0.00    -0.295 N 
HETATM   13  S2  UNL     1      17.524  -5.088  13.408  1.00  0.00    -0.040 SA
ATOM     14  H7  UNL     1      17.650  -5.102  16.103  1.00  0.00     0.183 HD
BRANCH  10  15
HETATM   15  C2  UNL     1      15.313  -6.619  12.526  1.00  0.00     0.120 C 
HETATM   16  C1  UNL     1      15.032  -8.087  12.299  1.00  0.00     0.026 C 
ENDBRANCH  10  15
ENDBRANCH   5   6
ENDBRANCH   4   5
ENDBRANCH   3   4
ENDBRANCH   1   3
BRANCH   1  17
HETATM   17  C10 UNL     1      13.710  -4.215  20.677  1.00  0.00     0.238 C 
BRANCH  17  18
HETATM   18  C11 UNL     1      14.227  -2.820  20.714  1.00  0.00     0.047 C 
BRANCH  18  19
HETATM   19  C12 UNL     1      13.841  -2.155  19.371  1.00  0.00     0.123 C 
BRANCH  19  20
HETATM   20  N4  UNL     1      14.943  -2.127  18.466  1.00  0.00    -0.367 N 
HETATM   21  C13 UNL     1      14.954  -2.820  17.381  1.00  0.00     0.196 C 
HETATM   22  N5  UNL     1      13.883  -3.669  16.984  1.00  0.00    -0.067 NA
HETATM   23  N6  UNL     1      16.102  -2.712  16.556  1.00  0.00    -0.067 NA
ATOM     24  H4  UNL     1      15.748  -1.539  18.685  1.00  0.00     0.161 HD
ENDBRANCH  19  20
ENDBRANCH  18  19
ENDBRANCH  17  18
ENDBRANCH   1  17
BRANCH   1  25
HETATM   25  C14 UNL     1      14.220  -6.143  22.003  1.00  0.00     0.249 C 
BRANCH  25  26
HETATM   26  C15 UNL     1      15.051  -6.296  23.239  1.00  0.00     0.136 C 
BRANCH  26  27
HETATM   27  S1  UNL     1      15.546  -8.036  23.269  1.00  0.00     0.012 S 
HETATM   28  C16 UNL     1      14.567  -8.966  22.125  1.00  0.00     0.127 C 
HETATM   29  O1  UNL     1      15.327  -8.597  24.835  1.00  0.00    -0.258 OA
ENDBRANCH  26  27
ENDBRANCH  25  26
ENDBRANCH   1  25
TORSDOF 12
ENDMDL
MODEL 2
REMARK VINA RESULT: -6.870961883      1.744      2.064
REMARK  12 active torsions:
REMARK  status: ('A' for Active; 'I' for Inactive)
REMARK    1  A    between atoms: C2_2  and  N1_3 
REMARK    2  A    between atoms: N2_7  and  C6_8 
REMARK    3  A    between atoms: C6_8  and  C7_9 
REMARK    4  A    between atoms: C7_9  and  C8_10 
REMARK    5  A    between atoms: C8_10  and  N3_11 
REMARK    6  A    between atoms: N3_11  and  C10_13 
REMARK    7  A    between atoms: N3_11  and  C14_21 
REMARK    8  A    between atoms: C10_13  and  C11_14 
REMARK    9  A    between atoms: C11_14  and  C12_15 
REMARK   10  A    between atoms: C12_15  and  N4_16 
REMARK   11  A    between atoms: C14_21  and  C15_22 
REMARK   12  A    between atoms: C15_22  and  S1_23 
ROOT
HETATM    1  N3  UNL     1      14.981  -5.721  21.651  1.00  0.00    -0.070 N 
HETATM    2  C9  UNL     1      15.091  -4.287  21.943  1.00  0.00     0.272 C 
ENDROOT
BRANCH   1   3
HETATM    3  C8  UNL     1      16.072  -6.263  20.931  1.00  0.00     0.238 C 
BRANCH   3   4
HETATM    4  C7  UNL     1      15.834  -7.331  19.928  1.00  0.00     0.044 C 
BRANCH   4   5
HETATM    5  C6  UNL     1      16.943  -7.561  18.945  1.00  0.00     0.115 C 
BRANCH   5   6
HETATM    6  N2  UNL     1      16.445  -7.813  17.631  1.00  0.00    -0.229 NA
HETATM    7  C5  UNL     1      17.229  -7.238  16.567  1.00  0.00     0.115 C 
HETATM    8  C4  UNL     1      17.316  -8.259  15.459  1.00  0.00     0.036 C 
HETATM    9  C3  UNL     1      16.105  -8.372  14.605  1.00  0.00     0.126 C 
HETATM   10  N1  UNL     1      15.034  -7.476  14.888  1.00  0.00    -0.358 N 
HETATM   11  C17 UNL     1      14.483  -7.153  16.161  1.00  0.00     0.184 C 
HETATM   12  N7  UNL     1      15.126  -7.386  17.432  1.00  0.00    -0.295 N 
HETATM   13  S2  UNL     1      13.001  -6.463  16.204  1.00  0.00    -0.040 SA
ATOM     14  H7  UNL     1      14.564  -7.225  18.267  1.00  0.00     0.183 HD
BRANCH  10  15
HETATM   15  C2  UNL     1      14.390  -6.783  13.758  1.00  0.00     0.120 C 
HETATM   16  C1  UNL     1      15.317  -6.743  12.565  1.00  0.00     0.026 C 
ENDBRANCH  10  15
ENDBRANCH   5   6
ENDBRANCH   4   5
ENDBRANCH   3   4
ENDBRANCH   1   3
BRANCH   1  17
HETATM   17  C10 UNL     1      13.816  -5.797  20.743  1.00  0.00     0.238 C 
BRANCH  17  18
HETATM   18  C11 UNL     1      13.013  -4.544  20.696  1.00  0.00     0.047 C 
BRANCH  18  19
HETATM   19  C12 UNL     1      12.871  -4.150  19.206  1.00  0.00     0.123 C 
BRANCH  19  20
HETATM   20  N4  UNL     1      13.586  -2.951  18.912  1.00  0.00    -0.367 N 
HETATM   21  C13 UNL     1      14.750  -2.966  18.362  1.00  0.00     0.196 C 
HETATM   22  N5  UNL     1      15.428  -4.164  17.998  1.00  0.00    -0.067 NA
HETATM   23  N6  UNL     1      15.365  -1.713  18.115  1.00  0.00    -0.067 NA
ATOM     24  H4  UNL     1      13.161  -2.053  19.145  1.00  0.00     0.161 HD
ENDBRANCH  19  20
ENDBRANCH  18  19
ENDBRANCH  17  18
ENDBRANCH   1  17
BRANCH   1  25
HETATM   25  C14 UNL     1      14.675  -6.343  22.911  1.00  0.00     0.249 C 
BRANCH  25  26
HETATM   26  C15 UNL     1      15.847  -6.839  23.700  1.00  0.00     0.136 C 
BRANCH  26  27
HETATM   27  S1  UNL     1      15.615  -8.629  23.826  1.00  0.00     0.012 S 
HETATM   28  C16 UNL     1      14.330  -9.154  22.728  1.00  0.00     0.127 C 
HETATM   29  O1  UNL     1      15.216  -8.976  25.418  1.00  0.00    -0.258 OA
ENDBRANCH  26  27
ENDBRANCH  25  26
ENDBRANCH   1  25
TORSDOF 12
ENDMDL
MODEL 3
REMARK VINA RESULT: -6.842945900      2.254      2.694
REMARK  12 active torsions:
REMARK  status: ('A' for Active; 'I' for Inactive)
REMARK    1  A    between atoms: C2_2  and  N1_3 
REMARK    2  A    between atoms: N2_7  and  C6_8 
REMARK    3  A    between atoms: C6_8  and  C7_9 
REMARK    4  A    between atoms: C7_9  and  C8_10 
REMARK    5  A    between atoms: C8_10  and  N3_11 
REMARK    6  A    between atoms: N3_11  and  C10_13 
REMARK    7  A    between atoms: N3_11  and  C14_21 
REMARK    8  A    between atoms: C10_13  and  C11_14 
REMARK    9  A    between atoms: C11_14  and  C12_15 
REMARK   10  A    between atoms: C12_15  and  N4_16 
REMARK   11  A    between atoms: C14_21  and  C15_22 
REMARK   12  A    between atoms: C15_22  and  S1_23 
ROOT
HETATM    1  N3  UNL     1      15.791  -5.200  20.989  1.00  0.00    -0.070 N 
HETATM    2  C9  UNL     1      15.967  -3.840  21.512  1.00  0.00     0.272 C 
ENDROOT
BRANCH   1   3
HETATM    3  C8  UNL     1      16.973  -5.799  20.492  1.00  0.00     0.238 C 
BRANCH   3   4
HETATM    4  C7  UNL     1      17.087  -6.108  19.045  1.00  0.00     0.044 C 
BRANCH   4   5
HETATM    5  C6  UNL     1      17.241  -7.559  18.699  1.00  0.00     0.115 C 
BRANCH   5   6
HETATM    6  N2  UNL     1      16.661  -7.868  17.431  1.00  0.00    -0.229 NA
HETATM    7  C5  UNL     1      17.390  -7.367  16.294  1.00  0.00     0.115 C 
HETATM    8  C4  UNL     1      17.392  -8.446  15.238  1.00  0.00     0.036 C 
HETATM    9  C3  UNL     1      16.130  -8.575  14.464  1.00  0.00     0.126 C 
HETATM   10  N1  UNL     1      15.095  -7.643  14.762  1.00  0.00    -0.358 N 
HETATM   11  C17 UNL     1      14.628  -7.243  16.046  1.00  0.00     0.184 C 
HETATM   12  N7  UNL     1      15.341  -7.424  17.287  1.00  0.00    -0.295 N 
HETATM   13  S2  UNL     1      13.164  -6.519  16.139  1.00  0.00    -0.040 SA
ATOM     14  H7  UNL     1      14.833  -7.207  18.145  1.00  0.00     0.183 HD
BRANCH  10  15
HETATM   15  C2  UNL     1      14.399  -6.995  13.636  1.00  0.00     0.120 C 
HETATM   16  C1  UNL     1      15.374  -6.666  12.529  1.00  0.00     0.026 C 
ENDBRANCH  10  15
ENDBRANCH   5   6
ENDBRANCH   4   5
ENDBRANCH   3   4
ENDBRANCH   1   3
BRANCH   1  17
HETATM   17  C10 UNL     1      14.909  -5.005  19.819  1.00  0.00     0.238 C 
BRANCH  17  18
HETATM   18  C11 UNL     1      13.553  -5.594  19.988  1.00  0.00     0.047 C 
BRANCH  18  19
HETATM   19  C12 UNL     1      12.546  -4.419  20.014  1.00  0.00     0.123 C 
BRANCH  19  20
HETATM   20  N4  UNL     1      12.357  -3.862  18.715  1.00  0.00    -0.367 N 
HETATM   21  C13 UNL     1      11.186  -3.690  18.208  1.00  0.00     0.196 C 
HETATM   22  N5  UNL     1       9.982  -4.034  18.885  1.00  0.00    -0.067 NA
HETATM   23  N6  UNL     1      11.120  -3.126  16.909  1.00  0.00    -0.067 NA
ATOM     24  H4  UNL     1      13.176  -3.591  18.170  1.00  0.00     0.161 HD
ENDBRANCH  19  20
ENDBRANCH  18  19
ENDBRANCH  17  18
ENDBRANCH   1  17
BRANCH   1  25
HETATM   25  C14 UNL     1      15.097  -5.918  22.024  1.00  0.00     0.249 C 
BRANCH  25  26
HETATM   26  C15 UNL     1      15.822  -7.093  22.606  1.00  0.00     0.136 C 
BRANCH  26  27
HETATM   27  S1  UNL     1      14.825  -8.535  22.162  1.00  0.00     0.012 S 
HETATM   28  C16 UNL     1      14.506  -9.520  23.597  1.00  0.00     0.127 C 
HETATM   29  O1  UNL     1      15.685  -9.411  21.018  1.00  0.00    -0.258 OA
ENDBRANCH  26  27
ENDBRANCH  25  26
ENDBRANCH   1  25
TORSDOF 12
ENDMDL
MODEL 4
REMARK VINA RESULT: -6.737997405      1.748      2.188
REMARK  12 active torsions:
REMARK  status: ('A' for Active; 'I' for Inactive)
REMARK    1  A    between atoms: C2_2  and  N1_3 
REMARK    2  A    between atoms: N2_7  and  C6_8 
REMARK    3  A    between atoms: C6_8  and  C7_9 
REMARK    4  A    between atoms: C7_9  and  C8_10 
REMARK    5  A    between atoms: C8_10  and  N3_11 
REMARK    6  A    between atoms: N3_11  and  C10_13 
REMARK    7  A    between atoms: N3_11  and  C14_21 
REMARK    8  A    between atoms: C10_13  and  C11_14 
REMARK    9  A    between atoms: C11_14  and  C12_15 
REMARK   10  A    between atoms: C12_15  and  N4_16 
REMARK   11  A    between atoms: C14_21  and  C15_22 
REMARK   12  A    between atoms: C15_22  and  S1_23 
ROOT
HETATM    1  N3  UNL     1      14.368  -5.329  21.497  1.00  0.00    -0.070 N 
HETATM    2  C9  UNL     1      13.863  -4.019  21.926  1.00  0.00     0.272 C 
ENDROOT
BRANCH   1   3
HETATM    3  C8  UNL     1      15.651  -5.300  20.899  1.00  0.00     0.238 C 
BRANCH   3   4
HETATM    4  C7  UNL     1      15.944  -6.188  19.746  1.00  0.00     0.044 C 
BRANCH   4   5
HETATM    5  C6  UNL     1      16.589  -5.528  18.564  1.00  0.00     0.115 C 
BRANCH   5   6
HETATM    6  N2  UNL     1      15.806  -5.678  17.378  1.00  0.00    -0.229 NA
HETATM    7  C5  UNL     1      15.368  -7.025  17.110  1.00  0.00     0.115 C 
HETATM    8  C4  UNL     1      13.936  -6.955  16.636  1.00  0.00     0.036 C 
HETATM    9  C3  UNL     1      13.757  -6.537  15.222  1.00  0.00     0.126 C 
HETATM   10  N1  UNL     1      14.942  -6.307  14.465  1.00  0.00    -0.358 N 
HETATM   11  C17 UNL     1      16.097  -5.572  14.859  1.00  0.00     0.184 C 
HETATM   12  N7  UNL     1      16.443  -5.226  16.216  1.00  0.00    -0.295 N 
HETATM   13  S2  UNL     1      17.124  -5.070  13.689  1.00  0.00    -0.040 SA
ATOM     14  H7  UNL     1      17.229  -4.588  16.342  1.00  0.00     0.183 HD
BRANCH  10  15
HETATM   15  C2  UNL     1      15.022  -6.876  13.109  1.00  0.00     0.120 C 
HETATM   16  C1  UNL     1      14.943  -8.385  13.163  1.00  0.00     0.026 C 
ENDBRANCH  10  15
ENDBRANCH   5   6
ENDBRANCH   4   5
ENDBRANCH   3   4
ENDBRANCH   1   3
BRANCH   1  17
HETATM   17  C10 UNL     1      13.428  -5.725  20.427  1.00  0.00     0.238 C 
BRANCH  17  18
HETATM   18  C11 UNL     1      12.740  -4.575  19.780  1.00  0.00     0.047 C 
BRANCH  18  19
HETATM   19  C12 UNL     1      11.760  -5.159  18.735  1.00  0.00     0.123 C 
BRANCH  19  20
HETATM   20  N4  UNL     1      11.556  -4.257  17.648  1.00  0.00    -0.367 N 
HETATM   21  C13 UNL     1      10.460  -3.596  17.505  1.00  0.00     0.196 C 
HETATM   22  N5  UNL     1       9.361  -3.699  18.404  1.00  0.00    -0.067 NA
HETATM   23  N6  UNL     1      10.371  -2.728  16.388  1.00  0.00    -0.067 NA
ATOM     24  H4  UNL     1      12.302  -4.132  16.963  1.00  0.00     0.161 HD
ENDBRANCH  19  20
ENDBRANCH  18  19
ENDBRANCH  17  18
ENDBRANCH   1  17
BRANCH   1  25
HETATM   25  C14 UNL     1      14.216  -6.188  22.641  1.00  0.00     0.249 C 
BRANCH  25  26
HETATM   26  C15 UNL     1      15.461  -6.460  23.428  1.00  0.00     0.136 C 
BRANCH  26  27
HETATM   27  S1  UNL     1      15.633  -8.260  23.440  1.00  0.00     0.012 S 
HETATM   28  C16 UNL     1      14.535  -8.985  22.257  1.00  0.00     0.127 C 
HETATM   29  O1  UNL     1      15.273  -8.792  24.991  1.00  0.00    -0.258 OA
ENDBRANCH  26  27
ENDBRANCH  25  26
ENDBRANCH   1  25
TORSDOF 12
ENDMDL
MODEL 5
REMARK VINA RESULT: -6.733326849      1.639      2.337
REMARK  12 active torsions:
REMARK  status: ('A' for Active; 'I' for Inactive)
REMARK    1  A    between atoms: C2_2  and  N1_3 
REMARK    2  A    between atoms: N2_7  and  C6_8 
REMARK    3  A    between atoms: C6_8  and  C7_9 
REMARK    4  A    between atoms: C7_9  and  C8_10 
REMARK    5  A    between atoms: C8_10  and  N3_11 
REMARK    6  A    between atoms: N3_11  and  C10_13 
REMARK    7  A    between atoms: N3_11  and  C14_21 
REMARK    8  A    between atoms: C10_13  and  C11_14 
REMARK    9  A    between atoms: C11_14  and  C12_15 
REMARK   10  A    between atoms: C12_15  and  N4_16 
REMARK   11  A    between atoms: C14_21  and  C15_22 
REMARK   12  A    between atoms: C15_22  and  S1_23 
ROOT
HETATM    1  N3  UNL     1      14.739  -5.917  21.917  1.00  0.00    -0.070 N 
HETATM    2  C9  UNL     1      16.084  -5.702  21.370  1.00  0.00     0.272 C 
ENDROOT
BRANCH   1   3
HETATM    3  C8  UNL     1      13.832  -6.541  21.028  1.00  0.00     0.238 C 
BRANCH   3   4
HETATM    4  C7  UNL     1      14.347  -7.436  19.962  1.00  0.00     0.044 C 
BRANCH   4   5
HETATM    5  C6  UNL     1      13.892  -7.119  18.569  1.00  0.00     0.115 C 
BRANCH   5   6
HETATM    6  N2  UNL     1      14.908  -7.389  17.602  1.00  0.00    -0.229 NA
HETATM    7  C5  UNL     1      16.099  -6.591  17.739  1.00  0.00     0.115 C 
HETATM    8  C4  UNL     1      17.286  -7.495  17.511  1.00  0.00     0.036 C 
HETATM    9  C3  UNL     1      17.575  -7.815  16.089  1.00  0.00     0.126 C 
HETATM   10  N1  UNL     1      16.746  -7.194  15.110  1.00  0.00    -0.358 N 
HETATM   11  C17 UNL     1      15.326  -7.082  15.118  1.00  0.00     0.184 C 
HETATM   12  N7  UNL     1      14.482  -7.249  16.276  1.00  0.00    -0.295 N 
HETATM   13  S2  UNL     1      14.576  -6.736  13.706  1.00  0.00    -0.040 SA
ATOM     14  H7  UNL     1      13.476  -7.268  16.112  1.00  0.00     0.183 HD
BRANCH  10  15
HETATM   15  C2  UNL     1      17.394  -6.588  13.934  1.00  0.00     0.120 C 
HETATM   16  C1  UNL     1      18.453  -5.599  14.364  1.00  0.00     0.026 C 
ENDBRANCH  10  15
ENDBRANCH   5   6
ENDBRANCH   4   5
ENDBRANCH   3   4
ENDBRANCH   1   3
BRANCH   1  17
HETATM   17  C10 UNL     1      14.229  -4.545  22.123  1.00  0.00     0.238 C 
BRANCH  17  18
HETATM   18  C11 UNL     1      15.105  -3.490  21.546  1.00  0.00     0.047 C 
BRANCH  18  19
HETATM   19  C12 UNL     1      14.223  -2.622  20.617  1.00  0.00     0.123 C 
BRANCH  19  20
HETATM   20  N4  UNL     1      13.976  -3.272  19.372  1.00  0.00    -0.367 N 
HETATM   21  C13 UNL     1      14.483  -2.847  18.267  1.00  0.00     0.196 C 
HETATM   22  N5  UNL     1      15.326  -1.704  18.181  1.00  0.00    -0.067 NA
HETATM   23  N6  UNL     1      14.170  -3.575  17.091  1.00  0.00    -0.067 NA
ATOM     24  H4  UNL     1      13.380  -4.100  19.356  1.00  0.00     0.161 HD
ENDBRANCH  19  20
ENDBRANCH  18  19
ENDBRANCH  17  18
ENDBRANCH   1  17
BRANCH   1  25
HETATM   25  C14 UNL     1      14.944  -6.571  23.182  1.00  0.00     0.249 C 
BRANCH  25  26
HETATM   26  C15 UNL     1      16.341  -7.032  23.464  1.00  0.00     0.136 C 
BRANCH  26  27
HETATM   27  S1  UNL     1      16.229  -8.833  23.600  1.00  0.00     0.012 S 
HETATM   28  C16 UNL     1      14.569  -9.364  23.300  1.00  0.00     0.127 C 
HETATM   29  O1  UNL     1      16.720  -9.255  25.148  1.00  0.00    -0.258 OA
ENDBRANCH  26  27
ENDBRANCH  25  26
ENDBRANCH   1  25
TORSDOF 12
ENDMDL
