MODEL 1
REMARK VINA RESULT: -7.722582762      0.000      0.000
REMARK  12 active torsions:
REMARK  status: ('A' for Active; 'I' for Inactive)
REMARK    1  A    between atoms: C2_2  and  C3_3 
REMARK    2  A    between atoms: C3_3  and  N1_4 
REMARK    3  A    between atoms: N2_7  and  C6_8 
REMARK    4  A    between atoms: C6_8  and  C7_9 
REMARK    5  A    between atoms: C7_9  and  C8_10 
REMARK    6  A    between atoms: C8_10  and  N3_11 
REMARK    7  A    between atoms: N3_11  and  S1_13 
REMARK    8  A    between atoms: S1_13  and  N4_14 
REMARK    9  A    between atoms: S1_13  and  N5_18 
REMARK   10  A    between atoms: N5_18  and  C9_20 
REMARK   11  A    between atoms: C9_20  and  C10_21 
REMARK   12  A    between atoms: C10_21  and  N6_22 
ROOT
HETATM    1  N3  UNL     1      11.223  -4.473  18.892  1.00  0.00    -0.320 N 
ATOM      2  H3  UNL     1      11.113  -4.022  19.800  1.00  0.00     0.172 HD
ENDROOT
BRANCH   1   3
HETATM    3  C8  UNL     1      12.219  -5.456  18.803  1.00  0.00     0.133 C 
BRANCH   3   4
HETATM    4  C7  UNL     1      13.076  -5.325  20.100  1.00  0.00     0.048 C 
BRANCH   4   5
HETATM    5  C6  UNL     1      14.436  -5.852  19.856  1.00  0.00     0.239 C 
BRANCH   5   6
HETATM    6  N2  UNL     1      14.887  -6.614  21.031  1.00  0.00    -0.062 N 
HETATM    7  C5  UNL     1      14.296  -7.968  20.901  1.00  0.00     0.265 C 
HETATM    8  C4  UNL     1      14.709  -8.761  22.074  1.00  0.00     0.265 C 
HETATM    9  N1  UNL     1      15.695  -8.068  22.939  1.00  0.00    -0.062 N 
HETATM   10  C15 UNL     1      15.033  -6.823  23.407  1.00  0.00     0.265 C 
HETATM   11  C17 UNL     1      16.792  -7.688  22.138  1.00  0.00     0.265 C 
HETATM   12  C14 UNL     1      14.375  -6.085  22.265  1.00  0.00     0.265 C 
HETATM   13  C16 UNL     1      16.300  -6.754  21.009  1.00  0.00     0.265 C 
BRANCH   9  14
HETATM   14  C3  UNL     1      15.889  -8.949  24.034  1.00  0.00     0.237 C 
BRANCH  14  15
HETATM   15  C2  UNL     1      17.240  -9.272  24.515  1.00  0.00     0.023 C 
HETATM   16  C1  UNL     1      17.312 -10.102  25.760  1.00  0.00     0.007 C 
ENDBRANCH  14  15
ENDBRANCH   9  14
ENDBRANCH   5   6
ENDBRANCH   4   5
ENDBRANCH   3   4
ENDBRANCH   1   3
BRANCH   1  17
HETATM   17  S1  UNL     1      10.222  -3.972  17.711  1.00  0.00     0.188 S 
HETATM   18  O1  UNL     1      11.052  -2.908  16.881  1.00  0.00    -0.206 OA
BRANCH  17  19
HETATM   19  N4  UNL     1      10.042  -5.179  16.661  1.00  0.00    -0.329 N 
ATOM     20  H42 UNL     1      10.372  -5.171  15.696  1.00  0.00     0.168 HD
ATOM     21  H41 UNL     1       9.547  -5.937  17.131  1.00  0.00     0.168 HD
ENDBRANCH  17  19
BRANCH  17  22
HETATM   22  N5  UNL     1       8.691  -3.337  17.946  1.00  0.00    -0.318 N 
ATOM     23  H5  UNL     1       8.326  -3.189  18.886  1.00  0.00     0.172 HD
BRANCH  22  24
HETATM   24  C9  UNL     1       7.907  -3.005  16.794  1.00  0.00     0.162 C 
BRANCH  24  25
HETATM   25  C10 UNL     1       6.499  -2.800  17.279  1.00  0.00     0.294 C 
BRANCH  25  26
HETATM   26  N6  UNL     1       5.783  -3.926  17.811  1.00  0.00     0.117 N 
HETATM   27  C11 UNL     1       4.547  -3.320  18.370  1.00  0.00     0.302 C 
HETATM   28  C12 UNL     1       3.469  -4.304  18.108  1.00  0.00     0.264 C 
HETATM   29  N7  UNL     1       4.103  -5.385  17.406  1.00  0.00    -0.047 N 
HETATM   30  C13 UNL     1       5.272  -4.760  16.756  1.00  0.00     0.502 C 
ATOM     31  H72 UNL     1       4.330  -6.187  17.994  1.00  0.00     0.279 HD
ATOM     32  H71 UNL     1       3.487  -5.886  16.766  1.00  0.00     0.279 HD
ENDBRANCH  25  26
ENDBRANCH  24  25
ENDBRANCH  22  24
ENDBRANCH  17  22
ENDBRANCH   1  17
TORSDOF 12
ENDMDL
MODEL 2
REMARK VINA RESULT: -7.683788204      0.235      1.156
REMARK  12 active torsions:
REMARK  status: ('A' for Active; 'I' for Inactive)
REMARK    1  A    between atoms: C2_2  and  C3_3 
REMARK    2  A    between atoms: C3_3  and  N1_4 
REMARK    3  A    between atoms: N2_7  and  C6_8 
REMARK    4  A    between atoms: C6_8  and  C7_9 
REMARK    5  A    between atoms: C7_9  and  C8_10 
REMARK    6  A    between atoms: C8_10  and  N3_11 
REMARK    7  A    between atoms: N3_11  and  S1_13 
REMARK    8  A    between atoms: S1_13  and  N4_14 
REMARK    9  A    between atoms: S1_13  and  N5_18 
REMARK   10  A    between atoms: N5_18  and  C9_20 
REMARK   11  A    between atoms: C9_20  and  C10_21 
REMARK   12  A    between atoms: C10_21  and  N6_22 
ROOT
HETATM    1  N3  UNL     1      11.415  -4.566  18.917  1.00  0.00    -0.320 N 
ATOM      2  H3  UNL     1      11.282  -4.100  19.814  1.00  0.00     0.172 HD
ENDROOT
BRANCH   1   3
HETATM    3  C8  UNL     1      12.400  -5.563  18.875  1.00  0.00     0.133 C 
BRANCH   3   4
HETATM    4  C7  UNL     1      13.216  -5.424  20.198  1.00  0.00     0.048 C 
BRANCH   4   5
HETATM    5  C6  UNL     1      14.615  -5.845  19.970  1.00  0.00     0.239 C 
BRANCH   5   6
HETATM    6  N2  UNL     1      15.037  -6.754  21.046  1.00  0.00    -0.062 N 
HETATM    7  C5  UNL     1      14.567  -6.146  22.314  1.00  0.00     0.265 C 
HETATM    8  C4  UNL     1      14.989  -7.021  23.424  1.00  0.00     0.265 C 
HETATM    9  N1  UNL     1      15.597  -8.297  22.973  1.00  0.00    -0.062 N 
HETATM   10  C15 UNL     1      16.790  -7.928  22.170  1.00  0.00     0.265 C 
HETATM   11  C17 UNL     1      14.685  -8.936  22.107  1.00  0.00     0.265 C 
HETATM   12  C14 UNL     1      16.467  -6.845  21.167  1.00  0.00     0.265 C 
HETATM   13  C16 UNL     1      14.392  -8.012  20.903  1.00  0.00     0.265 C 
BRANCH   9  14
HETATM   14  C3  UNL     1      16.004  -8.939  24.172  1.00  0.00     0.237 C 
BRANCH  14  15
HETATM   15  C2  UNL     1      17.425  -9.199  24.443  1.00  0.00     0.023 C 
HETATM   16  C1  UNL     1      17.722  -9.995  25.678  1.00  0.00     0.007 C 
ENDBRANCH  14  15
ENDBRANCH   9  14
ENDBRANCH   5   6
ENDBRANCH   4   5
ENDBRANCH   3   4
ENDBRANCH   1   3
BRANCH   1  17
HETATM   17  S1  UNL     1      10.462  -4.070  17.696  1.00  0.00     0.188 S 
HETATM   18  O1  UNL     1      11.342  -3.049  16.863  1.00  0.00    -0.206 OA
BRANCH  17  19
HETATM   19  N4  UNL     1      10.278  -5.298  16.672  1.00  0.00    -0.329 N 
ATOM     20  H42 UNL     1       9.594  -6.048  16.772  1.00  0.00     0.168 HD
ATOM     21  H41 UNL     1      10.959  -5.189  15.921  1.00  0.00     0.168 HD
ENDBRANCH  17  19
BRANCH  17  22
HETATM   22  N5  UNL     1       8.942  -3.388  17.872  1.00  0.00    -0.318 N 
ATOM     23  H5  UNL     1       8.613  -3.075  18.785  1.00  0.00     0.172 HD
BRANCH  22  24
HETATM   24  C9  UNL     1       8.116  -3.256  16.709  1.00  0.00     0.162 C 
BRANCH  24  25
HETATM   25  C10 UNL     1       6.732  -2.935  17.202  1.00  0.00     0.294 C 
BRANCH  25  26
HETATM   26  N6  UNL     1       5.928  -3.999  17.735  1.00  0.00     0.117 N 
HETATM   27  C11 UNL     1       4.754  -3.292  18.310  1.00  0.00     0.302 C 
HETATM   28  C12 UNL     1       3.592  -4.177  18.054  1.00  0.00     0.264 C 
HETATM   29  N7  UNL     1       4.124  -5.304  17.340  1.00  0.00    -0.047 N 
HETATM   30  C13 UNL     1       5.336  -4.779  16.681  1.00  0.00     0.502 C 
ATOM     31  H72 UNL     1       4.287  -6.127  17.921  1.00  0.00     0.279 HD
ATOM     32  H71 UNL     1       3.460  -5.747  16.703  1.00  0.00     0.279 HD
ENDBRANCH  25  26
ENDBRANCH  24  25
ENDBRANCH  22  24
ENDBRANCH  17  22
ENDBRANCH   1  17
TORSDOF 12
ENDMDL
MODEL 3
REMARK VINA RESULT: -7.682942070      0.466      1.213
REMARK  12 active torsions:
REMARK  status: ('A' for Active; 'I' for Inactive)
REMARK    1  A    between atoms: C2_2  and  C3_3 
REMARK    2  A    between atoms: C3_3  and  N1_4 
REMARK    3  A    between atoms: N2_7  and  C6_8 
REMARK    4  A    between atoms: C6_8  and  C7_9 
REMARK    5  A    between atoms: C7_9  and  C8_10 
REMARK    6  A    between atoms: C8_10  and  N3_11 
REMARK    7  A    between atoms: N3_11  and  S1_13 
REMARK    8  A    between atoms: S1_13  and  N4_14 
REMARK    9  A    between atoms: S1_13  and  N5_18 
REMARK   10  A    between atoms: N5_18  and  C9_20 
REMARK   11  A    between atoms: C9_20  and  C10_21 
REMARK   12  A    between atoms: C10_21  and  N6_22 
ROOT
HETATM    1  N3  UNL     1      11.492  -4.594  18.950  1.00  0.00    -0.320 N 
ATOM      2  H3  UNL     1      11.352  -4.113  19.838  1.00  0.00     0.172 HD
ENDROOT
BRANCH   1   3
HETATM    3  C8  UNL     1      12.466  -5.603  18.936  1.00  0.00     0.133 C 
BRANCH   3   4
HETATM    4  C7  UNL     1      13.182  -5.535  20.322  1.00  0.00     0.048 C 
BRANCH   4   5
HETATM    5  C6  UNL     1      14.608  -5.892  20.165  1.00  0.00     0.239 C 
BRANCH   5   6
HETATM    6  N2  UNL     1      15.026  -6.750  21.284  1.00  0.00    -0.062 N 
HETATM    7  C5  UNL     1      16.503  -6.849  21.204  1.00  0.00     0.265 C 
HETATM    8  C4  UNL     1      16.963  -7.722  22.300  1.00  0.00     0.265 C 
HETATM    9  N1  UNL     1      15.883  -8.108  23.241  1.00  0.00    -0.062 N 
HETATM   10  C15 UNL     1      14.873  -8.840  22.434  1.00  0.00     0.265 C 
HETATM   11  C17 UNL     1      15.271  -6.929  23.717  1.00  0.00     0.265 C 
HETATM   12  C14 UNL     1      14.541  -8.098  21.161  1.00  0.00     0.265 C 
HETATM   13  C16 UNL     1      14.700  -6.134  22.521  1.00  0.00     0.265 C 
BRANCH   9  14
HETATM   14  C3  UNL     1      16.507  -9.000  24.152  1.00  0.00     0.237 C 
BRANCH  14  15
HETATM   15  C2  UNL     1      17.970  -9.124  24.206  1.00  0.00     0.023 C 
HETATM   16  C1  UNL     1      18.545  -9.551  25.521  1.00  0.00     0.007 C 
ENDBRANCH  14  15
ENDBRANCH   9  14
ENDBRANCH   5   6
ENDBRANCH   4   5
ENDBRANCH   3   4
ENDBRANCH   1   3
BRANCH   1  17
HETATM   17  S1  UNL     1      10.562  -4.105  17.709  1.00  0.00     0.188 S 
HETATM   18  O1  UNL     1      11.455  -3.083  16.890  1.00  0.00    -0.206 OA
BRANCH  17  19
HETATM   19  N4  UNL     1      10.404  -5.337  16.684  1.00  0.00    -0.329 N 
ATOM     20  H42 UNL     1       9.529  -5.818  16.477  1.00  0.00     0.168 HD
ATOM     21  H41 UNL     1      11.322  -5.541  16.290  1.00  0.00     0.168 HD
ENDBRANCH  17  19
BRANCH  17  22
HETATM   22  N5  UNL     1       9.037  -3.428  17.851  1.00  0.00    -0.318 N 
ATOM     23  H5  UNL     1       8.714  -3.053  18.742  1.00  0.00     0.172 HD
BRANCH  22  24
HETATM   24  C9  UNL     1       8.197  -3.389  16.691  1.00  0.00     0.162 C 
BRANCH  24  25
HETATM   25  C10 UNL     1       6.820  -3.024  17.171  1.00  0.00     0.294 C 
BRANCH  25  26
HETATM   26  N6  UNL     1       5.990  -4.055  17.728  1.00  0.00     0.117 N 
HETATM   27  C11 UNL     1       4.846  -3.304  18.307  1.00  0.00     0.302 C 
HETATM   28  C12 UNL     1       3.654  -4.156  18.076  1.00  0.00     0.264 C 
HETATM   29  N7  UNL     1       4.142  -5.309  17.372  1.00  0.00    -0.047 N 
HETATM   30  C13 UNL     1       5.362  -4.830  16.692  1.00  0.00     0.502 C 
ATOM     31  H72 UNL     1       4.286  -6.128  17.962  1.00  0.00     0.279 HD
ATOM     32  H71 UNL     1       3.457  -5.738  16.749  1.00  0.00     0.279 HD
ENDBRANCH  25  26
ENDBRANCH  24  25
ENDBRANCH  22  24
ENDBRANCH  17  22
ENDBRANCH   1  17
TORSDOF 12
ENDMDL
MODEL 4
REMARK VINA RESULT: -7.660857819      0.809      1.441
REMARK  12 active torsions:
REMARK  status: ('A' for Active; 'I' for Inactive)
REMARK    1  A    between atoms: C2_2  and  C3_3 
REMARK    2  A    between atoms: C3_3  and  N1_4 
REMARK    3  A    between atoms: N2_7  and  C6_8 
REMARK    4  A    between atoms: C6_8  and  C7_9 
REMARK    5  A    between atoms: C7_9  and  C8_10 
REMARK    6  A    between atoms: C8_10  and  N3_11 
REMARK    7  A    between atoms: N3_11  and  S1_13 
REMARK    8  A    between atoms: S1_13  and  N4_14 
REMARK    9  A    between atoms: S1_13  and  N5_18 
REMARK   10  A    between atoms: N5_18  and  C9_20 
REMARK   11  A    between atoms: C9_20  and  C10_21 
REMARK   12  A    between atoms: C10_21  and  N6_22 
ROOT
HETATM    1  N3  UNL     1      10.669  -4.539  18.594  1.00  0.00    -0.320 N 
ATOM      2  H3  UNL     1      10.334  -5.349  19.116  1.00  0.00     0.172 HD
ENDROOT
BRANCH   1   3
HETATM    3  C8  UNL     1      11.970  -4.107  18.884  1.00  0.00     0.133 C 
BRANCH   3   4
HETATM    4  C7  UNL     1      12.675  -5.301  19.602  1.00  0.00     0.048 C 
BRANCH   4   5
HETATM    5  C6  UNL     1      13.465  -4.800  20.747  1.00  0.00     0.239 C 
BRANCH   5   6
HETATM    6  N2  UNL     1      14.257  -5.900  21.318  1.00  0.00    -0.062 N 
HETATM    7  C5  UNL     1      15.665  -5.645  20.929  1.00  0.00     0.265 C 
HETATM    8  C4  UNL     1      16.493  -6.740  21.467  1.00  0.00     0.265 C 
HETATM    9  N1  UNL     1      15.745  -7.667  22.352  1.00  0.00    -0.062 N 
HETATM   10  C15 UNL     1      14.658  -8.247  21.521  1.00  0.00     0.265 C 
HETATM   11  C17 UNL     1      15.138  -6.906  23.372  1.00  0.00     0.265 C 
HETATM   12  C14 UNL     1      13.923  -7.177  20.749  1.00  0.00     0.265 C 
HETATM   13  C16 UNL     1      14.186  -5.867  22.736  1.00  0.00     0.265 C 
BRANCH   9  14
HETATM   14  C3  UNL     1      16.685  -8.677  22.685  1.00  0.00     0.237 C 
BRANCH  14  15
HETATM   15  C2  UNL     1      16.937  -9.042  24.086  1.00  0.00     0.023 C 
HETATM   16  C1  UNL     1      18.373  -9.064  24.510  1.00  0.00     0.007 C 
ENDBRANCH  14  15
ENDBRANCH   9  14
ENDBRANCH   5   6
ENDBRANCH   4   5
ENDBRANCH   3   4
ENDBRANCH   1   3
BRANCH   1  17
HETATM   17  S1  UNL     1       9.632  -3.895  17.518  1.00  0.00     0.188 S 
HETATM   18  O1  UNL     1      10.503  -2.910  16.633  1.00  0.00    -0.206 OA
BRANCH  17  19
HETATM   19  N4  UNL     1       9.219  -5.044  16.469  1.00  0.00    -0.329 N 
ATOM     20  H42 UNL     1       9.779  -5.867  16.251  1.00  0.00     0.168 HD
ATOM     21  H41 UNL     1       8.312  -4.799  16.072  1.00  0.00     0.168 HD
ENDBRANCH  17  19
BRANCH  17  22
HETATM   22  N5  UNL     1       8.213  -3.094  17.903  1.00  0.00    -0.318 N 
ATOM     23  H5  UNL     1       7.901  -3.022  18.872  1.00  0.00     0.172 HD
BRANCH  22  24
HETATM   24  C9  UNL     1       7.448  -2.513  16.841  1.00  0.00     0.162 C 
BRANCH  24  25
HETATM   25  C10 UNL     1       6.006  -2.585  17.263  1.00  0.00     0.294 C 
BRANCH  25  26
HETATM   26  N6  UNL     1       5.505  -3.822  17.794  1.00  0.00     0.117 N 
HETATM   27  C11 UNL     1       4.260  -3.419  18.498  1.00  0.00     0.302 C 
HETATM   28  C12 UNL     1       3.303  -4.530  18.280  1.00  0.00     0.264 C 
HETATM   29  N7  UNL     1       4.005  -5.481  17.464  1.00  0.00    -0.047 N 
HETATM   30  C13 UNL     1       5.010  -4.672  16.745  1.00  0.00     0.502 C 
ATOM     31  H72 UNL     1       4.395  -6.269  17.982  1.00  0.00     0.279 HD
ATOM     32  H71 UNL     1       3.402  -6.035  16.855  1.00  0.00     0.279 HD
ENDBRANCH  25  26
ENDBRANCH  24  25
ENDBRANCH  22  24
ENDBRANCH  17  22
ENDBRANCH   1  17
TORSDOF 12
ENDMDL
MODEL 5
REMARK VINA RESULT: -7.623573346      1.809      2.284
REMARK  12 active torsions:
REMARK  status: ('A' for Active; 'I' for Inactive)
REMARK    1  A    between atoms: C2_2  and  C3_3 
REMARK    2  A    between atoms: C3_3  and  N1_4 
REMARK    3  A    between atoms: N2_7  and  C6_8 
REMARK    4  A    between atoms: C6_8  and  C7_9 
REMARK    5  A    between atoms: C7_9  and  C8_10 
REMARK    6  A    between atoms: C8_10  and  N3_11 
REMARK    7  A    between atoms: N3_11  and  S1_13 
REMARK    8  A    between atoms: S1_13  and  N4_14 
REMARK    9  A    between atoms: S1_13  and  N5_18 
REMARK   10  A    between atoms: N5_18  and  C9_20 
REMARK   11  A    between atoms: C9_20  and  C10_21 
REMARK   12  A    between atoms: C10_21  and  N6_22 
ROOT
HETATM    1  N3  UNL     1      11.718  -4.569  19.095  1.00  0.00    -0.320 N 
ATOM      2  H3  UNL     1      11.644  -4.065  19.979  1.00  0.00     0.172 HD
ENDROOT
BRANCH   1   3
HETATM    3  C8  UNL     1      12.676  -5.591  19.040  1.00  0.00     0.133 C 
BRANCH   3   4
HETATM    4  C7  UNL     1      13.395  -5.587  20.425  1.00  0.00     0.048 C 
BRANCH   4   5
HETATM    5  C6  UNL     1      14.785  -6.068  20.268  1.00  0.00     0.239 C 
BRANCH   5   6
HETATM    6  N2  UNL     1      15.166  -6.866  21.442  1.00  0.00    -0.062 N 
HETATM    7  C5  UNL     1      14.463  -8.165  21.308  1.00  0.00     0.265 C 
HETATM    8  C4  UNL     1      14.803  -8.992  22.481  1.00  0.00     0.265 C 
HETATM    9  N1  UNL     1      15.841  -8.386  23.351  1.00  0.00    -0.062 N 
HETATM   10  C15 UNL     1      15.286  -7.090  23.819  1.00  0.00     0.265 C 
HETATM   11  C17 UNL     1      16.970  -8.100  22.554  1.00  0.00     0.265 C 
HETATM   12  C14 UNL     1      14.696  -6.298  22.676  1.00  0.00     0.265 C 
HETATM   13  C16 UNL     1      16.562  -7.126  21.425  1.00  0.00     0.265 C 
BRANCH   9  14
HETATM   14  C3  UNL     1      15.956  -9.283  24.445  1.00  0.00     0.237 C 
BRANCH  14  15
HETATM   15  C2  UNL     1      17.272  -9.643  24.992  1.00  0.00     0.023 C 
HETATM   16  C1  UNL     1      17.259 -10.449  26.255  1.00  0.00     0.007 C 
ENDBRANCH  14  15
ENDBRANCH   9  14
ENDBRANCH   5   6
ENDBRANCH   4   5
ENDBRANCH   3   4
ENDBRANCH   1   3
BRANCH   1  17
HETATM   17  S1  UNL     1      10.711  -4.096  17.908  1.00  0.00     0.188 S 
HETATM   18  O1  UNL     1      11.555  -3.095  17.015  1.00  0.00    -0.206 OA
BRANCH  17  19
HETATM   19  N4  UNL     1      10.480  -5.345  16.919  1.00  0.00    -0.329 N 
ATOM     20  H42 UNL     1      10.441  -6.322  17.207  1.00  0.00     0.168 HD
ATOM     21  H41 UNL     1      10.383  -4.984  15.970  1.00  0.00     0.168 HD
ENDBRANCH  17  19
BRANCH  17  22
HETATM   22  N5  UNL     1       9.202  -3.407  18.136  1.00  0.00    -0.318 N 
ATOM     23  H5  UNL     1       9.058  -2.692  18.849  1.00  0.00     0.172 HD
BRANCH  22  24
HETATM   24  C9  UNL     1       8.119  -3.846  17.308  1.00  0.00     0.162 C 
BRANCH  24  25
HETATM   25  C10 UNL     1       7.801  -2.707  16.380  1.00  0.00     0.294 C 
BRANCH  25  26
HETATM   26  N6  UNL     1       7.189  -3.001  15.115  1.00  0.00     0.117 N 
HETATM   27  C11 UNL     1       6.474  -1.743  14.774  1.00  0.00     0.302 C 
HETATM   28  C12 UNL     1       6.603  -1.598  13.304  1.00  0.00     0.264 C 
HETATM   29  N7  UNL     1       7.385  -2.726  12.879  1.00  0.00    -0.047 N 
HETATM   30  C13 UNL     1       8.174  -3.091  14.071  1.00  0.00     0.502 C 
ATOM     31  H72 UNL     1       6.835  -3.492  12.490  1.00  0.00     0.279 HD
ATOM     32  H71 UNL     1       7.944  -2.554  12.043  1.00  0.00     0.279 HD
ENDBRANCH  25  26
ENDBRANCH  24  25
ENDBRANCH  22  24
ENDBRANCH  17  22
ENDBRANCH   1  17
TORSDOF 12
ENDMDL
