MODEL 1
REMARK VINA RESULT: -7.373779927      0.000      0.000
REMARK  14 active torsions:
REMARK  status: ('A' for Active; 'I' for Inactive)
REMARK    1  A    between atoms: C2_2  and  C3_3 
REMARK    2  A    between atoms: C3_3  and  C4_4 
REMARK    3  A    between atoms: C4_4  and  N1_5 
REMARK    4  A    between atoms: N1_5  and  C7_8 
REMARK    5  A    between atoms: C7_8  and  C8_9 
REMARK    6  A    between atoms: C8_9  and  C9_10 
REMARK    7  A    between atoms: C9_10  and  N2_11 
REMARK    8  A    between atoms: N2_11  and  C10_12 
REMARK    9  A    between atoms: C13_15  and  N3_16 
REMARK   10  A    between atoms: C14_20  and  N4_21 
REMARK       I    between atoms: N4_21  and  C15_23 
REMARK   11  A    between atoms: C15_23  and  C16_25 
REMARK   12  A    between atoms: C16_25  and  C17_26 
REMARK   13  A    between atoms: C17_26  and  N5_27 
REMARK   14  A    between atoms: N6_34  and  N7_36 
ROOT
HETATM    1  N2  UNL     1      13.006  -4.493  18.375  1.00  0.00    -0.061 N 
HETATM    2  C18 UNL     1      11.985  -5.568  18.386  1.00  0.00     0.239 C 
HETATM    3  C19 UNL     1      10.941  -4.475  18.465  1.00  0.00     0.056 C 
HETATM    4  C20 UNL     1      12.003  -3.693  17.708  1.00  0.00     0.239 C 
ENDROOT
BRANCH   1   5
HETATM    5  C9  UNL     1      14.068  -4.851  17.474  1.00  0.00     0.239 C 
BRANCH   5   6
HETATM    6  C8  UNL     1      13.849  -6.123  16.712  1.00  0.00     0.056 C 
BRANCH   6   7
HETATM    7  C7  UNL     1      14.928  -7.137  16.774  1.00  0.00     0.238 C 
BRANCH   7   8
HETATM    8  N1  UNL     1      15.930  -7.127  15.757  1.00  0.00    -0.074 N 
HETATM    9  C5  UNL     1      15.409  -6.494  14.566  1.00  0.00     0.272 C 
HETATM   10  C6  UNL     1      16.481  -8.416  15.450  1.00  0.00     0.272 C 
BRANCH   8  11
HETATM   11  C4  UNL     1      17.076  -6.339  16.264  1.00  0.00     0.242 C 
BRANCH  11  12
HETATM   12  C3  UNL     1      18.191  -7.223  16.765  1.00  0.00     0.081 C 
BRANCH  12  13
HETATM   13  C2  UNL     1      18.462  -6.808  18.162  1.00  0.00     0.003 C 
HETATM   14  C1  UNL     1      19.219  -5.570  18.438  1.00  0.00     0.065 C 
HETATM   15  N6  UNL     1      18.044  -7.515  19.145  1.00  0.00    -0.295 N 
ATOM     16  H6  UNL     1      18.252  -7.195  20.091  1.00  0.00     0.187 HD
BRANCH  15  17
HETATM   17  N7  UNL     1      17.321  -8.699  18.993  1.00  0.00    -0.249 N 
HETATM   18  N8  UNL     1      17.250  -9.473  19.983  1.00  0.00    -0.331 N 
ATOM     19  H82 UNL     1      17.711  -9.229  20.859  1.00  0.00     0.178 HD
ATOM     20  H81 UNL     1      16.721 -10.339  19.871  1.00  0.00     0.178 HD
ATOM     21  H7  UNL     1      16.865  -8.929  18.109  1.00  0.00     0.207 HD
ENDBRANCH  15  17
ENDBRANCH  12  13
ENDBRANCH  11  12
ENDBRANCH   8  11
ENDBRANCH   7   8
ENDBRANCH   6   7
ENDBRANCH   5   6
ENDBRANCH   1   5
BRANCH   1  22
HETATM   22  C10 UNL     1      13.310  -4.134  19.717  1.00  0.00     0.215 C 
HETATM   23  C11 UNL     1      13.702  -2.704  19.940  1.00  0.00     0.038 C 
HETATM   24  C12 UNL     1      14.599  -2.706  21.184  1.00  0.00     0.037 C 
HETATM   25  C13 UNL     1      14.595  -4.104  21.695  1.00  0.00     0.208 C 
HETATM   26  C14 UNL     1      14.373  -4.912  20.404  1.00  0.00     0.145 C 
BRANCH  25  27
HETATM   27  N3  UNL     1      13.569  -4.377  22.662  1.00  0.00    -0.073 N 
ATOM     28  H33 UNL     1      13.512  -5.379  22.848  1.00  0.00     0.274 HD
ATOM     29  H32 UNL     1      13.850  -4.044  23.584  1.00  0.00     0.274 HD
ATOM     30  H31 UNL     1      12.650  -4.008  22.416  1.00  0.00     0.274 HD
ENDBRANCH  25  27
BRANCH  26  31
HETATM   31  N4  UNL     1      13.911  -6.209  20.877  1.00  0.00    -0.352 N 
HETATM   32  C15 UNL     1      14.765  -7.257  21.262  1.00  0.00     0.219 C 
HETATM   33  O1  UNL     1      16.029  -7.169  21.233  1.00  0.00    -0.274 OA
ATOM     34  H4  UNL     1      12.905  -6.367  20.933  1.00  0.00     0.163 HD
BRANCH  32  35
HETATM   35  C16 UNL     1      14.202  -8.541  21.728  1.00  0.00     0.130 C 
BRANCH  35  36
HETATM   36  C17 UNL     1      14.816  -9.019  23.004  1.00  0.00     0.238 C 
BRANCH  36  37
HETATM   37  N5  UNL     1      13.854  -9.856  23.692  1.00  0.00    -0.079 N 
ATOM     38  H53 UNL     1      13.257  -9.326  24.328  1.00  0.00     0.274 HD
ATOM     39  H52 UNL     1      13.123 -10.204  23.072  1.00  0.00     0.274 HD
ATOM     40  H51 UNL     1      14.359 -10.607  24.164  1.00  0.00     0.274 HD
ENDBRANCH  36  37
ENDBRANCH  35  36
ENDBRANCH  32  35
ENDBRANCH  26  31
ENDBRANCH   1  22
TORSDOF 14
ENDMDL
MODEL 2
REMARK VINA RESULT: -7.343216776      1.987      3.757
REMARK  14 active torsions:
REMARK  status: ('A' for Active; 'I' for Inactive)
REMARK    1  A    between atoms: C2_2  and  C3_3 
REMARK    2  A    between atoms: C3_3  and  C4_4 
REMARK    3  A    between atoms: C4_4  and  N1_5 
REMARK    4  A    between atoms: N1_5  and  C7_8 
REMARK    5  A    between atoms: C7_8  and  C8_9 
REMARK    6  A    between atoms: C8_9  and  C9_10 
REMARK    7  A    between atoms: C9_10  and  N2_11 
REMARK    8  A    between atoms: N2_11  and  C10_12 
REMARK    9  A    between atoms: C13_15  and  N3_16 
REMARK   10  A    between atoms: C14_20  and  N4_21 
REMARK       I    between atoms: N4_21  and  C15_23 
REMARK   11  A    between atoms: C15_23  and  C16_25 
REMARK   12  A    between atoms: C16_25  and  C17_26 
REMARK   13  A    between atoms: C17_26  and  N5_27 
REMARK   14  A    between atoms: N6_34  and  N7_36 
ROOT
HETATM    1  N2  UNL     1      13.341  -4.842  18.739  1.00  0.00    -0.061 N 
HETATM    2  C18 UNL     1      12.156  -5.724  18.609  1.00  0.00     0.239 C 
HETATM    3  C19 UNL     1      11.318  -4.466  18.545  1.00  0.00     0.056 C 
HETATM    4  C20 UNL     1      12.592  -3.896  17.941  1.00  0.00     0.239 C 
ENDROOT
BRANCH   1   5
HETATM    5  C9  UNL     1      14.436  -5.398  17.992  1.00  0.00     0.239 C 
BRANCH   5   6
HETATM    6  C8  UNL     1      14.219  -6.794  17.494  1.00  0.00     0.056 C 
BRANCH   6   7
HETATM    7  C7  UNL     1      15.304  -7.398  16.687  1.00  0.00     0.238 C 
BRANCH   7   8
HETATM    8  N1  UNL     1      15.251  -7.264  15.266  1.00  0.00    -0.074 N 
HETATM    9  C5  UNL     1      16.448  -6.606  14.793  1.00  0.00     0.272 C 
HETATM   10  C6  UNL     1      14.076  -6.602  14.774  1.00  0.00     0.272 C 
BRANCH   8  11
HETATM   11  C4  UNL     1      15.184  -8.626  14.690  1.00  0.00     0.242 C 
BRANCH  11  12
HETATM   12  C3  UNL     1      16.041  -8.759  13.456  1.00  0.00     0.081 C 
BRANCH  12  13
HETATM   13  C2  UNL     1      15.116  -9.011  12.326  1.00  0.00     0.003 C 
HETATM   14  C1  UNL     1      14.358 -10.277  12.252  1.00  0.00     0.065 C 
HETATM   15  N6  UNL     1      14.962  -8.138  11.402  1.00  0.00    -0.295 N 
ATOM     16  H6  UNL     1      14.316  -8.350  10.642  1.00  0.00     0.187 HD
BRANCH  15  17
HETATM   17  N7  UNL     1      15.630  -6.912  11.379  1.00  0.00    -0.249 N 
HETATM   18  N8  UNL     1      16.672  -6.826  10.677  1.00  0.00    -0.331 N 
ATOM     19  H82 UNL     1      17.004  -7.634  10.150  1.00  0.00     0.178 HD
ATOM     20  H81 UNL     1      17.161  -5.930  10.660  1.00  0.00     0.178 HD
ATOM     21  H7  UNL     1      15.285  -6.113  11.911  1.00  0.00     0.207 HD
ENDBRANCH  15  17
ENDBRANCH  12  13
ENDBRANCH  11  12
ENDBRANCH   8  11
ENDBRANCH   7   8
ENDBRANCH   6   7
ENDBRANCH   5   6
ENDBRANCH   1   5
BRANCH   1  22
HETATM   22  C10 UNL     1      13.518  -4.510  20.111  1.00  0.00     0.215 C 
HETATM   23  C11 UNL     1      13.795  -3.066  20.405  1.00  0.00     0.038 C 
HETATM   24  C12 UNL     1      14.594  -3.052  21.714  1.00  0.00     0.037 C 
HETATM   25  C13 UNL     1      14.645  -4.464  22.182  1.00  0.00     0.208 C 
HETATM   26  C14 UNL     1      14.575  -5.241  20.855  1.00  0.00     0.145 C 
BRANCH  25  27
HETATM   27  N3  UNL     1      13.569  -4.836  23.059  1.00  0.00    -0.073 N 
ATOM     28  H33 UNL     1      13.931  -5.309  23.887  1.00  0.00     0.274 HD
ATOM     29  H32 UNL     1      13.162  -4.009  23.494  1.00  0.00     0.274 HD
ATOM     30  H31 UNL     1      12.842  -5.399  22.616  1.00  0.00     0.274 HD
ENDBRANCH  25  27
BRANCH  26  31
HETATM   31  N4  UNL     1      14.167  -6.580  21.253  1.00  0.00    -0.352 N 
HETATM   32  C15 UNL     1      15.059  -7.643  21.474  1.00  0.00     0.219 C 
HETATM   33  O1  UNL     1      16.315  -7.533  21.346  1.00  0.00    -0.274 OA
ATOM     34  H4  UNL     1      13.170  -6.758  21.379  1.00  0.00     0.163 HD
BRANCH  32  35
HETATM   35  C16 UNL     1      14.549  -8.971  21.875  1.00  0.00     0.130 C 
BRANCH  35  36
HETATM   36  C17 UNL     1      14.718  -9.244  23.335  1.00  0.00     0.238 C 
BRANCH  36  37
HETATM   37  N5  UNL     1      13.576 -10.011  23.793  1.00  0.00    -0.079 N 
ATOM     38  H53 UNL     1      13.244  -9.709  24.709  1.00  0.00     0.274 HD
ATOM     39  H52 UNL     1      12.729  -9.807  23.264  1.00  0.00     0.274 HD
ATOM     40  H51 UNL     1      13.823 -11.001  23.772  1.00  0.00     0.274 HD
ENDBRANCH  36  37
ENDBRANCH  35  36
ENDBRANCH  32  35
ENDBRANCH  26  31
ENDBRANCH   1  22
TORSDOF 14
ENDMDL
MODEL 3
REMARK VINA RESULT: -7.329228292      1.916      3.518
REMARK  14 active torsions:
REMARK  status: ('A' for Active; 'I' for Inactive)
REMARK    1  A    between atoms: C2_2  and  C3_3 
REMARK    2  A    between atoms: C3_3  and  C4_4 
REMARK    3  A    between atoms: C4_4  and  N1_5 
REMARK    4  A    between atoms: N1_5  and  C7_8 
REMARK    5  A    between atoms: C7_8  and  C8_9 
REMARK    6  A    between atoms: C8_9  and  C9_10 
REMARK    7  A    between atoms: C9_10  and  N2_11 
REMARK    8  A    between atoms: N2_11  and  C10_12 
REMARK    9  A    between atoms: C13_15  and  N3_16 
REMARK   10  A    between atoms: C14_20  and  N4_21 
REMARK       I    between atoms: N4_21  and  C15_23 
REMARK   11  A    between atoms: C15_23  and  C16_25 
REMARK   12  A    between atoms: C16_25  and  C17_26 
REMARK   13  A    between atoms: C17_26  and  N5_27 
REMARK   14  A    between atoms: N6_34  and  N7_36 
ROOT
HETATM    1  N2  UNL     1      13.259  -4.796  18.506  1.00  0.00    -0.061 N 
HETATM    2  C18 UNL     1      12.227  -5.858  18.439  1.00  0.00     0.239 C 
HETATM    3  C19 UNL     1      11.193  -4.753  18.450  1.00  0.00     0.056 C 
HETATM    4  C20 UNL     1      12.315  -3.981  17.774  1.00  0.00     0.239 C 
ENDROOT
BRANCH   1   5
HETATM    5  C9  UNL     1      14.377  -5.162  17.680  1.00  0.00     0.239 C 
BRANCH   5   6
HETATM    6  C8  UNL     1      14.352  -6.571  17.170  1.00  0.00     0.056 C 
BRANCH   6   7
HETATM    7  C7  UNL     1      15.651  -7.279  17.085  1.00  0.00     0.238 C 
BRANCH   7   8
HETATM    8  N1  UNL     1      16.281  -7.394  15.809  1.00  0.00    -0.074 N 
HETATM    9  C5  UNL     1      16.938  -8.678  15.704  1.00  0.00     0.272 C 
HETATM   10  C6  UNL     1      17.191  -6.328  15.495  1.00  0.00     0.272 C 
BRANCH   8  11
HETATM   11  C4  UNL     1      15.224  -7.302  14.777  1.00  0.00     0.242 C 
BRANCH  11  12
HETATM   12  C3  UNL     1      15.243  -8.486  13.842  1.00  0.00     0.081 C 
BRANCH  12  13
HETATM   13  C2  UNL     1      15.121  -7.941  12.470  1.00  0.00     0.003 C 
HETATM   14  C1  UNL     1      15.461  -6.530  12.196  1.00  0.00     0.065 C 
HETATM   15  N6  UNL     1      14.722  -8.684  11.506  1.00  0.00    -0.295 N 
ATOM     16  H6  UNL     1      14.652  -8.271  10.577  1.00  0.00     0.187 HD
BRANCH  15  17
HETATM   17  N7  UNL     1      14.377 -10.029  11.659  1.00  0.00    -0.249 N 
HETATM   18  N8  UNL     1      15.198 -10.893  11.255  1.00  0.00    -0.331 N 
ATOM     19  H82 UNL     1      16.081 -10.605  10.833  1.00  0.00     0.178 HD
ATOM     20  H81 UNL     1      14.946 -11.876  11.367  1.00  0.00     0.178 HD
ATOM     21  H7  UNL     1      13.490 -10.301  12.083  1.00  0.00     0.207 HD
ENDBRANCH  15  17
ENDBRANCH  12  13
ENDBRANCH  11  12
ENDBRANCH   8  11
ENDBRANCH   7   8
ENDBRANCH   6   7
ENDBRANCH   5   6
ENDBRANCH   1   5
BRANCH   1  22
HETATM   22  C10 UNL     1      13.471  -4.447  19.868  1.00  0.00     0.215 C 
HETATM   23  C11 UNL     1      13.761  -3.000  20.135  1.00  0.00     0.038 C 
HETATM   24  C12 UNL     1      14.593  -2.972  21.424  1.00  0.00     0.037 C 
HETATM   25  C13 UNL     1      14.650  -4.377  21.910  1.00  0.00     0.208 C 
HETATM   26  C14 UNL     1      14.544  -5.171  20.596  1.00  0.00     0.145 C 
BRANCH  25  27
HETATM   27  N3  UNL     1      13.596  -4.734  22.818  1.00  0.00    -0.073 N 
ATOM     28  H33 UNL     1      13.533  -5.748  22.911  1.00  0.00     0.274 HD
ATOM     29  H32 UNL     1      13.850  -4.486  23.774  1.00  0.00     0.274 HD
ATOM     30  H31 UNL     1      12.685  -4.341  22.578  1.00  0.00     0.274 HD
ENDBRANCH  25  27
BRANCH  26  31
HETATM   31  N4  UNL     1      14.142  -6.504  21.021  1.00  0.00    -0.352 N 
HETATM   32  C15 UNL     1      15.041  -7.547  21.300  1.00  0.00     0.219 C 
HETATM   33  O1  UNL     1      16.299  -7.424  21.206  1.00  0.00    -0.274 OA
ATOM     34  H4  UNL     1      13.145  -6.692  21.123  1.00  0.00     0.163 HD
BRANCH  32  35
HETATM   35  C16 UNL     1      14.536  -8.869  21.726  1.00  0.00     0.130 C 
BRANCH  35  36
HETATM   36  C17 UNL     1      14.871  -9.192  23.146  1.00  0.00     0.238 C 
BRANCH  36  37
HETATM   37  N5  UNL     1      13.720  -9.827  23.756  1.00  0.00    -0.079 N 
ATOM     38  H53 UNL     1      12.892  -9.791  23.161  1.00  0.00     0.274 HD
ATOM     39  H52 UNL     1      13.812 -10.841  23.806  1.00  0.00     0.274 HD
ATOM     40  H51 UNL     1      13.564  -9.401  24.671  1.00  0.00     0.274 HD
ENDBRANCH  36  37
ENDBRANCH  35  36
ENDBRANCH  32  35
ENDBRANCH  26  31
ENDBRANCH   1  22
TORSDOF 14
ENDMDL
MODEL 4
REMARK VINA RESULT: -7.298417929      1.758      3.121
REMARK  14 active torsions:
REMARK  status: ('A' for Active; 'I' for Inactive)
REMARK    1  A    between atoms: C2_2  and  C3_3 
REMARK    2  A    between atoms: C3_3  and  C4_4 
REMARK    3  A    between atoms: C4_4  and  N1_5 
REMARK    4  A    between atoms: N1_5  and  C7_8 
REMARK    5  A    between atoms: C7_8  and  C8_9 
REMARK    6  A    between atoms: C8_9  and  C9_10 
REMARK    7  A    between atoms: C9_10  and  N2_11 
REMARK    8  A    between atoms: N2_11  and  C10_12 
REMARK    9  A    between atoms: C13_15  and  N3_16 
REMARK   10  A    between atoms: C14_20  and  N4_21 
REMARK       I    between atoms: N4_21  and  C15_23 
REMARK   11  A    between atoms: C15_23  and  C16_25 
REMARK   12  A    between atoms: C16_25  and  C17_26 
REMARK   13  A    between atoms: C17_26  and  N5_27 
REMARK   14  A    between atoms: N6_34  and  N7_36 
ROOT
HETATM    1  N2  UNL     1      13.311  -4.849  18.372  1.00  0.00    -0.061 N 
HETATM    2  C18 UNL     1      12.315  -5.948  18.392  1.00  0.00     0.239 C 
HETATM    3  C19 UNL     1      11.246  -4.883  18.274  1.00  0.00     0.056 C 
HETATM    4  C20 UNL     1      12.357  -4.143  17.545  1.00  0.00     0.239 C 
ENDROOT
BRANCH   1   5
HETATM    5  C9  UNL     1      14.458  -5.257  17.607  1.00  0.00     0.239 C 
BRANCH   5   6
HETATM    6  C8  UNL     1      14.526  -6.723  17.300  1.00  0.00     0.056 C 
BRANCH   6   7
HETATM    7  C7  UNL     1      15.857  -7.278  16.964  1.00  0.00     0.238 C 
BRANCH   7   8
HETATM    8  N1  UNL     1      16.096  -7.711  15.624  1.00  0.00    -0.074 N 
HETATM    9  C5  UNL     1      14.855  -8.152  15.027  1.00  0.00     0.272 C 
HETATM   10  C6  UNL     1      17.111  -8.717  15.494  1.00  0.00     0.272 C 
BRANCH   8  11
HETATM   11  C4  UNL     1      16.616  -6.551  14.865  1.00  0.00     0.242 C 
BRANCH  11  12
HETATM   12  C3  UNL     1      15.737  -6.207  13.688  1.00  0.00     0.081 C 
BRANCH  12  13
HETATM   13  C2  UNL     1      16.643  -5.968  12.541  1.00  0.00     0.003 C 
HETATM   14  C1  UNL     1      17.354  -4.679  12.409  1.00  0.00     0.065 C 
HETATM   15  N6  UNL     1      16.823  -6.871  11.652  1.00  0.00    -0.295 N 
ATOM     16  H6  UNL     1      17.455  -6.667  10.878  1.00  0.00     0.187 HD
BRANCH  15  17
HETATM   17  N7  UNL     1      16.200  -8.121  11.684  1.00  0.00    -0.249 N 
HETATM   18  N8  UNL     1      16.925  -9.131  11.885  1.00  0.00    -0.331 N 
ATOM     19  H82 UNL     1      17.931  -9.022  12.019  1.00  0.00     0.178 HD
ATOM     20  H81 UNL     1      16.470 -10.044  11.908  1.00  0.00     0.178 HD
ATOM     21  H7  UNL     1      15.193  -8.212  11.549  1.00  0.00     0.207 HD
ENDBRANCH  15  17
ENDBRANCH  12  13
ENDBRANCH  11  12
ENDBRANCH   8  11
ENDBRANCH   7   8
ENDBRANCH   6   7
ENDBRANCH   5   6
ENDBRANCH   1   5
BRANCH   1  22
HETATM   22  C10 UNL     1      13.482  -4.360  19.696  1.00  0.00     0.215 C 
HETATM   23  C11 UNL     1      13.793  -2.899  19.819  1.00  0.00     0.038 C 
HETATM   24  C12 UNL     1      14.579  -2.748  21.128  1.00  0.00     0.037 C 
HETATM   25  C13 UNL     1      14.588  -4.094  21.762  1.00  0.00     0.208 C 
HETATM   26  C14 UNL     1      14.512  -5.022  20.537  1.00  0.00     0.145 C 
BRANCH  25  27
HETATM   27  N3  UNL     1      13.494  -4.332  22.662  1.00  0.00    -0.073 N 
ATOM     28  H33 UNL     1      13.834  -4.727  23.539  1.00  0.00     0.274 HD
ATOM     29  H32 UNL     1      13.115  -3.449  23.004  1.00  0.00     0.274 HD
ATOM     30  H31 UNL     1      12.750  -4.913  22.275  1.00  0.00     0.274 HD
ENDBRANCH  25  27
BRANCH  26  31
HETATM   31  N4  UNL     1      14.065  -6.294  21.086  1.00  0.00    -0.352 N 
HETATM   32  C15 UNL     1      14.833  -7.471  21.074  1.00  0.00     0.219 C 
HETATM   33  O1  UNL     1      15.998  -7.535  20.578  1.00  0.00    -0.274 OA
ATOM     34  H4  UNL     1      13.137  -6.333  21.506  1.00  0.00     0.163 HD
BRANCH  32  35
HETATM   35  C16 UNL     1      14.293  -8.717  21.656  1.00  0.00     0.130 C 
BRANCH  35  36
HETATM   36  C17 UNL     1      14.843  -9.014  23.013  1.00  0.00     0.238 C 
BRANCH  36  37
HETATM   37  N5  UNL     1      13.896  -9.854  23.719  1.00  0.00    -0.079 N 
ATOM     38  H53 UNL     1      13.746 -10.750  23.256  1.00  0.00     0.274 HD
ATOM     39  H52 UNL     1      14.269 -10.212  24.598  1.00  0.00     0.274 HD
ATOM     40  H51 UNL     1      13.031  -9.329  23.846  1.00  0.00     0.274 HD
ENDBRANCH  36  37
ENDBRANCH  35  36
ENDBRANCH  32  35
ENDBRANCH  26  31
ENDBRANCH   1  22
TORSDOF 14
ENDMDL
MODEL 5
REMARK VINA RESULT: -7.271920157      1.994      5.496
REMARK  14 active torsions:
REMARK  status: ('A' for Active; 'I' for Inactive)
REMARK    1  A    between atoms: C2_2  and  C3_3 
REMARK    2  A    between atoms: C3_3  and  C4_4 
REMARK    3  A    between atoms: C4_4  and  N1_5 
REMARK    4  A    between atoms: N1_5  and  C7_8 
REMARK    5  A    between atoms: C7_8  and  C8_9 
REMARK    6  A    between atoms: C8_9  and  C9_10 
REMARK    7  A    between atoms: C9_10  and  N2_11 
REMARK    8  A    between atoms: N2_11  and  C10_12 
REMARK    9  A    between atoms: C13_15  and  N3_16 
REMARK   10  A    between atoms: C14_20  and  N4_21 
REMARK       I    between atoms: N4_21  and  C15_23 
REMARK   11  A    between atoms: C15_23  and  C16_25 
REMARK   12  A    between atoms: C16_25  and  C17_26 
REMARK   13  A    between atoms: C17_26  and  N5_27 
REMARK   14  A    between atoms: N6_34  and  N7_36 
ROOT
HETATM    1  N2  UNL     1      14.645  -3.943  19.026  1.00  0.00    -0.061 N 
HETATM    2  C18 UNL     1      14.890  -2.729  18.209  1.00  0.00     0.239 C 
HETATM    3  C19 UNL     1      13.702  -2.107  18.912  1.00  0.00     0.056 C 
HETATM    4  C20 UNL     1      14.144  -3.034  20.034  1.00  0.00     0.239 C 
ENDROOT
BRANCH   1   5
HETATM    5  C9  UNL     1      15.904  -4.513  19.423  1.00  0.00     0.239 C 
BRANCH   5   6
HETATM    6  C8  UNL     1      16.079  -4.696  20.901  1.00  0.00     0.056 C 
BRANCH   6   7
HETATM    7  C7  UNL     1      16.147  -6.088  21.403  1.00  0.00     0.238 C 
BRANCH   7   8
HETATM    8  N1  UNL     1      15.061  -6.581  22.189  1.00  0.00    -0.074 N 
HETATM    9  C5  UNL     1      14.248  -7.472  21.391  1.00  0.00     0.272 C 
HETATM   10  C6  UNL     1      14.255  -5.562  22.798  1.00  0.00     0.272 C 
BRANCH   8  11
HETATM   11  C4  UNL     1      15.637  -7.335  23.325  1.00  0.00     0.242 C 
BRANCH  11  12
HETATM   12  C3  UNL     1      15.876  -8.783  22.979  1.00  0.00     0.081 C 
BRANCH  12  13
HETATM   13  C2  UNL     1      17.340  -8.942  22.818  1.00  0.00     0.003 C 
HETATM   14  C1  UNL     1      18.250  -8.648  23.944  1.00  0.00     0.065 C 
HETATM   15  N6  UNL     1      17.834  -9.336  21.704  1.00  0.00    -0.295 N 
ATOM     16  H6  UNL     1      18.848  -9.433  21.634  1.00  0.00     0.187 HD
BRANCH  15  17
HETATM   17  N7  UNL     1      17.063  -9.640  20.581  1.00  0.00    -0.249 N 
HETATM   18  N8  UNL     1      17.173  -8.891  19.575  1.00  0.00    -0.331 N 
ATOM     19  H82 UNL     1      17.808  -8.092  19.597  1.00  0.00     0.178 HD
ATOM     20  H81 UNL     1      16.609  -9.113  18.754  1.00  0.00     0.178 HD
ATOM     21  H7  UNL     1      16.433 -10.442  20.575  1.00  0.00     0.207 HD
ENDBRANCH  15  17
ENDBRANCH  12  13
ENDBRANCH  11  12
ENDBRANCH   8  11
ENDBRANCH   7   8
ENDBRANCH   6   7
ENDBRANCH   5   6
ENDBRANCH   1   5
BRANCH   1  22
HETATM   22  C10 UNL     1      13.679  -4.752  18.368  1.00  0.00     0.215 C 
HETATM   23  C11 UNL     1      12.458  -5.094  19.168  1.00  0.00     0.038 C 
HETATM   24  C12 UNL     1      11.949  -6.427  18.604  1.00  0.00     0.037 C 
HETATM   25  C13 UNL     1      12.817  -6.740  17.436  1.00  0.00     0.208 C 
HETATM   26  C14 UNL     1      14.139  -6.059  17.833  1.00  0.00     0.145 C 
BRANCH  25  27
HETATM   27  N3  UNL     1      12.328  -6.236  16.183  1.00  0.00    -0.073 N 
ATOM     28  H33 UNL     1      11.965  -6.997  15.610  1.00  0.00     0.274 HD
ATOM     29  H32 UNL     1      11.472  -5.699  16.324  1.00  0.00     0.274 HD
ATOM     30  H31 UNL     1      13.009  -5.688  15.657  1.00  0.00     0.274 HD
ENDBRANCH  25  27
BRANCH  26  31
HETATM   31  N4  UNL     1      14.861  -5.935  16.575  1.00  0.00    -0.352 N 
HETATM   32  C15 UNL     1      15.865  -6.823  16.152  1.00  0.00     0.219 C 
HETATM   33  O1  UNL     1      16.239  -7.824  16.833  1.00  0.00    -0.274 OA
ATOM     34  H4  UNL     1      14.623  -5.155  15.963  1.00  0.00     0.163 HD
BRANCH  32  35
HETATM   35  C16 UNL     1      16.545  -6.613  14.857  1.00  0.00     0.130 C 
BRANCH  35  36
HETATM   36  C17 UNL     1      16.631  -7.859  14.035  1.00  0.00     0.238 C 
BRANCH  36  37
HETATM   37  N5  UNL     1      17.919  -8.479  14.276  1.00  0.00    -0.079 N 
ATOM     38  H53 UNL     1      18.539  -7.890  14.833  1.00  0.00     0.274 HD
ATOM     39  H52 UNL     1      17.860  -9.267  14.920  1.00  0.00     0.274 HD
ATOM     40  H51 UNL     1      18.327  -8.736  13.377  1.00  0.00     0.274 HD
ENDBRANCH  36  37
ENDBRANCH  35  36
ENDBRANCH  32  35
ENDBRANCH  26  31
ENDBRANCH   1  22
TORSDOF 14
ENDMDL
