MODEL 1
REMARK VINA RESULT: -6.853204349      0.000      0.000
REMARK  4 active torsions:
REMARK  status: ('A' for Active; 'I' for Inactive)
REMARK    1  A    between atoms: N1_1  and  C1_5 
REMARK    2  A    between atoms: C1_5  and  S1_6 
REMARK    3  A    between atoms: S1_6  and  C2_8 
REMARK    4  A    between atoms: C2_8  and  C3_9 
ROOT
HETATM    1  C3  UNL     1      17.015  -7.995  23.371  1.00  0.00     0.094 A 
HETATM    2  N2  UNL     1      16.143  -8.746  24.061  1.00  0.00    -0.343 N 
ATOM      3  H2  UNL     1      15.145  -8.821  23.863  1.00  0.00     0.167 HD
HETATM    4  C4  UNL     1      16.786  -9.384  25.054  1.00  0.00     0.060 A 
HETATM    5  C5  UNL     1      16.422 -10.262  26.054  1.00  0.00     0.032 A 
HETATM    6  C6  UNL     1      17.296 -10.786  26.973  1.00  0.00     0.002 A 
HETATM    7  C7  UNL     1      18.626 -10.395  26.870  1.00  0.00     0.002 A 
HETATM    8  C8  UNL     1      19.034  -9.526  25.895  1.00  0.00     0.032 A 
HETATM    9  C9  UNL     1      18.132  -9.017  24.988  1.00  0.00     0.060 A 
HETATM   10  N3  UNL     1      18.213  -8.173  23.947  1.00  0.00    -0.343 N 
ATOM     11  H3  UNL     1      19.074  -7.725  23.634  1.00  0.00     0.167 HD
ENDROOT
BRANCH   1  12
HETATM   12  C2  UNL     1      16.674  -7.135  22.186  1.00  0.00     0.186 C 
BRANCH  12  13
HETATM   13  S1  UNL     1      15.380  -7.862  21.264  1.00  0.00     0.047 S 
HETATM   14  O1  UNL     1      15.305  -9.509  21.360  1.00  0.00    -0.256 OA
BRANCH  13  15
HETATM   15  C1  UNL     1      13.840  -7.075  21.670  1.00  0.00     0.338 C 
BRANCH  15  16
HETATM   16  N1  UNL     1      13.898  -6.475  22.991  1.00  0.00    -0.069 N 
ATOM     17  H13 UNL     1      13.209  -6.884  23.622  1.00  0.00     0.275 HD
ATOM     18  H12 UNL     1      14.745  -6.746  23.491  1.00  0.00     0.275 HD
ATOM     19  H11 UNL     1      13.802  -5.461  22.935  1.00  0.00     0.275 HD
ENDBRANCH  15  16
ENDBRANCH  13  15
ENDBRANCH  12  13
ENDBRANCH   1  12
TORSDOF 4
ENDMDL
MODEL 2
REMARK VINA RESULT: -6.842911991      0.091      1.510
REMARK  4 active torsions:
REMARK  status: ('A' for Active; 'I' for Inactive)
REMARK    1  A    between atoms: N1_1  and  C1_5 
REMARK    2  A    between atoms: C1_5  and  S1_6 
REMARK    3  A    between atoms: S1_6  and  C2_8 
REMARK    4  A    between atoms: C2_8  and  C3_9 
ROOT
HETATM    1  C3  UNL     1      17.006  -8.012  23.309  1.00  0.00     0.094 A 
HETATM    2  N2  UNL     1      18.216  -8.146  23.876  1.00  0.00    -0.343 N 
ATOM      3  H2  UNL     1      19.069  -7.687  23.556  1.00  0.00     0.167 HD
HETATM    4  C4  UNL     1      18.129  -8.976  24.930  1.00  0.00     0.060 A 
HETATM    5  C5  UNL     1      19.015  -9.471  25.863  1.00  0.00     0.032 A 
HETATM    6  C6  UNL     1      18.667 -10.333  26.873  1.00  0.00     0.002 A 
HETATM    7  C7  UNL     1      17.333 -10.717  26.940  1.00  0.00     0.002 A 
HETATM    8  C8  UNL     1      16.417 -10.252  26.035  1.00  0.00     0.032 A 
HETATM    9  C9  UNL     1      16.798  -9.387  25.033  1.00  0.00     0.060 A 
HETATM   10  N3  UNL     1      16.162  -8.771  24.024  1.00  0.00    -0.343 N 
ATOM     11  H3  UNL     1      15.167  -8.867  23.827  1.00  0.00     0.167 HD
ENDROOT
BRANCH   1  12
HETATM   12  C2  UNL     1      16.699  -7.165  22.105  1.00  0.00     0.186 C 
BRANCH  12  13
HETATM   13  S1  UNL     1      15.340  -7.829  21.230  1.00  0.00     0.047 S 
HETATM   14  O1  UNL     1      15.136  -9.458  21.406  1.00  0.00    -0.256 OA
BRANCH  13  15
HETATM   15  C1  UNL     1      13.873  -6.903  21.612  1.00  0.00     0.338 C 
BRANCH  15  16
HETATM   16  N1  UNL     1      13.887  -6.456  22.993  1.00  0.00    -0.069 N 
ATOM     17  H13 UNL     1      14.304  -7.152  23.610  1.00  0.00     0.275 HD
ATOM     18  H12 UNL     1      14.557  -5.700  23.137  1.00  0.00     0.275 HD
ATOM     19  H11 UNL     1      12.950  -6.193  23.300  1.00  0.00     0.275 HD
ENDBRANCH  15  16
ENDBRANCH  13  15
ENDBRANCH  12  13
ENDBRANCH   1  12
TORSDOF 4
ENDMDL
MODEL 3
REMARK VINA RESULT: -6.725085293      1.567      2.219
REMARK  4 active torsions:
REMARK  status: ('A' for Active; 'I' for Inactive)
REMARK    1  A    between atoms: N1_1  and  C1_5 
REMARK    2  A    between atoms: C1_5  and  S1_6 
REMARK    3  A    between atoms: S1_6  and  C2_8 
REMARK    4  A    between atoms: C2_8  and  C3_9 
ROOT
HETATM    1  C3  UNL     1      15.348  -8.581  23.756  1.00  0.00     0.094 A 
HETATM    2  N2  UNL     1      16.675  -8.375  23.748  1.00  0.00    -0.343 N 
ATOM      3  H2  UNL     1      17.176  -7.794  23.075  1.00  0.00     0.167 HD
HETATM    4  C4  UNL     1      17.242  -9.052  24.761  1.00  0.00     0.060 A 
HETATM    5  C5  UNL     1      18.527  -9.214  25.234  1.00  0.00     0.032 A 
HETATM    6  C6  UNL     1      18.854  -9.984  26.323  1.00  0.00     0.002 A 
HETATM    7  C7  UNL     1      17.809 -10.630  26.973  1.00  0.00     0.002 A 
HETATM    8  C8  UNL     1      16.518 -10.499  26.540  1.00  0.00     0.032 A 
HETATM    9  C9  UNL     1      16.222  -9.719  25.444  1.00  0.00     0.060 A 
HETATM   10  N3  UNL     1      15.094  -9.396  24.790  1.00  0.00    -0.343 N 
ATOM     11  H3  UNL     1      14.165  -9.728  25.047  1.00  0.00     0.167 HD
ENDROOT
BRANCH   1  12
HETATM   12  C2  UNL     1      14.371  -7.992  22.777  1.00  0.00     0.186 C 
BRANCH  12  13
HETATM   13  S1  UNL     1      14.986  -8.136  21.148  1.00  0.00     0.047 S 
HETATM   14  O1  UNL     1      15.799  -9.540  20.839  1.00  0.00    -0.256 OA
BRANCH  13  15
HETATM   15  C1  UNL     1      13.680  -7.824  19.985  1.00  0.00     0.338 C 
BRANCH  15  16
HETATM   16  N1  UNL     1      14.219  -7.496  18.678  1.00  0.00    -0.069 N 
ATOM     17  H13 UNL     1      14.660  -6.577  18.671  1.00  0.00     0.275 HD
ATOM     18  H12 UNL     1      15.038  -8.062  18.455  1.00  0.00     0.275 HD
ATOM     19  H11 UNL     1      13.500  -7.575  17.958  1.00  0.00     0.275 HD
ENDBRANCH  15  16
ENDBRANCH  13  15
ENDBRANCH  12  13
ENDBRANCH   1  12
TORSDOF 4
ENDMDL
MODEL 4
REMARK VINA RESULT: -6.689405480      1.021      1.021
REMARK  4 active torsions:
REMARK  status: ('A' for Active; 'I' for Inactive)
REMARK    1  A    between atoms: N1_1  and  C1_5 
REMARK    2  A    between atoms: C1_5  and  S1_6 
REMARK    3  A    between atoms: S1_6  and  C2_8 
REMARK    4  A    between atoms: C2_8  and  C3_9 
ROOT
HETATM    1  C3  UNL     1      16.880  -7.962  23.291  1.00  0.00     0.094 A 
HETATM    2  N2  UNL     1      16.030  -8.721  24.001  1.00  0.00    -0.343 N 
ATOM      3  H2  UNL     1      15.031  -8.813  23.819  1.00  0.00     0.167 HD
HETATM    4  C4  UNL     1      16.698  -9.340  24.990  1.00  0.00     0.060 A 
HETATM    5  C5  UNL     1      16.363 -10.214  26.002  1.00  0.00     0.032 A 
HETATM    6  C6  UNL     1      17.260 -10.717  26.911  1.00  0.00     0.002 A 
HETATM    7  C7  UNL     1      18.581 -10.307  26.785  1.00  0.00     0.002 A 
HETATM    8  C8  UNL     1      18.961  -9.440  25.797  1.00  0.00     0.032 A 
HETATM    9  C9  UNL     1      18.037  -8.952  24.899  1.00  0.00     0.060 A 
HETATM   10  N3  UNL     1      18.089  -8.116  23.850  1.00  0.00    -0.343 N 
ATOM     11  H3  UNL     1      18.939  -7.658  23.520  1.00  0.00     0.167 HD
ENDROOT
BRANCH   1  12
HETATM   12  C2  UNL     1      16.508  -7.117  22.104  1.00  0.00     0.186 C 
BRANCH  12  13
HETATM   13  S1  UNL     1      15.609  -8.067  20.945  1.00  0.00     0.047 S 
HETATM   14  O1  UNL     1      15.820  -9.700  21.079  1.00  0.00    -0.256 OA
BRANCH  13  15
HETATM   15  C1  UNL     1      13.899  -7.587  20.975  1.00  0.00     0.338 C 
BRANCH  15  16
HETATM   16  N1  UNL     1      13.287  -7.768  19.671  1.00  0.00    -0.069 N 
ATOM     17  H13 UNL     1      13.960  -7.630  18.917  1.00  0.00     0.275 HD
ATOM     18  H12 UNL     1      13.057  -8.746  19.496  1.00  0.00     0.275 HD
ATOM     19  H11 UNL     1      12.472  -7.164  19.564  1.00  0.00     0.275 HD
ENDBRANCH  15  16
ENDBRANCH  13  15
ENDBRANCH  12  13
ENDBRANCH   1  12
TORSDOF 4
ENDMDL
MODEL 5
REMARK VINA RESULT: -6.670521203      1.009      1.813
REMARK  4 active torsions:
REMARK  status: ('A' for Active; 'I' for Inactive)
REMARK    1  A    between atoms: N1_1  and  C1_5 
REMARK    2  A    between atoms: C1_5  and  S1_6 
REMARK    3  A    between atoms: S1_6  and  C2_8 
REMARK    4  A    between atoms: C2_8  and  C3_9 
ROOT
HETATM    1  C3  UNL     1      16.891  -7.994  23.313  1.00  0.00     0.094 A 
HETATM    2  N2  UNL     1      18.117  -8.118  23.847  1.00  0.00    -0.343 N 
ATOM      3  H2  UNL     1      18.958  -7.652  23.505  1.00  0.00     0.167 HD
HETATM    4  C4  UNL     1      18.067  -8.952  24.900  1.00  0.00     0.060 A 
HETATM    5  C5  UNL     1      18.982  -9.442  25.807  1.00  0.00     0.032 A 
HETATM    6  C6  UNL     1      18.668 -10.310  26.823  1.00  0.00     0.002 A 
HETATM    7  C7  UNL     1      17.340 -10.706  26.925  1.00  0.00     0.002 A 
HETATM    8  C8  UNL     1      16.396 -10.246  26.047  1.00  0.00     0.032 A 
HETATM    9  C9  UNL     1      16.742  -9.376  25.038  1.00  0.00     0.060 A 
HETATM   10  N3  UNL     1      16.074  -8.762  24.048  1.00  0.00    -0.343 N 
ATOM     11  H3  UNL     1      15.074  -8.866  23.878  1.00  0.00     0.167 HD
ENDROOT
BRANCH   1  12
HETATM   12  C2  UNL     1      16.544  -7.146  22.121  1.00  0.00     0.186 C 
BRANCH  12  13
HETATM   13  S1  UNL     1      15.636  -8.082  20.958  1.00  0.00     0.047 S 
HETATM   14  O1  UNL     1      15.840  -9.716  21.077  1.00  0.00    -0.256 OA
BRANCH  13  15
HETATM   15  C1  UNL     1      13.928  -7.594  21.001  1.00  0.00     0.338 C 
BRANCH  15  16
HETATM   16  N1  UNL     1      13.321  -7.719  19.688  1.00  0.00    -0.069 N 
ATOM     17  H13 UNL     1      13.753  -7.091  19.011  1.00  0.00     0.275 HD
ATOM     18  H12 UNL     1      13.557  -8.608  19.247  1.00  0.00     0.275 HD
ATOM     19  H11 UNL     1      12.311  -7.580  19.739  1.00  0.00     0.275 HD
ENDBRANCH  15  16
ENDBRANCH  13  15
ENDBRANCH  12  13
ENDBRANCH   1  12
TORSDOF 4
ENDMDL
