MODEL 1
REMARK VINA RESULT: -6.185015977      0.000      0.000
REMARK  17 active torsions:
REMARK  status: ('A' for Active; 'I' for Inactive)
REMARK    1  A    between atoms: C8_10  and  C9_11 
REMARK    2  A    between atoms: C12_18  and  C13_19 
REMARK    3  A    between atoms: C13_19  and  O2_21 
REMARK    4  A    between atoms: O2_21  and  C14_22 
REMARK    5  A    between atoms: C14_22  and  C15_23 
REMARK    6  A    between atoms: C15_23  and  C16_24 
REMARK    7  A    between atoms: C16_24  and  C17_25 
REMARK    8  A    between atoms: C17_25  and  C18_26 
REMARK    9  A    between atoms: C22_30  and  S1_31 
REMARK   10  A    between atoms: S1_31  and  C23_34 
REMARK   11  A    between atoms: C23_34  and  C24_35 
REMARK   12  A    between atoms: C24_35  and  N3_36 
REMARK   13  A    between atoms: N3_36  and  C25_37 
REMARK   14  A    between atoms: N3_36  and  C28_40 
REMARK   15  A    between atoms: C25_37  and  C26_38 
REMARK   16  A    between atoms: C28_40  and  C29_41 
REMARK   17  A    between atoms: C29_41  and  C30_42 
ROOT
HETATM    1  C1  UNL     1      31.588  17.647  27.449  1.00  0.00     0.017 C 
HETATM    2  C2  UNL     1      30.618  17.048  27.050  1.00  0.00    -0.082 C 
HETATM    3  C3  UNL     1      29.442  16.348  26.556  1.00  0.00    -0.002 A 
HETATM    4  C4  UNL     1      28.854  15.373  27.190  1.00  0.00     0.076 A 
HETATM    5  C5  UNL     1      27.637  14.863  26.394  1.00  0.00     0.088 A 
HETATM    6  C6  UNL     1      27.750  15.629  25.214  1.00  0.00     0.032 A 
HETATM    7  C7  UNL     1      28.764  16.511  25.302  1.00  0.00     0.043 A 
HETATM    8  N1  UNL     1      27.067  15.197  23.980  1.00  0.00    -0.345 N 
ATOM      9  H1  UNL     1      26.646  15.850  23.318  1.00  0.00     0.167 HD
HETATM   10  C8  UNL     1      27.049  13.883  23.809  1.00  0.00     0.121 C 
HETATM   11  N2  UNL     1      27.337  13.048  24.895  1.00  0.00    -0.344 N 
ATOM     12  H2  UNL     1      27.332  12.043  24.725  1.00  0.00     0.167 HD
HETATM   13  C11 UNL     1      27.621  13.468  26.157  1.00  0.00     0.047 C 
HETATM   14  C12 UNL     1      27.499  12.425  27.174  1.00  0.00     0.063 C 
HETATM   15  C20 UNL     1      26.736  12.809  28.234  1.00  0.00     0.021 C 
HETATM   16  C21 UNL     1      26.262  14.176  28.266  1.00  0.00     0.022 C 
HETATM   17  C22 UNL     1      26.583  15.173  27.431  1.00  0.00     0.062 C 
ENDROOT
BRANCH  17  18
HETATM   18  S1  UNL     1      25.795  16.680  27.601  1.00  0.00     0.196 S 
HETATM   19  O3  UNL     1      25.319  17.248  26.278  1.00  0.00    -0.218 OA
HETATM   20  O4  UNL     1      24.438  16.344  28.304  1.00  0.00    -0.218 OA
BRANCH  18  21
HETATM   21  C23 UNL     1      26.515  17.897  28.536  1.00  0.00     0.131 C 
BRANCH  21  22
HETATM   22  C24 UNL     1      26.130  19.296  28.719  1.00  0.00     0.102 C 
BRANCH  22  23
HETATM   23  N3  UNL     1      26.606  20.333  27.947  1.00  0.00    -0.370 N 
BRANCH  23  24
HETATM   24  C25 UNL     1      25.995  21.540  27.686  1.00  0.00     0.063 C 
BRANCH  24  25
HETATM   25  C26 UNL     1      25.565  21.861  26.293  1.00  0.00     0.040 C 
HETATM   26  C27 UNL     1      24.700  20.843  25.627  1.00  0.00     0.010 C 
ENDBRANCH  24  25
ENDBRANCH  23  24
BRANCH  23  27
HETATM   27  C28 UNL     1      28.058  20.354  27.811  1.00  0.00     0.127 C 
BRANCH  27  28
HETATM   28  C29 UNL     1      28.558  20.038  26.449  1.00  0.00     0.020 C 
BRANCH  28  29
HETATM   29  C30 UNL     1      29.355  21.123  25.784  1.00  0.00    -0.003 C 
HETATM   30  C31 UNL     1      30.570  20.419  25.160  1.00  0.00     0.005 C 
ENDBRANCH  28  29
ENDBRANCH  27  28
ENDBRANCH  23  27
ENDBRANCH  22  23
ENDBRANCH  21  22
ENDBRANCH  18  21
ENDBRANCH  17  18
BRANCH  14  31
HETATM   31  C13 UNL     1      28.122  11.159  27.016  1.00  0.00     0.295 C 
HETATM   32  O1  UNL     1      27.613  10.267  26.305  1.00  0.00    -0.259 OA
BRANCH  31  33
HETATM   33  O2  UNL     1      29.326  10.832  27.639  1.00  0.00    -0.317 OA
BRANCH  33  34
HETATM   34  C14 UNL     1      30.572  11.195  27.087  1.00  0.00     0.179 C 
BRANCH  34  35
HETATM   35  C15 UNL     1      31.120  12.474  27.684  1.00  0.00     0.027 C 
BRANCH  35  36
HETATM   36  C16 UNL     1      31.817  13.220  26.561  1.00  0.00     0.002 C 
BRANCH  36  37
HETATM   37  C17 UNL     1      31.066  13.024  25.284  1.00  0.00    -0.000 C 
BRANCH  37  38
HETATM   38  C18 UNL     1      31.348  14.104  24.271  1.00  0.00    -0.005 C 
HETATM   39  C19 UNL     1      30.592  13.904  22.995  1.00  0.00     0.005 C 
ENDBRANCH  37  38
ENDBRANCH  36  37
ENDBRANCH  35  36
ENDBRANCH  34  35
ENDBRANCH  33  34
ENDBRANCH  31  33
ENDBRANCH  14  31
BRANCH  10  40
HETATM   40  C9  UNL     1      26.432  13.255  22.603  1.00  0.00     0.167 C 
HETATM   41  C10 UNL     1      26.029  14.349  21.639  1.00  0.00     0.059 C 
HETATM   42 CL1  UNL     1      27.457  12.069  21.820  1.00  0.00    -0.093 Cl
HETATM   43 CL2  UNL     1      24.900  12.516  23.183  1.00  0.00    -0.093 Cl
ENDBRANCH  10  40
TORSDOF 17
ENDMDL
MODEL 2
REMARK VINA RESULT: -6.064568994      3.256      5.530
REMARK  17 active torsions:
REMARK  status: ('A' for Active; 'I' for Inactive)
REMARK    1  A    between atoms: C8_10  and  C9_11 
REMARK    2  A    between atoms: C12_18  and  C13_19 
REMARK    3  A    between atoms: C13_19  and  O2_21 
REMARK    4  A    between atoms: O2_21  and  C14_22 
REMARK    5  A    between atoms: C14_22  and  C15_23 
REMARK    6  A    between atoms: C15_23  and  C16_24 
REMARK    7  A    between atoms: C16_24  and  C17_25 
REMARK    8  A    between atoms: C17_25  and  C18_26 
REMARK    9  A    between atoms: C22_30  and  S1_31 
REMARK   10  A    between atoms: S1_31  and  C23_34 
REMARK   11  A    between atoms: C23_34  and  C24_35 
REMARK   12  A    between atoms: C24_35  and  N3_36 
REMARK   13  A    between atoms: N3_36  and  C25_37 
REMARK   14  A    between atoms: N3_36  and  C28_40 
REMARK   15  A    between atoms: C25_37  and  C26_38 
REMARK   16  A    between atoms: C28_40  and  C29_41 
REMARK   17  A    between atoms: C29_41  and  C30_42 
ROOT
HETATM    1  C1  UNL     1      25.643  13.587  27.875  1.00  0.00     0.017 C 
HETATM    2  C2  UNL     1      26.766  13.643  27.434  1.00  0.00    -0.082 C 
HETATM    3  C3  UNL     1      28.128  13.711  26.927  1.00  0.00    -0.002 A 
HETATM    4  C4  UNL     1      28.453  14.237  25.780  1.00  0.00     0.076 A 
HETATM    5  C5  UNL     1      29.976  14.152  25.555  1.00  0.00     0.088 A 
HETATM    6  C6  UNL     1      30.370  13.407  26.687  1.00  0.00     0.032 A 
HETATM    7  C7  UNL     1      29.326  13.171  27.504  1.00  0.00     0.043 A 
HETATM    8  N1  UNL     1      31.670  12.708  26.700  1.00  0.00    -0.345 N 
ATOM      9  H1  UNL     1      32.252  12.629  27.535  1.00  0.00     0.167 HD
HETATM   10  C8  UNL     1      32.011  12.192  25.529  1.00  0.00     0.121 C 
HETATM   11  N2  UNL     1      31.347  12.618  24.373  1.00  0.00    -0.344 N 
ATOM     12  H2  UNL     1      31.622  12.189  23.490  1.00  0.00     0.167 HD
HETATM   13  C11 UNL     1      30.366  13.559  24.331  1.00  0.00     0.047 C 
HETATM   14  C12 UNL     1      30.115  14.100  22.996  1.00  0.00     0.063 C 
HETATM   15  C20 UNL     1      30.114  15.461  22.971  1.00  0.00     0.021 C 
HETATM   16  C21 UNL     1      30.243  16.162  24.230  1.00  0.00     0.022 C 
HETATM   17  C22 UNL     1      30.242  15.636  25.463  1.00  0.00     0.062 C 
ENDROOT
BRANCH  17  18
HETATM   18  S1  UNL     1      30.532  16.661  26.799  1.00  0.00     0.196 S 
HETATM   19  O3  UNL     1      31.767  16.266  27.585  1.00  0.00    -0.218 OA
HETATM   20  O4  UNL     1      30.983  18.021  26.168  1.00  0.00    -0.218 OA
BRANCH  18  21
HETATM   21  C23 UNL     1      29.260  17.037  27.854  1.00  0.00     0.131 C 
BRANCH  21  22
HETATM   22  C24 UNL     1      28.738  18.337  28.274  1.00  0.00     0.102 C 
BRANCH  22  23
HETATM   23  N3  UNL     1      27.539  18.861  27.842  1.00  0.00    -0.370 N 
BRANCH  23  24
HETATM   24  C25 UNL     1      26.269  18.416  28.137  1.00  0.00     0.063 C 
BRANCH  24  25
HETATM   25  C26 UNL     1      25.730  17.211  27.439  1.00  0.00     0.040 C 
HETATM   26  C27 UNL     1      26.093  17.076  25.998  1.00  0.00     0.010 C 
ENDBRANCH  24  25
ENDBRANCH  23  24
BRANCH  23  27
HETATM   27  C28 UNL     1      27.608  20.267  27.460  1.00  0.00     0.127 C 
BRANCH  27  28
HETATM   28  C29 UNL     1      26.292  20.943  27.340  1.00  0.00     0.020 C 
BRANCH  28  29
HETATM   29  C30 UNL     1      25.956  21.468  25.973  1.00  0.00    -0.003 C 
HETATM   30  C31 UNL     1      24.639  20.782  25.580  1.00  0.00     0.005 C 
ENDBRANCH  28  29
ENDBRANCH  27  28
ENDBRANCH  23  27
ENDBRANCH  22  23
ENDBRANCH  21  22
ENDBRANCH  18  21
ENDBRANCH  17  18
BRANCH  14  31
HETATM   31  C13 UNL     1      29.911  13.250  21.878  1.00  0.00     0.295 C 
HETATM   32  O1  UNL     1      30.410  12.105  21.831  1.00  0.00    -0.259 OA
BRANCH  31  33
HETATM   33  O2  UNL     1      29.152  13.632  20.772  1.00  0.00    -0.317 OA
BRANCH  33  34
HETATM   34  C14 UNL     1      27.752  13.456  20.733  1.00  0.00     0.179 C 
BRANCH  34  35
HETATM   35  C15 UNL     1      27.000  14.721  21.088  1.00  0.00     0.027 C 
BRANCH  35  36
HETATM   36  C16 UNL     1      26.492  14.547  22.507  1.00  0.00     0.002 C 
BRANCH  36  37
HETATM   37  C17 UNL     1      26.279  13.096  22.792  1.00  0.00    -0.000 C 
BRANCH  37  38
HETATM   38  C18 UNL     1      25.370  12.861  23.972  1.00  0.00    -0.005 C 
HETATM   39  C19 UNL     1      25.615  11.538  24.628  1.00  0.00     0.005 C 
ENDBRANCH  37  38
ENDBRANCH  36  37
ENDBRANCH  35  36
ENDBRANCH  34  35
ENDBRANCH  33  34
ENDBRANCH  31  33
ENDBRANCH  14  31
BRANCH  10  40
HETATM   40  C9  UNL     1      33.277  11.419  25.349  1.00  0.00     0.167 C 
HETATM   41  C10 UNL     1      33.339  10.917  23.922  1.00  0.00     0.059 C 
HETATM   42 CL1  UNL     1      34.721  12.320  25.765  1.00  0.00    -0.093 Cl
HETATM   43 CL2  UNL     1      33.094   9.960  26.381  1.00  0.00    -0.093 Cl
ENDBRANCH  10  40
TORSDOF 17
ENDMDL
MODEL 3
REMARK VINA RESULT: -6.037663053      0.857      1.814
REMARK  17 active torsions:
REMARK  status: ('A' for Active; 'I' for Inactive)
REMARK    1  A    between atoms: C8_10  and  C9_11 
REMARK    2  A    between atoms: C12_18  and  C13_19 
REMARK    3  A    between atoms: C13_19  and  O2_21 
REMARK    4  A    between atoms: O2_21  and  C14_22 
REMARK    5  A    between atoms: C14_22  and  C15_23 
REMARK    6  A    between atoms: C15_23  and  C16_24 
REMARK    7  A    between atoms: C16_24  and  C17_25 
REMARK    8  A    between atoms: C17_25  and  C18_26 
REMARK    9  A    between atoms: C22_30  and  S1_31 
REMARK   10  A    between atoms: S1_31  and  C23_34 
REMARK   11  A    between atoms: C23_34  and  C24_35 
REMARK   12  A    between atoms: C24_35  and  N3_36 
REMARK   13  A    between atoms: N3_36  and  C25_37 
REMARK   14  A    between atoms: N3_36  and  C28_40 
REMARK   15  A    between atoms: C25_37  and  C26_38 
REMARK   16  A    between atoms: C28_40  and  C29_41 
REMARK   17  A    between atoms: C29_41  and  C30_42 
ROOT
HETATM    1  C1  UNL     1      31.642  17.517  27.364  1.00  0.00     0.017 C 
HETATM    2  C2  UNL     1      30.723  16.830  26.987  1.00  0.00    -0.082 C 
HETATM    3  C3  UNL     1      29.608  16.021  26.519  1.00  0.00    -0.002 A 
HETATM    4  C4  UNL     1      29.091  15.033  27.193  1.00  0.00     0.076 A 
HETATM    5  C5  UNL     1      27.922  14.397  26.414  1.00  0.00     0.088 A 
HETATM    6  C6  UNL     1      27.987  15.117  25.202  1.00  0.00     0.032 A 
HETATM    7  C7  UNL     1      28.930  16.077  25.256  1.00  0.00     0.043 A 
HETATM    8  N1  UNL     1      27.348  14.581  23.985  1.00  0.00    -0.345 N 
ATOM      9  H1  UNL     1      26.884  15.171  23.293  1.00  0.00     0.167 HD
HETATM   10  C8  UNL     1      27.432  13.264  23.873  1.00  0.00     0.121 C 
HETATM   11  N2  UNL     1      27.773  12.501  24.995  1.00  0.00    -0.344 N 
ATOM     12  H2  UNL     1      27.846  11.492  24.870  1.00  0.00     0.167 HD
HETATM   13  C11 UNL     1      28.015  12.996  26.239  1.00  0.00     0.047 C 
HETATM   14  C12 UNL     1      27.963  11.992  27.301  1.00  0.00     0.063 C 
HETATM   15  C20 UNL     1      27.165  12.363  28.339  1.00  0.00     0.021 C 
HETATM   16  C21 UNL     1      26.589  13.690  28.308  1.00  0.00     0.022 C 
HETATM   17  C22 UNL     1      26.839  14.671  27.431  1.00  0.00     0.062 C 
ENDROOT
BRANCH  17  18
HETATM   18  S1  UNL     1      25.938  16.120  27.531  1.00  0.00     0.196 S 
HETATM   19  O3  UNL     1      25.352  16.540  26.197  1.00  0.00    -0.218 OA
HETATM   20  O4  UNL     1      24.650  15.734  28.332  1.00  0.00    -0.218 OA
BRANCH  18  21
HETATM   21  C23 UNL     1      26.599  17.460  28.330  1.00  0.00     0.131 C 
BRANCH  21  22
HETATM   22  C24 UNL     1      26.320  18.886  28.166  1.00  0.00     0.102 C 
BRANCH  22  23
HETATM   23  N3  UNL     1      27.219  19.792  27.647  1.00  0.00    -0.370 N 
BRANCH  23  24
HETATM   24  C25 UNL     1      28.258  19.546  26.776  1.00  0.00     0.063 C 
BRANCH  24  25
HETATM   25  C26 UNL     1      29.413  20.490  26.723  1.00  0.00     0.040 C 
HETATM   26  C27 UNL     1      30.029  20.691  25.378  1.00  0.00     0.010 C 
ENDBRANCH  24  25
ENDBRANCH  23  24
BRANCH  23  27
HETATM   27  C28 UNL     1      26.732  21.168  27.627  1.00  0.00     0.127 C 
BRANCH  27  28
HETATM   28  C29 UNL     1      25.360  21.331  27.082  1.00  0.00     0.020 C 
BRANCH  28  29
HETATM   29  C30 UNL     1      25.270  21.499  25.593  1.00  0.00    -0.003 C 
HETATM   30  C31 UNL     1      26.478  22.363  25.200  1.00  0.00     0.005 C 
ENDBRANCH  28  29
ENDBRANCH  27  28
ENDBRANCH  23  27
ENDBRANCH  22  23
ENDBRANCH  21  22
ENDBRANCH  18  21
ENDBRANCH  17  18
BRANCH  14  31
HETATM   31  C13 UNL     1      28.682  10.772  27.202  1.00  0.00     0.295 C 
HETATM   32  O1  UNL     1      28.164   9.750  26.703  1.00  0.00    -0.259 OA
BRANCH  31  33
HETATM   33  O2  UNL     1      29.995  10.635  27.652  1.00  0.00    -0.317 OA
BRANCH  33  34
HETATM   34  C14 UNL     1      31.084  11.199  26.953  1.00  0.00     0.179 C 
BRANCH  34  35
HETATM   35  C15 UNL     1      31.635  12.431  27.639  1.00  0.00     0.027 C 
BRANCH  35  36
HETATM   36  C16 UNL     1      32.239  13.304  26.554  1.00  0.00     0.002 C 
BRANCH  36  37
HETATM   37  C17 UNL     1      31.590  13.000  25.243  1.00  0.00    -0.000 C 
BRANCH  37  38
HETATM   38  C18 UNL     1      31.860  14.054  24.200  1.00  0.00    -0.005 C 
HETATM   39  C19 UNL     1      30.976  13.913  23.000  1.00  0.00     0.005 C 
ENDBRANCH  37  38
ENDBRANCH  36  37
ENDBRANCH  35  36
ENDBRANCH  34  35
ENDBRANCH  33  34
ENDBRANCH  31  33
ENDBRANCH  14  31
BRANCH  10  40
HETATM   40  C9  UNL     1      26.873  12.538  22.693  1.00  0.00     0.167 C 
HETATM   41  C10 UNL     1      27.985  12.312  21.691  1.00  0.00     0.059 C 
HETATM   42 CL1  UNL     1      26.077  11.031  23.101  1.00  0.00    -0.093 Cl
HETATM   43 CL2  UNL     1      25.734  13.692  21.919  1.00  0.00    -0.093 Cl
ENDBRANCH  10  40
TORSDOF 17
ENDMDL
MODEL 4
REMARK VINA RESULT: -5.912908404      3.185      5.732
REMARK  17 active torsions:
REMARK  status: ('A' for Active; 'I' for Inactive)
REMARK    1  A    between atoms: C8_10  and  C9_11 
REMARK    2  A    between atoms: C12_18  and  C13_19 
REMARK    3  A    between atoms: C13_19  and  O2_21 
REMARK    4  A    between atoms: O2_21  and  C14_22 
REMARK    5  A    between atoms: C14_22  and  C15_23 
REMARK    6  A    between atoms: C15_23  and  C16_24 
REMARK    7  A    between atoms: C16_24  and  C17_25 
REMARK    8  A    between atoms: C17_25  and  C18_26 
REMARK    9  A    between atoms: C22_30  and  S1_31 
REMARK   10  A    between atoms: S1_31  and  C23_34 
REMARK   11  A    between atoms: C23_34  and  C24_35 
REMARK   12  A    between atoms: C24_35  and  N3_36 
REMARK   13  A    between atoms: N3_36  and  C25_37 
REMARK   14  A    between atoms: N3_36  and  C28_40 
REMARK   15  A    between atoms: C25_37  and  C26_38 
REMARK   16  A    between atoms: C28_40  and  C29_41 
REMARK   17  A    between atoms: C29_41  and  C30_42 
ROOT
HETATM    1  C1  UNL     1      25.431  13.642  27.610  1.00  0.00     0.017 C 
HETATM    2  C2  UNL     1      26.585  13.664  27.252  1.00  0.00    -0.082 C 
HETATM    3  C3  UNL     1      27.982  13.690  26.846  1.00  0.00    -0.002 A 
HETATM    4  C4  UNL     1      28.404  14.191  25.719  1.00  0.00     0.076 A 
HETATM    5  C5  UNL     1      29.936  14.065  25.609  1.00  0.00     0.088 A 
HETATM    6  C6  UNL     1      30.227  13.326  26.775  1.00  0.00     0.032 A 
HETATM    7  C7  UNL     1      29.119  13.128  27.516  1.00  0.00     0.043 A 
HETATM    8  N1  UNL     1      31.503  12.594  26.893  1.00  0.00    -0.345 N 
ATOM      9  H1  UNL     1      32.020  12.512  27.768  1.00  0.00     0.167 HD
HETATM   10  C8  UNL     1      31.915  12.053  25.756  1.00  0.00     0.121 C 
HETATM   11  N2  UNL     1      31.349  12.480  24.549  1.00  0.00    -0.344 N 
ATOM     12  H2  UNL     1      31.676  12.031  23.694  1.00  0.00     0.167 HD
HETATM   13  C11 UNL     1      30.399  13.445  24.424  1.00  0.00     0.047 C 
HETATM   14  C12 UNL     1      30.261  13.973  23.067  1.00  0.00     0.063 C 
HETATM   15  C20 UNL     1      30.297  15.333  23.025  1.00  0.00     0.021 C 
HETATM   16  C21 UNL     1      30.352  16.048  24.282  1.00  0.00     0.022 C 
HETATM   17  C22 UNL     1      30.247  15.540  25.518  1.00  0.00     0.062 C 
ENDROOT
BRANCH  17  18
HETATM   18  S1  UNL     1      30.466  16.576  26.859  1.00  0.00     0.196 S 
HETATM   19  O3  UNL     1      31.267  15.932  27.974  1.00  0.00    -0.218 OA
HETATM   20  O4  UNL     1      31.458  17.676  26.355  1.00  0.00    -0.218 OA
BRANCH  18  21
HETATM   21  C23 UNL     1      29.134  17.407  27.497  1.00  0.00     0.131 C 
BRANCH  21  22
HETATM   22  C24 UNL     1      28.124  18.225  26.824  1.00  0.00     0.102 C 
BRANCH  22  23
HETATM   23  N3  UNL     1      26.936  18.613  27.404  1.00  0.00    -0.370 N 
BRANCH  23  24
HETATM   24  C25 UNL     1      25.832  19.155  26.784  1.00  0.00     0.063 C 
BRANCH  24  25
HETATM   25  C26 UNL     1      25.755  20.631  26.576  1.00  0.00     0.040 C 
HETATM   26  C27 UNL     1      24.664  21.106  25.675  1.00  0.00     0.010 C 
ENDBRANCH  24  25
ENDBRANCH  23  24
BRANCH  23  27
HETATM   27  C28 UNL     1      26.647  17.945  28.669  1.00  0.00     0.127 C 
BRANCH  27  28
HETATM   28  C29 UNL     1      25.361  17.204  28.699  1.00  0.00     0.020 C 
BRANCH  28  29
HETATM   29  C30 UNL     1      24.602  17.275  29.992  1.00  0.00    -0.003 C 
HETATM   30  C31 UNL     1      23.924  15.905  30.150  1.00  0.00     0.005 C 
ENDBRANCH  28  29
ENDBRANCH  27  28
ENDBRANCH  23  27
ENDBRANCH  22  23
ENDBRANCH  21  22
ENDBRANCH  18  21
ENDBRANCH  17  18
BRANCH  14  31
HETATM   31  C13 UNL     1      30.116  13.112  21.948  1.00  0.00     0.295 C 
HETATM   32  O1  UNL     1      30.634  11.975  21.930  1.00  0.00    -0.259 OA
BRANCH  31  33
HETATM   33  O2  UNL     1      29.398  13.475  20.809  1.00  0.00    -0.317 OA
BRANCH  33  34
HETATM   34  C14 UNL     1      27.991  13.380  20.753  1.00  0.00     0.179 C 
BRANCH  34  35
HETATM   35  C15 UNL     1      27.314  14.723  20.922  1.00  0.00     0.027 C 
BRANCH  35  36
HETATM   36  C16 UNL     1      26.376  14.596  22.109  1.00  0.00     0.002 C 
BRANCH  36  37
HETATM   37  C17 UNL     1      26.500  13.231  22.706  1.00  0.00    -0.000 C 
BRANCH  37  38
HETATM   38  C18 UNL     1      25.289  12.836  23.512  1.00  0.00    -0.005 C 
HETATM   39  C19 UNL     1      25.529  11.614  24.342  1.00  0.00     0.005 C 
ENDBRANCH  37  38
ENDBRANCH  36  37
ENDBRANCH  35  36
ENDBRANCH  34  35
ENDBRANCH  33  34
ENDBRANCH  31  33
ENDBRANCH  14  31
BRANCH  10  40
HETATM   40  C9  UNL     1      33.169  11.245  25.679  1.00  0.00     0.167 C 
HETATM   41  C10 UNL     1      34.342  12.138  26.021  1.00  0.00     0.059 C 
HETATM   42 CL1  UNL     1      33.151   9.812  26.688  1.00  0.00    -0.093 Cl
HETATM   43 CL2  UNL     1      33.357  10.821  23.943  1.00  0.00    -0.093 Cl
ENDBRANCH  10  40
TORSDOF 17
ENDMDL
MODEL 5
REMARK VINA RESULT: -5.845685105      2.932      7.040
REMARK  17 active torsions:
REMARK  status: ('A' for Active; 'I' for Inactive)
REMARK    1  A    between atoms: C8_10  and  C9_11 
REMARK    2  A    between atoms: C12_18  and  C13_19 
REMARK    3  A    between atoms: C13_19  and  O2_21 
REMARK    4  A    between atoms: O2_21  and  C14_22 
REMARK    5  A    between atoms: C14_22  and  C15_23 
REMARK    6  A    between atoms: C15_23  and  C16_24 
REMARK    7  A    between atoms: C16_24  and  C17_25 
REMARK    8  A    between atoms: C17_25  and  C18_26 
REMARK    9  A    between atoms: C22_30  and  S1_31 
REMARK   10  A    between atoms: S1_31  and  C23_34 
REMARK   11  A    between atoms: C23_34  and  C24_35 
REMARK   12  A    between atoms: C24_35  and  N3_36 
REMARK   13  A    between atoms: N3_36  and  C25_37 
REMARK   14  A    between atoms: N3_36  and  C28_40 
REMARK   15  A    between atoms: C25_37  and  C26_38 
REMARK   16  A    between atoms: C28_40  and  C29_41 
REMARK   17  A    between atoms: C29_41  and  C30_42 
ROOT
HETATM    1  C1  UNL     1      27.929  11.415  31.596  1.00  0.00     0.017 C 
HETATM    2  C2  UNL     1      27.923  11.758  30.437  1.00  0.00    -0.082 C 
HETATM    3  C3  UNL     1      27.926  12.148  29.036  1.00  0.00    -0.002 A 
HETATM    4  C4  UNL     1      28.041  13.378  28.622  1.00  0.00     0.076 A 
HETATM    5  C5  UNL     1      28.015  13.438  27.082  1.00  0.00     0.088 A 
HETATM    6  C6  UNL     1      27.752  12.088  26.768  1.00  0.00     0.032 A 
HETATM    7  C7  UNL     1      27.729  11.325  27.877  1.00  0.00     0.043 A 
HETATM    8  N1  UNL     1      27.217  11.724  25.441  1.00  0.00    -0.345 N 
ATOM      9  H1  UNL     1      27.487  10.874  24.945  1.00  0.00     0.167 HD
HETATM   10  C8  UNL     1      26.354  12.603  24.954  1.00  0.00     0.121 C 
HETATM   11  N2  UNL     1      26.288  13.882  25.516  1.00  0.00    -0.344 N 
ATOM     12  H2  UNL     1      25.600  14.528  25.129  1.00  0.00     0.167 HD
HETATM   13  C11 UNL     1      27.065  14.335  26.536  1.00  0.00     0.047 C 
HETATM   14  C12 UNL     1      27.078  15.790  26.676  1.00  0.00     0.063 C 
HETATM   15  C20 UNL     1      28.338  16.301  26.747  1.00  0.00     0.021 C 
HETATM   16  C21 UNL     1      29.445  15.370  26.786  1.00  0.00     0.022 C 
HETATM   17  C22 UNL     1      29.388  14.035  26.886  1.00  0.00     0.062 C 
ENDROOT
BRANCH  17  18
HETATM   18  S1  UNL     1      30.838  13.136  26.790  1.00  0.00     0.196 S 
HETATM   19  O3  UNL     1      31.260  12.555  28.126  1.00  0.00    -0.218 OA
HETATM   20  O4  UNL     1      30.455  11.844  25.993  1.00  0.00    -0.218 OA
BRANCH  18  21
HETATM   21  C23 UNL     1      32.178  13.797  25.989  1.00  0.00     0.131 C 
BRANCH  21  22
HETATM   22  C24 UNL     1      32.346  14.167  24.584  1.00  0.00     0.102 C 
BRANCH  22  23
HETATM   23  N3  UNL     1      32.000  13.354  23.527  1.00  0.00    -0.370 N 
BRANCH  23  24
HETATM   24  C25 UNL     1      30.946  13.508  22.653  1.00  0.00     0.063 C 
BRANCH  24  25
HETATM   25  C26 UNL     1      29.558  13.629  23.188  1.00  0.00     0.040 C 
HETATM   26  C27 UNL     1      28.998  15.011  23.242  1.00  0.00     0.010 C 
ENDBRANCH  24  25
ENDBRANCH  23  24
BRANCH  23  27
HETATM   27  C28 UNL     1      33.107  12.564  22.998  1.00  0.00     0.127 C 
BRANCH  27  28
HETATM   28  C29 UNL     1      33.069  11.124  23.358  1.00  0.00     0.020 C 
BRANCH  28  29
HETATM   29  C30 UNL     1      34.242  10.623  24.151  1.00  0.00    -0.003 C 
HETATM   30  C31 UNL     1      33.728  10.459  25.589  1.00  0.00     0.005 C 
ENDBRANCH  28  29
ENDBRANCH  27  28
ENDBRANCH  23  27
ENDBRANCH  22  23
ENDBRANCH  21  22
ENDBRANCH  18  21
ENDBRANCH  17  18
BRANCH  14  31
HETATM   31  C13 UNL     1      25.875  16.542  26.718  1.00  0.00     0.295 C 
HETATM   32  O1  UNL     1      25.694  17.524  25.968  1.00  0.00    -0.259 OA
BRANCH  31  33
HETATM   33  O2  UNL     1      24.830  16.237  27.590  1.00  0.00    -0.317 OA
BRANCH  33  34
HETATM   34  C14 UNL     1      24.933  16.454  28.980  1.00  0.00     0.179 C 
BRANCH  34  35
HETATM   35  C15 UNL     1      25.070  15.162  29.759  1.00  0.00     0.027 C 
BRANCH  35  36
HETATM   36  C16 UNL     1      24.344  14.092  28.964  1.00  0.00     0.002 C 
BRANCH  36  37
HETATM   37  C17 UNL     1      23.617  13.178  29.896  1.00  0.00    -0.000 C 
BRANCH  37  38
HETATM   38  C18 UNL     1      24.457  12.761  31.077  1.00  0.00    -0.005 C 
HETATM   39  C19 UNL     1      24.176  11.357  31.512  1.00  0.00     0.005 C 
ENDBRANCH  37  38
ENDBRANCH  36  37
ENDBRANCH  35  36
ENDBRANCH  34  35
ENDBRANCH  33  34
ENDBRANCH  31  33
ENDBRANCH  14  31
BRANCH  10  40
HETATM   40  C9  UNL     1      25.679  12.395  23.637  1.00  0.00     0.167 C 
HETATM   41  C10 UNL     1      24.192  12.245  23.873  1.00  0.00     0.059 C 
HETATM   42 CL1  UNL     1      26.009  13.657  22.466  1.00  0.00    -0.093 Cl
HETATM   43 CL2  UNL     1      26.253  10.795  23.055  1.00  0.00    -0.093 Cl
ENDBRANCH  10  40
TORSDOF 17
ENDMDL
