MODEL 1
REMARK VINA RESULT: -6.266451316      0.000      0.000
REMARK  15 active torsions:
REMARK  status: ('A' for Active; 'I' for Inactive)
REMARK    1  A    between atoms: C6_9  and  S1_10 
REMARK    2  A    between atoms: S1_10  and  N3_13 
REMARK    3  A    between atoms: N3_13  and  C7_14 
REMARK    4  A    between atoms: N3_13  and  C26_38 
REMARK    5  A    between atoms: C7_14  and  C8_15 
REMARK    6  A    between atoms: C8_15  and  C9_16 
REMARK    7  A    between atoms: C9_16  and  C10_17 
REMARK    8  A    between atoms: C10_17  and  C11_18 
REMARK    9  A    between atoms: C11_18  and  C12_19 
REMARK   10  A    between atoms: C12_19  and  N4_20 
REMARK   11  A    between atoms: C13_21  and  C14_22 
REMARK   12  A    between atoms: C26_38  and  C27_39 
REMARK   13  A    between atoms: C27_39  and  C28_40 
REMARK   14  A    between atoms: C28_40  and  C29_41 
REMARK   15  A    between atoms: C29_41  and  N6_42 
ROOT
HETATM    1  C8  UNL     1      27.219  10.192  26.363  1.00  0.00     0.015 C 
ENDROOT
BRANCH   1   2
HETATM    2  C7  UNL     1      28.520  10.252  27.105  1.00  0.00     0.107 C 
BRANCH   2   3
HETATM    3  N3  UNL     1      28.720  11.454  27.835  1.00  0.00    -0.206 NA
BRANCH   3   4
HETATM    4  S1  UNL     1      30.335  11.940  27.848  1.00  0.00     0.247 S 
HETATM    5  O1  UNL     1      30.828  12.113  29.248  1.00  0.00    -0.206 OA
HETATM    6  O2  UNL     1      31.147  10.769  27.299  1.00  0.00    -0.206 OA
BRANCH   4   7
HETATM    7  C6  UNL     1      30.686  13.383  26.925  1.00  0.00     0.122 A 
HETATM    8  C2  UNL     1      31.512  13.451  25.825  1.00  0.00     0.047 A 
HETATM    9  C1  UNL     1      32.294  12.410  25.168  1.00  0.00     0.071 C 
HETATM   10  N1  UNL     1      31.472  14.758  25.437  1.00  0.00    -0.302 N 
HETATM   11  N2  UNL     1      30.696  15.452  26.216  1.00  0.00    -0.299 N 
ATOM     12  H1  UNL     1      31.983  15.139  24.641  1.00  0.00     0.186 HD
HETATM   13  C3  UNL     1      30.425  16.883  26.088  1.00  0.00     0.177 C 
HETATM   14  C4  UNL     1      30.178  14.635  27.170  1.00  0.00     0.049 A 
HETATM   15  C5  UNL     1      29.242  15.092  28.241  1.00  0.00     0.071 C 
ENDBRANCH   4   7
ENDBRANCH   3   4
BRANCH   3  16
HETATM   16  C26 UNL     1      28.117  11.484  29.112  1.00  0.00     0.107 C 
BRANCH  16  17
HETATM   17  C27 UNL     1      27.016  12.432  29.355  1.00  0.00     0.017 C 
BRANCH  17  18
HETATM   18  C28 UNL     1      26.440  12.644  30.684  1.00  0.00     0.031 C 
BRANCH  18  19
HETATM   19  C29 UNL     1      25.171  11.955  31.026  1.00  0.00     0.271 C 
BRANCH  19  20
HETATM   20  N6  UNL     1      24.080  12.860  31.315  1.00  0.00     0.080 N 
HETATM   21  C30 UNL     1      24.453  14.087  31.931  1.00  0.00     0.309 C 
HETATM   22  C31 UNL     1      23.146  13.021  30.246  1.00  0.00     0.309 C 
ENDBRANCH  19  20
ENDBRANCH  18  19
ENDBRANCH  17  18
ENDBRANCH  16  17
ENDBRANCH   3  16
ENDBRANCH   2   3
ENDBRANCH   1   2
BRANCH   1  23
HETATM   23  C9  UNL     1      27.045  11.529  25.636  1.00  0.00     0.001 C 
BRANCH  23  24
HETATM   24  C10 UNL     1      25.787  11.511  24.797  1.00  0.00     0.002 C 
BRANCH  24  25
HETATM   25  C11 UNL     1      25.030  12.804  25.069  1.00  0.00     0.020 C 
BRANCH  25  26
HETATM   26  C12 UNL     1      25.655  13.392  26.324  1.00  0.00     0.131 C 
BRANCH  26  27
HETATM   27  N4  UNL     1      26.063  14.765  26.175  1.00  0.00    -0.331 N 
HETATM   28  C13 UNL     1      26.732  15.345  25.187  1.00  0.00     0.118 A 
HETATM   29  N5  UNL     1      26.858  16.667  25.572  1.00  0.00    -0.340 N 
HETATM   30  C20 UNL     1      26.278  16.857  26.752  1.00  0.00     0.062 A 
ATOM     31  H5  UNL     1      27.327  17.391  25.029  1.00  0.00     0.167 HD
HETATM   32  C21 UNL     1      26.119  17.978  27.580  1.00  0.00     0.055 A 
HETATM   33  C25 UNL     1      25.760  15.668  27.169  1.00  0.00     0.063 A 
HETATM   34  C22 UNL     1      25.456  17.874  28.781  1.00  0.00     0.036 A 
HETATM   35 CL2  UNL     1      25.270  19.297  29.801  1.00  0.00    -0.084 Cl
HETATM   36  C23 UNL     1      24.930  16.667  29.203  1.00  0.00     0.026 A 
HETATM   37  C24 UNL     1      25.099  15.583  28.373  1.00  0.00     0.034 A 
BRANCH  28  38
HETATM   38  C14 UNL     1      27.316  14.862  23.942  1.00  0.00     0.008 A 
HETATM   39  C15 UNL     1      28.467  14.160  23.802  1.00  0.00     0.017 A 
HETATM   40  C16 UNL     1      29.004  13.760  22.576  1.00  0.00     0.025 A 
HETATM   41  C17 UNL     1      28.340  14.088  21.442  1.00  0.00     0.034 A 
HETATM   42 CL1  UNL     1      29.007  13.590  19.896  1.00  0.00    -0.084 Cl
HETATM   43  C18 UNL     1      27.168  14.798  21.537  1.00  0.00     0.025 A 
HETATM   44  C19 UNL     1      26.661  15.179  22.746  1.00  0.00     0.017 A 
ENDBRANCH  28  38
ENDBRANCH  26  27
ENDBRANCH  25  26
ENDBRANCH  24  25
ENDBRANCH  23  24
ENDBRANCH   1  23
TORSDOF 15
ENDMDL
MODEL 2
REMARK VINA RESULT: -5.837699310      2.758      7.002
REMARK  15 active torsions:
REMARK  status: ('A' for Active; 'I' for Inactive)
REMARK    1  A    between atoms: C6_9  and  S1_10 
REMARK    2  A    between atoms: S1_10  and  N3_13 
REMARK    3  A    between atoms: N3_13  and  C7_14 
REMARK    4  A    between atoms: N3_13  and  C26_38 
REMARK    5  A    between atoms: C7_14  and  C8_15 
REMARK    6  A    between atoms: C8_15  and  C9_16 
REMARK    7  A    between atoms: C9_16  and  C10_17 
REMARK    8  A    between atoms: C10_17  and  C11_18 
REMARK    9  A    between atoms: C11_18  and  C12_19 
REMARK   10  A    between atoms: C12_19  and  N4_20 
REMARK   11  A    between atoms: C13_21  and  C14_22 
REMARK   12  A    between atoms: C26_38  and  C27_39 
REMARK   13  A    between atoms: C27_39  and  C28_40 
REMARK   14  A    between atoms: C28_40  and  C29_41 
REMARK   15  A    between atoms: C29_41  and  N6_42 
ROOT
HETATM    1  C8  UNL     1      28.643  14.553  29.178  1.00  0.00     0.015 C 
ENDROOT
BRANCH   1   2
HETATM    2  C7  UNL     1      29.067  13.665  28.047  1.00  0.00     0.107 C 
BRANCH   2   3
HETATM    3  N3  UNL     1      28.934  14.256  26.761  1.00  0.00    -0.206 NA
BRANCH   3   4
HETATM    4  S1  UNL     1      28.755  13.108  25.539  1.00  0.00     0.247 S 
HETATM    5  O1  UNL     1      30.073  12.784  24.916  1.00  0.00    -0.206 OA
HETATM    6  O2  UNL     1      28.324  11.810  26.220  1.00  0.00    -0.206 OA
BRANCH   4   7
HETATM    7  C6  UNL     1      27.607  13.524  24.288  1.00  0.00     0.122 A 
HETATM    8  C2  UNL     1      26.283  13.144  24.255  1.00  0.00     0.047 A 
HETATM    9  C1  UNL     1      25.514  12.324  25.184  1.00  0.00     0.071 C 
HETATM   10  N1  UNL     1      25.786  13.704  23.115  1.00  0.00    -0.302 N 
HETATM   11  N2  UNL     1      26.706  14.373  22.485  1.00  0.00    -0.299 N 
ATOM     12  H1  UNL     1      24.821  13.610  22.799  1.00  0.00     0.186 HD
HETATM   13  C3  UNL     1      26.518  15.098  21.229  1.00  0.00     0.177 C 
HETATM   14  C4  UNL     1      27.870  14.291  23.180  1.00  0.00     0.049 A 
HETATM   15  C5  UNL     1      29.146  14.940  22.751  1.00  0.00     0.071 C 
ENDBRANCH   4   7
ENDBRANCH   3   4
BRANCH   3  16
HETATM   16  C26 UNL     1      29.890  15.250  26.458  1.00  0.00     0.107 C 
BRANCH  16  17
HETATM   17  C27 UNL     1      29.423  16.575  26.018  1.00  0.00     0.017 C 
BRANCH  17  18
HETATM   18  C28 UNL     1      30.318  17.729  25.908  1.00  0.00     0.031 C 
BRANCH  18  19
HETATM   19  C29 UNL     1      31.299  17.763  24.796  1.00  0.00     0.271 C 
BRANCH  19  20
HETATM   20  N6  UNL     1      31.732  19.098  24.445  1.00  0.00     0.080 N 
HETATM   21  C30 UNL     1      32.007  19.305  23.065  1.00  0.00     0.309 C 
HETATM   22  C31 UNL     1      30.958  20.144  25.035  1.00  0.00     0.309 C 
ENDBRANCH  19  20
ENDBRANCH  18  19
ENDBRANCH  17  18
ENDBRANCH  16  17
ENDBRANCH   3  16
ENDBRANCH   2   3
ENDBRANCH   1   2
BRANCH   1  23
HETATM   23  C9  UNL     1      27.964  13.666  30.226  1.00  0.00     0.001 C 
BRANCH  23  24
HETATM   24  C10 UNL     1      27.568  12.340  29.613  1.00  0.00     0.002 C 
BRANCH  24  25
HETATM   25  C11 UNL     1      26.694  11.607  30.621  1.00  0.00     0.020 C 
BRANCH  25  26
HETATM   26  C12 UNL     1      25.862  12.681  31.305  1.00  0.00     0.131 C 
BRANCH  26  27
HETATM   27  N4  UNL     1      24.530  12.804  30.771  1.00  0.00    -0.331 N 
HETATM   28  C13 UNL     1      24.045  13.687  29.907  1.00  0.00     0.118 A 
HETATM   29  N5  UNL     1      22.711  13.346  29.765  1.00  0.00    -0.340 N 
HETATM   30  C20 UNL     1      22.424  12.294  30.523  1.00  0.00     0.062 A 
ATOM     31  H5  UNL     1      22.046  13.832  29.164  1.00  0.00     0.167 HD
HETATM   32  C21 UNL     1      21.252  11.558  30.749  1.00  0.00     0.055 A 
HETATM   33  C25 UNL     1      23.558  11.920  31.180  1.00  0.00     0.063 A 
HETATM   34  C22 UNL     1      21.251  10.488  31.613  1.00  0.00     0.036 A 
HETATM   35 CL2  UNL     1      19.765   9.582  31.879  1.00  0.00    -0.084 Cl
HETATM   36  C23 UNL     1      22.402  10.109  32.280  1.00  0.00     0.026 A 
HETATM   37  C24 UNL     1      23.538  10.846  32.040  1.00  0.00     0.034 A 
BRANCH  28  38
HETATM   38  C14 UNL     1      24.611  14.833  29.209  1.00  0.00     0.008 A 
HETATM   39  C15 UNL     1      24.649  16.115  29.647  1.00  0.00     0.017 A 
HETATM   40  C16 UNL     1      25.166  17.186  28.914  1.00  0.00     0.025 A 
HETATM   41  C17 UNL     1      25.666  16.941  27.679  1.00  0.00     0.034 A 
HETATM   42 CL1  UNL     1      26.317  18.281  26.749  1.00  0.00    -0.084 Cl
HETATM   43  C18 UNL     1      25.648  15.656  27.194  1.00  0.00     0.025 A 
HETATM   44  C19 UNL     1      25.137  14.624  27.928  1.00  0.00     0.017 A 
ENDBRANCH  28  38
ENDBRANCH  26  27
ENDBRANCH  25  26
ENDBRANCH  24  25
ENDBRANCH  23  24
ENDBRANCH   1  23
TORSDOF 15
ENDMDL
MODEL 3
REMARK VINA RESULT: -5.817335540      4.507      8.986
REMARK  15 active torsions:
REMARK  status: ('A' for Active; 'I' for Inactive)
REMARK    1  A    between atoms: C6_9  and  S1_10 
REMARK    2  A    between atoms: S1_10  and  N3_13 
REMARK    3  A    between atoms: N3_13  and  C7_14 
REMARK    4  A    between atoms: N3_13  and  C26_38 
REMARK    5  A    between atoms: C7_14  and  C8_15 
REMARK    6  A    between atoms: C8_15  and  C9_16 
REMARK    7  A    between atoms: C9_16  and  C10_17 
REMARK    8  A    between atoms: C10_17  and  C11_18 
REMARK    9  A    between atoms: C11_18  and  C12_19 
REMARK   10  A    between atoms: C12_19  and  N4_20 
REMARK   11  A    between atoms: C13_21  and  C14_22 
REMARK   12  A    between atoms: C26_38  and  C27_39 
REMARK   13  A    between atoms: C27_39  and  C28_40 
REMARK   14  A    between atoms: C28_40  and  C29_41 
REMARK   15  A    between atoms: C29_41  and  N6_42 
ROOT
HETATM    1  C8  UNL     1      32.094  10.872  26.339  1.00  0.00     0.015 C 
ENDROOT
BRANCH   1   2
HETATM    2  C7  UNL     1      31.608  12.281  26.500  1.00  0.00     0.107 C 
BRANCH   2   3
HETATM    3  N3  UNL     1      30.255  12.479  26.113  1.00  0.00    -0.206 NA
BRANCH   3   4
HETATM    4  S1  UNL     1      30.015  13.958  25.341  1.00  0.00     0.247 S 
HETATM    5  O1  UNL     1      28.973  14.764  26.047  1.00  0.00    -0.206 OA
HETATM    6  O2  UNL     1      31.303  14.757  25.519  1.00  0.00    -0.206 OA
BRANCH   4   7
HETATM    7  C6  UNL     1      29.617  13.855  23.642  1.00  0.00     0.122 A 
HETATM    8  C2  UNL     1      30.381  13.240  22.675  1.00  0.00     0.047 A 
HETATM    9  C1  UNL     1      31.667  12.561  22.780  1.00  0.00     0.071 C 
HETATM   10  N1  UNL     1      29.677  13.399  21.517  1.00  0.00    -0.302 N 
HETATM   11  N2  UNL     1      28.573  14.052  21.729  1.00  0.00    -0.299 N 
ATOM     12  H1  UNL     1      29.977  13.052  20.607  1.00  0.00     0.186 HD
HETATM   13  C3  UNL     1      27.582  14.397  20.712  1.00  0.00     0.177 C 
HETATM   14  C4  UNL     1      28.487  14.363  23.050  1.00  0.00     0.049 A 
HETATM   15  C5  UNL     1      27.348  15.116  23.657  1.00  0.00     0.071 C 
ENDBRANCH   4   7
ENDBRANCH   3   4
BRANCH   3  16
HETATM   16  C26 UNL     1      29.302  12.212  27.121  1.00  0.00     0.107 C 
BRANCH  16  17
HETATM   17  C27 UNL     1      28.563  10.939  27.081  1.00  0.00     0.017 C 
BRANCH  17  18
HETATM   18  C28 UNL     1      27.313  10.779  26.337  1.00  0.00     0.031 C 
BRANCH  18  19
HETATM   19  C29 UNL     1      26.745  11.959  25.640  1.00  0.00     0.271 C 
BRANCH  19  20
HETATM   20  N6  UNL     1      25.831  11.617  24.571  1.00  0.00     0.080 N 
HETATM   21  C30 UNL     1      24.719  12.491  24.420  1.00  0.00     0.309 C 
HETATM   22  C31 UNL     1      26.466  11.284  23.336  1.00  0.00     0.309 C 
ENDBRANCH  19  20
ENDBRANCH  18  19
ENDBRANCH  17  18
ENDBRANCH  16  17
ENDBRANCH   3  16
ENDBRANCH   2   3
ENDBRANCH   1   2
BRANCH   1  23
HETATM   23  C9  UNL     1      33.437  10.932  25.605  1.00  0.00     0.001 C 
BRANCH  23  24
HETATM   24  C10 UNL     1      34.161   9.609  25.726  1.00  0.00     0.002 C 
BRANCH  24  25
HETATM   25  C11 UNL     1      35.102   9.484  24.536  1.00  0.00     0.020 C 
BRANCH  25  26
HETATM   26  C12 UNL     1      34.352  10.077  23.352  1.00  0.00     0.131 C 
BRANCH  26  27
HETATM   27  N4  UNL     1      35.188  10.848  22.469  1.00  0.00    -0.331 N 
HETATM   28  C13 UNL     1      35.784  12.016  22.675  1.00  0.00     0.118 A 
HETATM   29  N5  UNL     1      36.441  12.291  21.490  1.00  0.00    -0.340 N 
HETATM   30  C20 UNL     1      36.236  11.314  20.614  1.00  0.00     0.062 A 
ATOM     31  H5  UNL     1      37.002  13.124  21.313  1.00  0.00     0.167 HD
HETATM   32  C21 UNL     1      36.660  11.094  19.295  1.00  0.00     0.055 A 
HETATM   33  C25 UNL     1      35.442  10.375  21.202  1.00  0.00     0.063 A 
HETATM   34  C22 UNL     1      36.280   9.960  18.616  1.00  0.00     0.036 A 
HETATM   35 CL2  UNL     1      36.825   9.710  16.961  1.00  0.00    -0.084 Cl
HETATM   36  C23 UNL     1      35.473   9.008  19.213  1.00  0.00     0.026 A 
HETATM   37  C24 UNL     1      35.072   9.247  20.507  1.00  0.00     0.034 A 
BRANCH  28  38
HETATM   38  C14 UNL     1      35.817  12.950  23.793  1.00  0.00     0.008 A 
HETATM   39  C15 UNL     1      36.641  12.903  24.869  1.00  0.00     0.017 A 
HETATM   40  C16 UNL     1      36.598  13.803  25.936  1.00  0.00     0.025 A 
HETATM   41  C17 UNL     1      35.676  14.795  25.908  1.00  0.00     0.034 A 
HETATM   42 CL1  UNL     1      35.615  15.930  27.246  1.00  0.00    -0.084 Cl
HETATM   43  C18 UNL     1      34.821  14.881  24.837  1.00  0.00     0.025 A 
HETATM   44  C19 UNL     1      34.880  13.990  23.803  1.00  0.00     0.017 A 
ENDBRANCH  28  38
ENDBRANCH  26  27
ENDBRANCH  25  26
ENDBRANCH  24  25
ENDBRANCH  23  24
ENDBRANCH   1  23
TORSDOF 15
ENDMDL
MODEL 4
REMARK VINA RESULT: -5.800287701      2.911      7.502
REMARK  15 active torsions:
REMARK  status: ('A' for Active; 'I' for Inactive)
REMARK    1  A    between atoms: C6_9  and  S1_10 
REMARK    2  A    between atoms: S1_10  and  N3_13 
REMARK    3  A    between atoms: N3_13  and  C7_14 
REMARK    4  A    between atoms: N3_13  and  C26_38 
REMARK    5  A    between atoms: C7_14  and  C8_15 
REMARK    6  A    between atoms: C8_15  and  C9_16 
REMARK    7  A    between atoms: C9_16  and  C10_17 
REMARK    8  A    between atoms: C10_17  and  C11_18 
REMARK    9  A    between atoms: C11_18  and  C12_19 
REMARK   10  A    between atoms: C12_19  and  N4_20 
REMARK   11  A    between atoms: C13_21  and  C14_22 
REMARK   12  A    between atoms: C26_38  and  C27_39 
REMARK   13  A    between atoms: C27_39  and  C28_40 
REMARK   14  A    between atoms: C28_40  and  C29_41 
REMARK   15  A    between atoms: C29_41  and  N6_42 
ROOT
HETATM    1  C8  UNL     1      28.923  15.171  24.705  1.00  0.00     0.015 C 
ENDROOT
BRANCH   1   2
HETATM    2  C7  UNL     1      28.296  13.837  24.433  1.00  0.00     0.107 C 
BRANCH   2   3
HETATM    3  N3  UNL     1      26.883  13.814  24.591  1.00  0.00    -0.206 NA
BRANCH   3   4
HETATM    4  S1  UNL     1      26.359  12.507  25.518  1.00  0.00     0.247 S 
HETATM    5  O1  UNL     1      24.875  12.358  25.438  1.00  0.00    -0.206 OA
HETATM    6  O2  UNL     1      26.906  11.249  24.848  1.00  0.00    -0.206 OA
BRANCH   4   7
HETATM    7  C6  UNL     1      26.850  12.541  27.196  1.00  0.00     0.122 A 
HETATM    8  C2  UNL     1      27.777  11.703  27.778  1.00  0.00     0.047 A 
HETATM    9  C1  UNL     1      28.549  10.608  27.203  1.00  0.00     0.071 C 
HETATM   10  N1  UNL     1      27.841  12.103  29.080  1.00  0.00    -0.302 N 
HETATM   11  N2  UNL     1      27.033  13.097  29.304  1.00  0.00    -0.299 N 
ATOM     12  H1  UNL     1      28.443  11.678  29.785  1.00  0.00     0.186 HD
HETATM   13  C3  UNL     1      26.850  13.770  30.588  1.00  0.00     0.177 C 
HETATM   14  C4  UNL     1      26.384  13.410  28.151  1.00  0.00     0.049 A 
HETATM   15  C5  UNL     1      25.375  14.505  28.033  1.00  0.00     0.071 C 
ENDBRANCH   4   7
ENDBRANCH   3   4
BRANCH   3  16
HETATM   16  C26 UNL     1      26.148  13.984  23.397  1.00  0.00     0.107 C 
BRANCH  16  17
HETATM   17  C27 UNL     1      26.514  15.083  22.488  1.00  0.00     0.017 C 
BRANCH  17  18
HETATM   18  C28 UNL     1      26.897  14.855  21.093  1.00  0.00     0.031 C 
BRANCH  18  19
HETATM   19  C29 UNL     1      28.332  14.659  20.774  1.00  0.00     0.271 C 
BRANCH  19  20
HETATM   20  N6  UNL     1      28.726  13.269  20.698  1.00  0.00     0.080 N 
HETATM   21  C30 UNL     1      29.815  12.899  21.534  1.00  0.00     0.309 C 
HETATM   22  C31 UNL     1      27.638  12.344  20.738  1.00  0.00     0.309 C 
ENDBRANCH  19  20
ENDBRANCH  18  19
ENDBRANCH  17  18
ENDBRANCH  16  17
ENDBRANCH   3  16
ENDBRANCH   2   3
ENDBRANCH   1   2
BRANCH   1  23
HETATM   23  C9  UNL     1      28.185  15.789  25.897  1.00  0.00     0.001 C 
BRANCH  23  24
HETATM   24  C10 UNL     1      29.170  16.179  26.978  1.00  0.00     0.002 C 
BRANCH  24  25
HETATM   25  C11 UNL     1      29.779  14.898  27.533  1.00  0.00     0.020 C 
BRANCH  25  26
HETATM   26  C12 UNL     1      31.273  15.164  27.639  1.00  0.00     0.131 C 
BRANCH  26  27
HETATM   27  N4  UNL     1      31.965  15.066  26.381  1.00  0.00    -0.331 N 
HETATM   28  C13 UNL     1      32.390  16.030  25.573  1.00  0.00     0.118 A 
HETATM   29  N5  UNL     1      32.971  15.367  24.506  1.00  0.00    -0.340 N 
HETATM   30  C20 UNL     1      32.889  14.054  24.684  1.00  0.00     0.062 A 
ATOM     31  H5  UNL     1      33.399  15.822  23.701  1.00  0.00     0.167 HD
HETATM   32  C21 UNL     1      33.308  12.949  23.928  1.00  0.00     0.055 A 
HETATM   33  C25 UNL     1      32.255  13.822  25.868  1.00  0.00     0.063 A 
HETATM   34  C22 UNL     1      33.082  11.668  24.373  1.00  0.00     0.036 A 
HETATM   35 CL2  UNL     1      33.618  10.300  23.403  1.00  0.00    -0.084 Cl
HETATM   36  C23 UNL     1      32.437  11.433  25.575  1.00  0.00     0.026 A 
HETATM   37  C24 UNL     1      32.037  12.533  26.298  1.00  0.00     0.034 A 
BRANCH  28  38
HETATM   38  C14 UNL     1      32.313  17.484  25.608  1.00  0.00     0.008 A 
HETATM   39  C15 UNL     1      32.894  18.308  26.514  1.00  0.00     0.017 A 
HETATM   40  C16 UNL     1      32.750  19.697  26.525  1.00  0.00     0.025 A 
HETATM   41  C17 UNL     1      31.979  20.275  25.573  1.00  0.00     0.034 A 
HETATM   42 CL1  UNL     1      31.791  22.020  25.580  1.00  0.00    -0.084 Cl
HETATM   43  C18 UNL     1      31.370  19.478  24.634  1.00  0.00     0.025 A 
HETATM   44  C19 UNL     1      31.525  18.121  24.641  1.00  0.00     0.017 A 
ENDBRANCH  28  38
ENDBRANCH  26  27
ENDBRANCH  25  26
ENDBRANCH  24  25
ENDBRANCH  23  24
ENDBRANCH   1  23
TORSDOF 15
ENDMDL
MODEL 5
REMARK VINA RESULT: -5.792212150      5.742     10.551
REMARK  15 active torsions:
REMARK  status: ('A' for Active; 'I' for Inactive)
REMARK    1  A    between atoms: C6_9  and  S1_10 
REMARK    2  A    between atoms: S1_10  and  N3_13 
REMARK    3  A    between atoms: N3_13  and  C7_14 
REMARK    4  A    between atoms: N3_13  and  C26_38 
REMARK    5  A    between atoms: C7_14  and  C8_15 
REMARK    6  A    between atoms: C8_15  and  C9_16 
REMARK    7  A    between atoms: C9_16  and  C10_17 
REMARK    8  A    between atoms: C10_17  and  C11_18 
REMARK    9  A    between atoms: C11_18  and  C12_19 
REMARK   10  A    between atoms: C12_19  and  N4_20 
REMARK   11  A    between atoms: C13_21  and  C14_22 
REMARK   12  A    between atoms: C26_38  and  C27_39 
REMARK   13  A    between atoms: C27_39  and  C28_40 
REMARK   14  A    between atoms: C28_40  and  C29_41 
REMARK   15  A    between atoms: C29_41  and  N6_42 
ROOT
HETATM    1  C8  UNL     1      32.111  12.516  24.249  1.00  0.00     0.015 C 
ENDROOT
BRANCH   1   2
HETATM    2  C7  UNL     1      31.532  13.210  23.053  1.00  0.00     0.107 C 
BRANCH   2   3
HETATM    3  N3  UNL     1      30.385  14.000  23.335  1.00  0.00    -0.206 NA
BRANCH   3   4
HETATM    4  S1  UNL     1      29.034  13.513  22.452  1.00  0.00     0.247 S 
HETATM    5  O1  UNL     1      28.867  14.352  21.228  1.00  0.00    -0.206 OA
HETATM    6  O2  UNL     1      29.341  12.115  21.921  1.00  0.00    -0.206 OA
BRANCH   4   7
HETATM    7  C6  UNL     1      27.532  13.484  23.347  1.00  0.00     0.122 A 
HETATM    8  C2  UNL     1      26.286  13.771  22.833  1.00  0.00     0.047 A 
HETATM    9  C1  UNL     1      25.891  14.172  21.488  1.00  0.00     0.071 C 
HETATM   10  N1  UNL     1      25.428  13.610  23.881  1.00  0.00    -0.302 N 
HETATM   11  N2  UNL     1      26.068  13.256  24.957  1.00  0.00    -0.299 N 
ATOM     12  H1  UNL     1      24.419  13.749  23.828  1.00  0.00     0.186 HD
HETATM   13  C3  UNL     1      25.459  12.999  26.260  1.00  0.00     0.177 C 
HETATM   14  C4  UNL     1      27.394  13.164  24.675  1.00  0.00     0.049 A 
HETATM   15  C5  UNL     1      28.435  12.781  25.676  1.00  0.00     0.071 C 
ENDBRANCH   4   7
ENDBRANCH   3   4
BRANCH   3  16
HETATM   16  C26 UNL     1      30.600  15.396  23.305  1.00  0.00     0.107 C 
BRANCH  16  17
HETATM   17  C27 UNL     1      30.626  16.138  24.576  1.00  0.00     0.017 C 
BRANCH  17  18
HETATM   18  C28 UNL     1      29.502  16.131  25.515  1.00  0.00     0.031 C 
BRANCH  18  19
HETATM   19  C29 UNL     1      29.247  17.346  26.326  1.00  0.00     0.271 C 
BRANCH  19  20
HETATM   20  N6  UNL     1      27.863  17.502  26.718  1.00  0.00     0.080 N 
HETATM   21  C30 UNL     1      27.407  18.846  26.821  1.00  0.00     0.309 C 
HETATM   22  C31 UNL     1      26.953  16.643  26.029  1.00  0.00     0.309 C 
ENDBRANCH  19  20
ENDBRANCH  18  19
ENDBRANCH  17  18
ENDBRANCH  16  17
ENDBRANCH   3  16
ENDBRANCH   2   3
ENDBRANCH   1   2
BRANCH   1  23
HETATM   23  C9  UNL     1      32.870  11.286  23.741  1.00  0.00     0.001 C 
BRANCH  23  24
HETATM   24  C10 UNL     1      34.176  11.704  23.102  1.00  0.00     0.002 C 
BRANCH  24  25
HETATM   25  C11 UNL     1      34.360  10.873  21.839  1.00  0.00     0.020 C 
BRANCH  25  26
HETATM   26  C12 UNL     1      35.678  10.136  22.017  1.00  0.00     0.131 C 
BRANCH  26  27
HETATM   27  N4  UNL     1      35.647   8.779  21.539  1.00  0.00    -0.331 N 
HETATM   28  C13 UNL     1      35.356   7.660  22.190  1.00  0.00     0.118 A 
HETATM   29  N5  UNL     1      35.498   6.655  21.250  1.00  0.00    -0.340 N 
HETATM   30  C20 UNL     1      35.862   7.171  20.081  1.00  0.00     0.062 A 
ATOM     31  H5  UNL     1      35.345   5.663  21.428  1.00  0.00     0.167 HD
HETATM   32  C21 UNL     1      36.136   6.613  18.823  1.00  0.00     0.055 A 
HETATM   33  C25 UNL     1      35.967   8.521  20.225  1.00  0.00     0.063 A 
HETATM   34  C22 UNL     1      36.501   7.413  17.766  1.00  0.00     0.036 A 
HETATM   35 CL2  UNL     1      36.840   6.687  16.199  1.00  0.00    -0.084 Cl
HETATM   36  C23 UNL     1      36.609   8.784  17.913  1.00  0.00     0.026 A 
HETATM   37  C24 UNL     1      36.334   9.306  19.156  1.00  0.00     0.034 A 
BRANCH  28  38
HETATM   38  C14 UNL     1      34.997   7.358  23.570  1.00  0.00     0.008 A 
HETATM   39  C15 UNL     1      34.915   8.236  24.599  1.00  0.00     0.017 A 
HETATM   40  C16 UNL     1      34.608   7.883  25.916  1.00  0.00     0.025 A 
HETATM   41  C17 UNL     1      34.377   6.579  26.198  1.00  0.00     0.034 A 
HETATM   42 CL1  UNL     1      33.992   6.126  27.850  1.00  0.00    -0.084 Cl
HETATM   43  C18 UNL     1      34.449   5.654  25.185  1.00  0.00     0.025 A 
HETATM   44  C19 UNL     1      34.750   6.021  23.904  1.00  0.00     0.017 A 
ENDBRANCH  28  38
ENDBRANCH  26  27
ENDBRANCH  25  26
ENDBRANCH  24  25
ENDBRANCH  23  24
ENDBRANCH   1  23
TORSDOF 15
ENDMDL
