MODEL 1
REMARK VINA RESULT: -6.547213771      0.000      0.000
REMARK  4 active torsions:
REMARK  status: ('A' for Active; 'I' for Inactive)
REMARK    1  A    between atoms: C1_4  and  C2_5 
REMARK    2  A    between atoms: C1_4  and  N6_13 
REMARK    3  A    between atoms: N2_6  and  N3_8 
REMARK    4  A    between atoms: N6_13  and  C4_15 
ROOT
HETATM    1  N1  UNL     1      -1.887  67.941   9.673  1.00  0.00    -0.384 N 
ATOM      2  H11 UNL     1      -1.501  68.219   8.771  1.00  0.00     0.157 HD
ATOM      3  H12 UNL     1      -1.433  68.232  10.539  1.00  0.00     0.157 HD
HETATM    4  C1  UNL     1      -2.941  67.224   9.745  1.00  0.00     0.131 C 
ENDROOT
BRANCH   4   5
HETATM    5  C2  UNL     1      -3.491  66.826  11.034  1.00  0.00     0.155 C 
HETATM    6  N2  UNL     1      -4.271  67.639  11.638  1.00  0.00    -0.306 N 
ATOM      7  H2  UNL     1      -4.471  68.531  11.186  1.00  0.00     0.186 HD
BRANCH   6   8
HETATM    8  N3  UNL     1      -4.865  67.387  12.872  1.00  0.00    -0.276 N 
HETATM    9  C3  UNL     1      -4.614  68.166  13.849  1.00  0.00     0.215 C 
HETATM   10  N4  UNL     1      -3.749  69.257  13.664  1.00  0.00    -0.065 NA
HETATM   11  N5  UNL     1      -5.224  67.902  15.103  1.00  0.00    -0.065 NA
ATOM     12  H3  UNL     1      -5.492  66.591  12.992  1.00  0.00     0.189 HD
ENDBRANCH   6   8
ENDBRANCH   4   5
BRANCH   4  13
HETATM   13  N6  UNL     1      -3.572  66.819   8.540  1.00  0.00    -0.173 N 
ATOM     14  H6  UNL     1      -3.269  67.217   7.651  1.00  0.00     0.186 HD
BRANCH  13  15
HETATM   15  C4  UNL     1      -4.527  65.950   8.565  1.00  0.00     0.715 A 
HETATM   16  N7  UNL     1      -5.826  66.295   8.521  1.00  0.00    -0.115 N 
HETATM   17  N8  UNL     1      -6.538  65.158   8.564  1.00  0.00    -0.213 N 
ATOM     18  H7  UNL     1      -6.200  67.242   8.465  1.00  0.00     0.207 HD
HETATM   19  N9  UNL     1      -5.729  64.129   8.634  1.00  0.00    -0.213 N 
ATOM     20  H8  UNL     1      -7.557  65.103   8.546  1.00  0.00     0.210 HD
HETATM   21  N10 UNL     1      -4.488  64.624   8.634  1.00  0.00    -0.115 N 
ATOM     22  H9  UNL     1      -5.994  63.145   8.679  1.00  0.00     0.210 HD
ATOM     23  H10 UNL     1      -3.636  64.066   8.679  1.00  0.00     0.207 HD
ENDBRANCH  13  15
ENDBRANCH   4  13
TORSDOF 4
ENDMDL
MODEL 2
REMARK VINA RESULT: -6.400488595      1.211      1.716
REMARK  4 active torsions:
REMARK  status: ('A' for Active; 'I' for Inactive)
REMARK    1  A    between atoms: C1_4  and  C2_5 
REMARK    2  A    between atoms: C1_4  and  N6_13 
REMARK    3  A    between atoms: N2_6  and  N3_8 
REMARK    4  A    between atoms: N6_13  and  C4_15 
ROOT
HETATM    1  N1  UNL     1      -1.024  67.735   9.735  1.00  0.00    -0.384 N 
ATOM      2  H11 UNL     1      -0.467  67.070   9.198  1.00  0.00     0.157 HD
ATOM      3  H12 UNL     1      -0.601  68.595  10.086  1.00  0.00     0.157 HD
HETATM    4  C1  UNL     1      -2.256  67.513   9.983  1.00  0.00     0.131 C 
ENDROOT
BRANCH   4   5
HETATM    5  C2  UNL     1      -3.050  68.463  10.751  1.00  0.00     0.155 C 
HETATM    6  N2  UNL     1      -2.795  68.600  11.996  1.00  0.00    -0.306 N 
ATOM      7  H2  UNL     1      -2.045  68.035  12.393  1.00  0.00     0.186 HD
BRANCH   6   8
HETATM    8  N3  UNL     1      -3.474  69.469  12.846  1.00  0.00    -0.276 N 
HETATM    9  C3  UNL     1      -4.330  68.993  13.662  1.00  0.00     0.215 C 
HETATM   10  N4  UNL     1      -4.571  67.610  13.688  1.00  0.00    -0.065 NA
HETATM   11  N5  UNL     1      -5.017  69.887  14.524  1.00  0.00    -0.065 NA
ATOM     12  H3  UNL     1      -3.289  70.472  12.816  1.00  0.00     0.189 HD
ENDBRANCH   6   8
ENDBRANCH   4   5
BRANCH   4  13
HETATM   13  N6  UNL     1      -2.843  66.318   9.494  1.00  0.00    -0.173 N 
ATOM     14  H6  UNL     1      -2.349  65.431   9.596  1.00  0.00     0.186 HD
BRANCH  13  15
HETATM   15  C4  UNL     1      -4.001  66.347   8.922  1.00  0.00     0.715 A 
HETATM   16  N7  UNL     1      -5.059  65.657   9.385  1.00  0.00    -0.115 N 
HETATM   17  N8  UNL     1      -6.088  65.912   8.561  1.00  0.00    -0.213 N 
ATOM     18  H7  UNL     1      -5.076  65.053  10.206  1.00  0.00     0.207 HD
HETATM   19  N9  UNL     1      -5.704  66.731   7.611  1.00  0.00    -0.213 N 
ATOM     20  H8  UNL     1      -7.027  65.527   8.659  1.00  0.00     0.210 HD
HETATM   21  N10 UNL     1      -4.415  66.996   7.840  1.00  0.00    -0.115 N 
ATOM     22  H9  UNL     1      -6.277  67.094   6.849  1.00  0.00     0.210 HD
ATOM     23  H10 UNL     1      -3.833  67.608   7.267  1.00  0.00     0.207 HD
ENDBRANCH  13  15
ENDBRANCH   4  13
TORSDOF 4
ENDMDL
MODEL 3
REMARK VINA RESULT: -6.368749550      1.294      1.545
REMARK  4 active torsions:
REMARK  status: ('A' for Active; 'I' for Inactive)
REMARK    1  A    between atoms: C1_4  and  C2_5 
REMARK    2  A    between atoms: C1_4  and  N6_13 
REMARK    3  A    between atoms: N2_6  and  N3_8 
REMARK    4  A    between atoms: N6_13  and  C4_15 
ROOT
HETATM    1  N1  UNL     1      -2.646  69.414  11.091  1.00  0.00    -0.384 N 
ATOM      2  H11 UNL     1      -2.173  70.030  10.430  1.00  0.00     0.157 HD
ATOM      3  H12 UNL     1      -2.715  69.672  12.076  1.00  0.00     0.157 HD
HETATM    4  C1  UNL     1      -3.160  68.311  10.709  1.00  0.00     0.131 C 
ENDROOT
BRANCH   4   5
HETATM    5  C2  UNL     1      -3.835  67.430  11.654  1.00  0.00     0.155 C 
HETATM    6  N2  UNL     1      -4.703  67.938  12.443  1.00  0.00    -0.306 N 
ATOM      7  H2  UNL     1      -4.883  68.939  12.371  1.00  0.00     0.186 HD
BRANCH   6   8
HETATM    8  N3  UNL     1      -5.420  67.215  13.392  1.00  0.00    -0.276 N 
HETATM    9  C3  UNL     1      -5.374  67.581  14.613  1.00  0.00     0.215 C 
HETATM   10  N4  UNL     1      -4.605  68.699  14.974  1.00  0.00    -0.065 NA
HETATM   11  N5  UNL     1      -6.108  66.838  15.573  1.00  0.00    -0.065 NA
ATOM     12  H3  UNL     1      -5.974  66.404  13.115  1.00  0.00     0.189 HD
ENDBRANCH   6   8
ENDBRANCH   4   5
BRANCH   4  13
HETATM   13  N6  UNL     1      -3.064  67.953   9.340  1.00  0.00    -0.173 N 
ATOM     14  H6  UNL     1      -2.225  68.192   8.810  1.00  0.00     0.186 HD
BRANCH  13  15
HETATM   15  C4  UNL     1      -4.033  67.324   8.760  1.00  0.00     0.715 A 
HETATM   16  N7  UNL     1      -5.151  67.943   8.338  1.00  0.00    -0.115 N 
HETATM   17  N8  UNL     1      -5.937  67.004   7.789  1.00  0.00    -0.213 N 
ATOM     18  H7  UNL     1      -5.361  68.937   8.420  1.00  0.00     0.207 HD
HETATM   19  N9  UNL     1      -5.348  65.834   7.857  1.00  0.00    -0.213 N 
ATOM     20  H8  UNL     1      -6.856  67.175   7.380  1.00  0.00     0.210 HD
HETATM   21  N10 UNL     1      -4.172  66.039   8.458  1.00  0.00    -0.115 N 
ATOM     22  H9  UNL     1      -5.715  64.945   7.519  1.00  0.00     0.210 HD
ATOM     23  H10 UNL     1      -3.482  65.314   8.655  1.00  0.00     0.207 HD
ENDBRANCH  13  15
ENDBRANCH   4  13
TORSDOF 4
ENDMDL
MODEL 4
REMARK VINA RESULT: -6.348845554      1.003      1.567
REMARK  4 active torsions:
REMARK  status: ('A' for Active; 'I' for Inactive)
REMARK    1  A    between atoms: C1_4  and  C2_5 
REMARK    2  A    between atoms: C1_4  and  N6_13 
REMARK    3  A    between atoms: N2_6  and  N3_8 
REMARK    4  A    between atoms: N6_13  and  C4_15 
ROOT
HETATM    1  N1  UNL     1      -2.345  67.939   8.532  1.00  0.00    -0.384 N 
ATOM      2  H11 UNL     1      -2.469  67.473   7.633  1.00  0.00     0.157 HD
ATOM      3  H12 UNL     1      -2.037  68.911   8.569  1.00  0.00     0.157 HD
HETATM    4  C1  UNL     1      -2.569  67.325   9.628  1.00  0.00     0.131 C 
ENDROOT
BRANCH   4   5
HETATM    5  C2  UNL     1      -2.391  67.991  10.911  1.00  0.00     0.155 C 
HETATM    6  N2  UNL     1      -3.431  68.395  11.534  1.00  0.00    -0.306 N 
ATOM      7  H2  UNL     1      -4.339  68.232  11.101  1.00  0.00     0.186 HD
BRANCH   6   8
HETATM    8  N3  UNL     1      -3.406  69.045  12.766  1.00  0.00    -0.276 N 
HETATM    9  C3  UNL     1      -4.140  68.607  13.711  1.00  0.00     0.215 C 
HETATM   10  N4  UNL     1      -4.955  67.484  13.494  1.00  0.00    -0.065 NA
HETATM   11  N5  UNL     1      -4.108  69.275  14.963  1.00  0.00    -0.065 NA
ATOM     12  H3  UNL     1      -2.809  69.860  12.909  1.00  0.00     0.189 HD
ENDBRANCH   6   8
ENDBRANCH   4   5
BRANCH   4  13
HETATM   13  N6  UNL     1      -2.997  65.973   9.575  1.00  0.00    -0.173 N 
ATOM     14  H6  UNL     1      -2.358  65.227   9.850  1.00  0.00     0.186 HD
BRANCH  13  15
HETATM   15  C4  UNL     1      -4.193  65.683   9.180  1.00  0.00     0.715 A 
HETATM   16  N7  UNL     1      -4.580  64.427   8.895  1.00  0.00    -0.115 N 
HETATM   17  N8  UNL     1      -5.868  64.486   8.521  1.00  0.00    -0.213 N 
ATOM     18  H7  UNL     1      -4.004  63.587   8.952  1.00  0.00     0.207 HD
HETATM   19  N9  UNL     1      -6.287  65.728   8.565  1.00  0.00    -0.213 N 
ATOM     20  H8  UNL     1      -6.435  63.685   8.243  1.00  0.00     0.210 HD
HETATM   21  N10 UNL     1      -5.248  66.462   8.973  1.00  0.00    -0.115 N 
ATOM     22  H9  UNL     1      -7.221  66.066   8.333  1.00  0.00     0.210 HD
ATOM     23  H10 UNL     1      -5.263  67.473   9.107  1.00  0.00     0.207 HD
ENDBRANCH  13  15
ENDBRANCH   4  13
TORSDOF 4
ENDMDL
MODEL 5
REMARK VINA RESULT: -6.328847959      1.236      1.644
REMARK  4 active torsions:
REMARK  status: ('A' for Active; 'I' for Inactive)
REMARK    1  A    between atoms: C1_4  and  C2_5 
REMARK    2  A    between atoms: C1_4  and  N6_13 
REMARK    3  A    between atoms: N2_6  and  N3_8 
REMARK    4  A    between atoms: N6_13  and  C4_15 
ROOT
HETATM    1  N1  UNL     1      -1.321  66.580  10.340  1.00  0.00    -0.384 N 
ATOM      2  H11 UNL     1      -1.075  65.885   9.634  1.00  0.00     0.157 HD
ATOM      3  H12 UNL     1      -0.911  66.534  11.273  1.00  0.00     0.157 HD
HETATM    4  C1  UNL     1      -2.144  67.519  10.078  1.00  0.00     0.131 C 
ENDROOT
BRANCH   4   5
HETATM    5  C2  UNL     1      -2.496  68.510  11.087  1.00  0.00     0.155 C 
HETATM    6  N2  UNL     1      -3.428  68.228  11.915  1.00  0.00    -0.306 N 
ATOM      7  H2  UNL     1      -3.882  67.319  11.829  1.00  0.00     0.186 HD
BRANCH   6   8
HETATM    8  N3  UNL     1      -3.865  69.080  12.926  1.00  0.00    -0.276 N 
HETATM    9  C3  UNL     1      -4.648  68.625  13.823  1.00  0.00     0.215 C 
HETATM   10  N4  UNL     1      -5.053  67.281  13.774  1.00  0.00    -0.065 NA
HETATM   11  N5  UNL     1      -5.088  69.501  14.850  1.00  0.00    -0.065 NA
ATOM     12  H3  UNL     1      -3.562  70.055  12.949  1.00  0.00     0.189 HD
ENDBRANCH   6   8
ENDBRANCH   4   5
BRANCH   4  13
HETATM   13  N6  UNL     1      -2.714  67.583   8.781  1.00  0.00    -0.173 N 
ATOM     14  H6  UNL     1      -2.192  68.015   8.018  1.00  0.00     0.186 HD
BRANCH  13  15
HETATM   15  C4  UNL     1      -3.890  67.096   8.561  1.00  0.00     0.715 A 
HETATM   16  N7  UNL     1      -4.670  67.509   7.546  1.00  0.00    -0.115 N 
HETATM   17  N8  UNL     1      -5.809  66.801   7.611  1.00  0.00    -0.213 N 
ATOM     18  H7  UNL     1      -4.440  68.224   6.857  1.00  0.00     0.207 HD
HETATM   19  N9  UNL     1      -5.760  65.971   8.625  1.00  0.00    -0.213 N 
ATOM     20  H8  UNL     1      -6.595  66.896   6.968  1.00  0.00     0.210 HD
HETATM   21  N10 UNL     1      -4.572  66.158   9.207  1.00  0.00    -0.115 N 
ATOM     22  H9  UNL     1      -6.485  65.314   8.912  1.00  0.00     0.210 HD
ATOM     23  H10 UNL     1      -4.238  65.653  10.028  1.00  0.00     0.207 HD
ENDBRANCH  13  15
ENDBRANCH   4  13
TORSDOF 4
ENDMDL
