MODEL 1
REMARK VINA RESULT: -7.599151976      0.000      0.000
REMARK  3 active torsions:
REMARK  status: ('A' for Active; 'I' for Inactive)
REMARK    1  A    between atoms: N2_4  and  N3_6 
REMARK       I    between atoms: N3_6  and  C1_8 
REMARK    2  A    between atoms: N5_10  and  N6_12 
REMARK    3  A    between atoms: C2_14  and  C3_15 
ROOT
HETATM    1  N6  UNL     1      -4.582  67.902  11.854  1.00  0.00    -0.307 N 
ATOM      2  H6  UNL     1      -5.441  68.334  11.514  1.00  0.00     0.186 HD
HETATM    3  C2  UNL     1      -3.987  66.999  11.139  1.00  0.00     0.137 C 
ENDROOT
BRANCH   1   4
HETATM    4  N5  UNL     1      -4.054  68.288  13.087  1.00  0.00    -0.273 N 
HETATM    5  C1  UNL     1      -3.444  69.433  13.166  1.00  0.00     0.223 C 
HETATM    6  N3  UNL     1      -3.312  70.276  12.035  1.00  0.00    -0.258 N 
HETATM    7  N4  UNL     1      -2.883  69.881  14.406  1.00  0.00    -0.061 NA
ATOM      8  H3  UNL     1      -4.103  70.375  11.399  1.00  0.00     0.191 HD
ATOM      9  H5  UNL     1      -4.144  67.687  13.906  1.00  0.00     0.189 HD
BRANCH   6  10
HETATM   10  N2  UNL     1      -2.136  70.973  11.763  1.00  0.00    -0.247 N 
HETATM   11  N1  UNL     1      -1.602  71.726  12.632  1.00  0.00    -0.331 N 
ATOM     12  H12 UNL     1      -2.054  71.813  13.542  1.00  0.00     0.178 HD
ATOM     13  H11 UNL     1      -0.741  72.236  12.433  1.00  0.00     0.178 HD
ATOM     14  H2  UNL     1      -1.696  70.874  10.848  1.00  0.00     0.207 HD
ENDBRANCH   6  10
ENDBRANCH   1   4
BRANCH   3  15
HETATM   15  C3  UNL     1      -4.523  66.590   9.862  1.00  0.00     0.058 A 
HETATM   16  C4  UNL     1      -4.545  67.520   8.815  1.00  0.00     0.105 A 
HETATM   17  C5  UNL     1      -5.057  67.132   7.594  1.00  0.00     0.251 A 
HETATM   18  O1  UNL     1      -5.114  67.906   6.602  1.00  0.00    -0.268 OA
HETATM   19  N7  UNL     1      -5.513  65.870   7.471  1.00  0.00    -0.275 N 
HETATM   20  C6  UNL     1      -5.476  65.005   8.498  1.00  0.00     0.327 A 
ATOM     21  H7  UNL     1      -5.895  65.564   6.577  1.00  0.00     0.173 HD
HETATM   22  O2  UNL     1      -5.912  63.827   8.346  1.00  0.00    -0.247 OA
HETATM   23  N8  UNL     1      -4.987  65.340   9.701  1.00  0.00    -0.307 N 
ATOM     24  H8  UNL     1      -4.969  64.668  10.468  1.00  0.00     0.170 HD
ENDBRANCH   3  15
TORSDOF 3
ENDMDL
MODEL 2
REMARK VINA RESULT: -7.528313518      0.678      1.986
REMARK  3 active torsions:
REMARK  status: ('A' for Active; 'I' for Inactive)
REMARK    1  A    between atoms: N2_4  and  N3_6 
REMARK       I    between atoms: N3_6  and  C1_8 
REMARK    2  A    between atoms: N5_10  and  N6_12 
REMARK    3  A    between atoms: C2_14  and  C3_15 
ROOT
HETATM    1  N6  UNL     1      -4.548  67.901  11.850  1.00  0.00    -0.307 N 
ATOM      2  H6  UNL     1      -5.432  68.302  11.535  1.00  0.00     0.186 HD
HETATM    3  C2  UNL     1      -3.934  67.032  11.108  1.00  0.00     0.137 C 
ENDROOT
BRANCH   1   4
HETATM    4  N5  UNL     1      -4.009  68.290  13.077  1.00  0.00    -0.273 N 
HETATM    5  C1  UNL     1      -3.414  69.444  13.151  1.00  0.00     0.223 C 
HETATM    6  N3  UNL     1      -3.309  70.291  12.020  1.00  0.00    -0.258 N 
HETATM    7  N4  UNL     1      -2.842  69.896  14.384  1.00  0.00    -0.061 NA
ATOM      8  H3  UNL     1      -4.111  70.381  11.395  1.00  0.00     0.191 HD
ATOM      9  H5  UNL     1      -4.080  67.686  13.895  1.00  0.00     0.189 HD
BRANCH   6  10
HETATM   10  N2  UNL     1      -2.147  71.005  11.734  1.00  0.00    -0.247 N 
HETATM   11  N1  UNL     1      -1.598  71.745  12.606  1.00  0.00    -0.331 N 
ATOM     12  H12 UNL     1      -2.028  71.808  13.528  1.00  0.00     0.178 HD
ATOM     13  H11 UNL     1      -0.747  72.267  12.396  1.00  0.00     0.178 HD
ATOM     14  H2  UNL     1      -1.730  70.930  10.806  1.00  0.00     0.207 HD
ENDBRANCH   6  10
ENDBRANCH   1   4
BRANCH   3  15
HETATM   15  C3  UNL     1      -4.482  66.620   9.838  1.00  0.00     0.058 A 
HETATM   16  C4  UNL     1      -4.878  65.286   9.679  1.00  0.00     0.105 A 
HETATM   17  C5  UNL     1      -5.401  64.890   8.465  1.00  0.00     0.251 A 
HETATM   18  O1  UNL     1      -5.781  63.710   8.239  1.00  0.00    -0.268 OA
HETATM   19  N7  UNL     1      -5.505  65.813   7.489  1.00  0.00    -0.275 N 
HETATM   20  C6  UNL     1      -5.114  67.084   7.678  1.00  0.00     0.327 A 
ATOM     21  H7  UNL     1      -5.889  65.540   6.585  1.00  0.00     0.173 HD
HETATM   22  O2  UNL     1      -5.227  67.925   6.739  1.00  0.00    -0.247 OA
HETATM   23  N8  UNL     1      -4.600  67.511   8.840  1.00  0.00    -0.307 N 
ATOM     24  H8  UNL     1      -4.310  68.481   8.963  1.00  0.00     0.170 HD
ENDBRANCH   3  15
TORSDOF 3
ENDMDL
MODEL 3
REMARK VINA RESULT: -7.450420346      1.942      3.588
REMARK  3 active torsions:
REMARK  status: ('A' for Active; 'I' for Inactive)
REMARK    1  A    between atoms: N2_4  and  N3_6 
REMARK       I    between atoms: N3_6  and  C1_8 
REMARK    2  A    between atoms: N5_10  and  N6_12 
REMARK    3  A    between atoms: C2_14  and  C3_15 
ROOT
HETATM    1  N6  UNL     1      -4.606  67.437  11.988  1.00  0.00    -0.307 N 
ATOM      2  H6  UNL     1      -5.276  66.670  12.053  1.00  0.00     0.186 HD
HETATM    3  C2  UNL     1      -4.156  67.802  10.827  1.00  0.00     0.137 C 
ENDROOT
BRANCH   1   4
HETATM    4  N5  UNL     1      -4.181  68.087  13.147  1.00  0.00    -0.273 N 
HETATM    5  C1  UNL     1      -4.959  68.065  14.188  1.00  0.00     0.223 C 
HETATM    6  N3  UNL     1      -6.211  67.403  14.156  1.00  0.00    -0.258 N 
HETATM    7  N4  UNL     1      -4.574  68.714  15.405  1.00  0.00    -0.061 NA
ATOM      8  H3  UNL     1      -6.281  66.502  13.683  1.00  0.00     0.191 HD
ATOM      9  H5  UNL     1      -3.281  68.566  13.178  1.00  0.00     0.189 HD
BRANCH   6  10
HETATM   10  N2  UNL     1      -7.351  67.943  14.750  1.00  0.00    -0.247 N 
HETATM   11  N1  UNL     1      -8.485  67.865  14.189  1.00  0.00    -0.331 N 
ATOM     12  H12 UNL     1      -8.548  67.395  13.286  1.00  0.00     0.178 HD
ATOM     13  H11 UNL     1      -9.319  68.260  14.624  1.00  0.00     0.178 HD
ATOM     14  H2  UNL     1      -7.270  68.410  15.653  1.00  0.00     0.207 HD
ENDBRANCH   6  10
ENDBRANCH   1   4
BRANCH   3  15
HETATM   15  C3  UNL     1      -4.588  67.138   9.620  1.00  0.00     0.058 A 
HETATM   16  C4  UNL     1      -4.783  65.751   9.650  1.00  0.00     0.105 A 
HETATM   17  C5  UNL     1      -5.196  65.115   8.497  1.00  0.00     0.251 A 
HETATM   18  O1  UNL     1      -5.393  63.873   8.438  1.00  0.00    -0.268 OA
HETATM   19  N7  UNL     1      -5.391  65.866   7.396  1.00  0.00    -0.275 N 
HETATM   20  C6  UNL     1      -5.194  67.194   7.404  1.00  0.00     0.327 A 
ATOM     21  H7  UNL     1      -5.696  65.414   6.534  1.00  0.00     0.173 HD
HETATM   22  O2  UNL     1      -5.388  67.868   6.351  1.00  0.00    -0.247 OA
HETATM   23  N8  UNL     1      -4.794  67.852   8.502  1.00  0.00    -0.307 N 
ATOM     24  H8  UNL     1      -4.650  68.862   8.487  1.00  0.00     0.170 HD
ENDBRANCH   3  15
TORSDOF 3
ENDMDL
MODEL 4
REMARK VINA RESULT: -7.445408440      1.824      2.979
REMARK  3 active torsions:
REMARK  status: ('A' for Active; 'I' for Inactive)
REMARK    1  A    between atoms: N2_4  and  N3_6 
REMARK       I    between atoms: N3_6  and  C1_8 
REMARK    2  A    between atoms: N5_10  and  N6_12 
REMARK    3  A    between atoms: C2_14  and  C3_15 
ROOT
HETATM    1  N6  UNL     1      -4.619  67.461  11.974  1.00  0.00    -0.307 N 
ATOM      2  H6  UNL     1      -5.317  66.721  12.050  1.00  0.00     0.186 HD
HETATM    3  C2  UNL     1      -4.151  67.788  10.809  1.00  0.00     0.137 C 
ENDROOT
BRANCH   1   4
HETATM    4  N5  UNL     1      -4.175  68.116  13.123  1.00  0.00    -0.273 N 
HETATM    5  C1  UNL     1      -4.945  68.116  14.170  1.00  0.00     0.223 C 
HETATM    6  N3  UNL     1      -6.207  67.471  14.155  1.00  0.00    -0.258 N 
HETATM    7  N4  UNL     1      -4.541  68.772  15.378  1.00  0.00    -0.061 NA
ATOM      8  H3  UNL     1      -6.293  66.567  13.691  1.00  0.00     0.191 HD
ATOM      9  H5  UNL     1      -3.268  68.583  13.142  1.00  0.00     0.189 HD
BRANCH   6  10
HETATM   10  N2  UNL     1      -7.334  68.033  14.752  1.00  0.00    -0.247 N 
HETATM   11  N1  UNL     1      -8.480  67.935  14.218  1.00  0.00    -0.331 N 
ATOM     12  H12 UNL     1      -8.561  67.433  13.335  1.00  0.00     0.178 HD
ATOM     13  H11 UNL     1      -9.304  68.347  14.655  1.00  0.00     0.178 HD
ATOM     14  H2  UNL     1      -7.234  68.533  15.636  1.00  0.00     0.207 HD
ENDBRANCH   6  10
ENDBRANCH   1   4
BRANCH   3  15
HETATM   15  C3  UNL     1      -4.601  67.118   9.612  1.00  0.00     0.058 A 
HETATM   16  C4  UNL     1      -4.742  67.867   8.437  1.00  0.00     0.105 A 
HETATM   17  C5  UNL     1      -5.172  67.228   7.292  1.00  0.00     0.251 A 
HETATM   18  O1  UNL     1      -5.326  67.827   6.195  1.00  0.00    -0.268 OA
HETATM   19  N7  UNL     1      -5.437  65.909   7.364  1.00  0.00    -0.275 N 
HETATM   20  C6  UNL     1      -5.291  65.224   8.510  1.00  0.00     0.327 A 
ATOM     21  H7  UNL     1      -5.757  65.420   6.529  1.00  0.00     0.173 HD
HETATM   22  O2  UNL     1      -5.549  63.985   8.541  1.00  0.00    -0.247 OA
HETATM   23  N8  UNL     1      -4.876  65.804   9.645  1.00  0.00    -0.307 N 
ATOM     24  H8  UNL     1      -4.771  65.264  10.504  1.00  0.00     0.170 HD
ENDBRANCH   3  15
TORSDOF 3
ENDMDL
MODEL 5
REMARK VINA RESULT: -7.144063860      3.644      6.456
REMARK  3 active torsions:
REMARK  status: ('A' for Active; 'I' for Inactive)
REMARK    1  A    between atoms: N2_4  and  N3_6 
REMARK       I    between atoms: N3_6  and  C1_8 
REMARK    2  A    between atoms: N5_10  and  N6_12 
REMARK    3  A    between atoms: C2_14  and  C3_15 
ROOT
HETATM    1  N6  UNL     1      -4.736  67.779  10.699  1.00  0.00    -0.307 N 
ATOM      2  H6  UNL     1      -5.505  67.128  10.859  1.00  0.00     0.186 HD
HETATM    3  C2  UNL     1      -4.167  68.364  11.707  1.00  0.00     0.137 C 
ENDROOT
BRANCH   1   4
HETATM    4  N5  UNL     1      -4.305  68.035   9.396  1.00  0.00    -0.273 N 
HETATM    5  C1  UNL     1      -4.839  67.356   8.425  1.00  0.00     0.223 C 
HETATM    6  N3  UNL     1      -5.834  66.378   8.671  1.00  0.00    -0.258 N 
HETATM    7  N4  UNL     1      -4.435  67.576   7.069  1.00  0.00    -0.061 NA
ATOM      8  H3  UNL     1      -6.557  66.574   9.363  1.00  0.00     0.191 HD
ATOM      9  H5  UNL     1      -3.588  68.737   9.211  1.00  0.00     0.189 HD
BRANCH   6  10
HETATM   10  N2  UNL     1      -5.856  65.157   7.999  1.00  0.00    -0.247 N 
HETATM   11  N1  UNL     1      -5.314  64.123   8.494  1.00  0.00    -0.331 N 
ATOM     12  H12 UNL     1      -4.858  64.203   9.403  1.00  0.00     0.178 HD
ATOM     13  H11 UNL     1      -5.330  63.230   8.002  1.00  0.00     0.178 HD
ATOM     14  H2  UNL     1      -6.317  65.095   7.091  1.00  0.00     0.207 HD
ENDBRANCH   6  10
ENDBRANCH   1   4
BRANCH   3  15
HETATM   15  C3  UNL     1      -4.604  68.109  13.059  1.00  0.00     0.058 A 
HETATM   16  C4  UNL     1      -4.199  68.987  14.072  1.00  0.00     0.105 A 
HETATM   17  C5  UNL     1      -4.615  68.744  15.365  1.00  0.00     0.251 A 
HETATM   18  O1  UNL     1      -4.296  69.484  16.333  1.00  0.00    -0.268 OA
HETATM   19  N7  UNL     1      -5.396  67.669  15.587  1.00  0.00    -0.275 N 
HETATM   20  C6  UNL     1      -5.765  66.849  14.590  1.00  0.00     0.327 A 
ATOM     21  H7  UNL     1      -5.714  67.473  16.535  1.00  0.00     0.173 HD
HETATM   22  O2  UNL     1      -6.499  65.848  14.835  1.00  0.00    -0.247 OA
HETATM   23  N8  UNL     1      -5.383  67.046  13.320  1.00  0.00    -0.307 N 
ATOM     24  H8  UNL     1      -5.674  66.411  12.577  1.00  0.00     0.170 HD
ENDBRANCH   3  15
TORSDOF 3
ENDMDL
