MODEL 1
REMARK VINA RESULT: -6.839741037      0.000      0.000
REMARK  6 active torsions:
REMARK  status: ('A' for Active; 'I' for Inactive)
REMARK    1  A    between atoms: N1_1  and  N2_4 
REMARK    2  A    between atoms: C1_6  and  N3_7 
REMARK    3  A    between atoms: N3_7  and  N4_8 
REMARK    4  A    between atoms: N3_7  and  C3_13 
REMARK    5  A    between atoms: C3_13  and  O1_14 
REMARK    6  A    between atoms: C3_13  and  C4_16 
ROOT
HETATM    1  N3  UNL     1      -3.750  66.851  10.430  1.00  0.00    -0.224 N 
ENDROOT
BRANCH   1   2
HETATM    2  C1  UNL     1      -2.368  66.798  10.400  1.00  0.00     0.225 C 
HETATM    3  N2  UNL     1      -1.734  67.866   9.907  1.00  0.00    -0.301 N 
ATOM      4  H2  UNL     1      -2.278  68.663   9.577  1.00  0.00     0.187 HD
BRANCH   3   5
HETATM    5  N1  UNL     1      -0.361  67.911   9.834  1.00  0.00    -0.344 N 
ATOM      6  H12 UNL     1       0.120  67.180   9.310  1.00  0.00     0.176 HD
ATOM      7  H11 UNL     1       0.169  68.653  10.291  1.00  0.00     0.176 HD
ENDBRANCH   3   5
ENDBRANCH   1   2
BRANCH   1   8
HETATM    8  N4  UNL     1      -4.337  66.768  11.741  1.00  0.00    -0.266 N 
HETATM    9  C2  UNL     1      -4.347  67.809  12.502  1.00  0.00     0.216 C 
HETATM   10  N5  UNL     1      -4.941  67.664  13.785  1.00  0.00    -0.065 NA
HETATM   11  N6  UNL     1      -3.804  69.067  12.127  1.00  0.00    -0.065 NA
ATOM     12  H4  UNL     1      -4.744  65.890  12.066  1.00  0.00     0.190 HD
ENDBRANCH   1   8
BRANCH   1  13
HETATM   13  C3  UNL     1      -4.616  66.973   9.358  1.00  0.00     0.191 C 
BRANCH  13  14
HETATM   14  O1  UNL     1      -4.963  68.222   9.134  1.00  0.00    -0.343 OA
ATOM     15  H1  UNL     1      -5.791  68.291   8.673  1.00  0.00     0.219 HD
ENDBRANCH  13  14
BRANCH  13  16
HETATM   16  C4  UNL     1      -5.198  66.007   8.460  1.00  0.00     0.106 A 
HETATM   17  C5  UNL     1      -5.325  64.646   8.792  1.00  0.00     0.111 A 
HETATM   18  C6  UNL     1      -5.912  64.001   7.736  1.00  0.00     0.262 A 
HETATM   19  O2  UNL     1      -6.179  62.749   7.699  1.00  0.00    -0.267 OA
HETATM   20  N7  UNL     1      -6.135  64.910   6.802  1.00  0.00    -0.266 N 
HETATM   21  N8  UNL     1      -5.710  66.112   7.231  1.00  0.00    -0.294 N 
ATOM     22  H7  UNL     1      -6.565  64.728   5.895  1.00  0.00     0.190 HD
ATOM     23  H8  UNL     1      -5.770  66.978   6.696  1.00  0.00     0.187 HD
ENDBRANCH  13  16
ENDBRANCH   1  13
TORSDOF 6
ENDMDL
MODEL 2
REMARK VINA RESULT: -6.659143825      1.522      1.865
REMARK  6 active torsions:
REMARK  status: ('A' for Active; 'I' for Inactive)
REMARK    1  A    between atoms: N1_1  and  N2_4 
REMARK    2  A    between atoms: C1_6  and  N3_7 
REMARK    3  A    between atoms: N3_7  and  N4_8 
REMARK    4  A    between atoms: N3_7  and  C3_13 
REMARK    5  A    between atoms: C3_13  and  O1_14 
REMARK    6  A    between atoms: C3_13  and  C4_16 
ROOT
HETATM    1  N3  UNL     1      -2.461  67.841  10.039  1.00  0.00    -0.224 N 
ENDROOT
BRANCH   1   2
HETATM    2  C1  UNL     1      -1.340  67.143  10.449  1.00  0.00     0.225 C 
HETATM    3  N2  UNL     1      -1.508  65.852  10.750  1.00  0.00    -0.301 N 
ATOM      4  H2  UNL     1      -2.436  65.436  10.668  1.00  0.00     0.187 HD
BRANCH   3   5
HETATM    5  N1  UNL     1      -0.456  65.072  11.167  1.00  0.00    -0.344 N 
ATOM      6  H12 UNL     1       0.440  65.525  11.349  1.00  0.00     0.176 HD
ATOM      7  H11 UNL     1      -0.559  64.065  11.293  1.00  0.00     0.176 HD
ENDBRANCH   3   5
ENDBRANCH   1   2
BRANCH   1   8
HETATM    8  N4  UNL     1      -2.874  68.905  10.915  1.00  0.00    -0.266 N 
HETATM    9  C2  UNL     1      -3.610  68.638  11.940  1.00  0.00     0.216 C 
HETATM   10  N5  UNL     1      -3.986  69.731  12.766  1.00  0.00    -0.065 NA
HETATM   11  N6  UNL     1      -4.054  67.330  12.275  1.00  0.00    -0.065 NA
ATOM     12  H4  UNL     1      -2.586  69.866  10.726  1.00  0.00     0.190 HD
ENDBRANCH   1   8
BRANCH   1  13
HETATM   13  C3  UNL     1      -3.217  67.634   8.899  1.00  0.00     0.191 C 
BRANCH  13  14
HETATM   14  O1  UNL     1      -2.825  68.386   7.894  1.00  0.00    -0.343 OA
ATOM     15  H1  UNL     1      -3.539  68.611   7.309  1.00  0.00     0.219 HD
ENDBRANCH  13  14
BRANCH  13  16
HETATM   16  C4  UNL     1      -4.333  66.766   8.613  1.00  0.00     0.106 A 
HETATM   17  C5  UNL     1      -4.263  65.369   8.767  1.00  0.00     0.111 A 
HETATM   18  C6  UNL     1      -5.476  64.840   8.417  1.00  0.00     0.262 A 
HETATM   19  O2  UNL     1      -5.765  63.593   8.440  1.00  0.00    -0.267 OA
HETATM   20  N7  UNL     1      -6.254  65.851   8.066  1.00  0.00    -0.266 N 
HETATM   21  N8  UNL     1      -5.573  67.005   8.182  1.00  0.00    -0.294 N 
ATOM     22  H7  UNL     1      -7.222  65.767   7.755  1.00  0.00     0.190 HD
ATOM     23  H8  UNL     1      -5.951  67.929   7.972  1.00  0.00     0.187 HD
ENDBRANCH  13  16
ENDBRANCH   1  13
TORSDOF 6
ENDMDL
MODEL 3
REMARK VINA RESULT: -6.430231650      1.370      2.525
REMARK  6 active torsions:
REMARK  status: ('A' for Active; 'I' for Inactive)
REMARK    1  A    between atoms: N1_1  and  N2_4 
REMARK    2  A    between atoms: C1_6  and  N3_7 
REMARK    3  A    between atoms: N3_7  and  N4_8 
REMARK    4  A    between atoms: N3_7  and  C3_13 
REMARK    5  A    between atoms: C3_13  and  O1_14 
REMARK    6  A    between atoms: C3_13  and  C4_16 
ROOT
HETATM    1  N3  UNL     1      -3.572  67.850  10.515  1.00  0.00    -0.224 N 
ENDROOT
BRANCH   1   2
HETATM    2  C1  UNL     1      -3.666  68.903  11.405  1.00  0.00     0.225 C 
HETATM    3  N2  UNL     1      -2.751  69.871  11.295  1.00  0.00    -0.301 N 
ATOM      4  H2  UNL     1      -2.032  69.800  10.574  1.00  0.00     0.187 HD
BRANCH   3   5
HETATM    5  N1  UNL     1      -2.759  70.961  12.133  1.00  0.00    -0.344 N 
ATOM      6  H12 UNL     1      -1.958  71.591  12.115  1.00  0.00     0.176 HD
ATOM      7  H11 UNL     1      -3.543  71.141  12.760  1.00  0.00     0.176 HD
ENDBRANCH   3   5
ENDBRANCH   1   2
BRANCH   1   8
HETATM    8  N4  UNL     1      -2.816  66.718  10.983  1.00  0.00    -0.266 N 
HETATM    9  C2  UNL     1      -1.573  66.604  10.656  1.00  0.00     0.216 C 
HETATM   10  N5  UNL     1      -0.880  65.465  11.148  1.00  0.00    -0.065 NA
HETATM   11  N6  UNL     1      -0.879  67.542   9.846  1.00  0.00    -0.065 NA
ATOM     12  H4  UNL     1      -3.260  66.011  11.569  1.00  0.00     0.190 HD
ENDBRANCH   1   8
BRANCH   1  13
HETATM   13  C3  UNL     1      -4.117  67.762   9.246  1.00  0.00     0.191 C 
BRANCH  13  14
HETATM   14  O1  UNL     1      -3.921  68.855   8.540  1.00  0.00    -0.343 OA
ATOM     15  H1  UNL     1      -4.029  68.708   7.608  1.00  0.00     0.219 HD
ENDBRANCH  13  14
BRANCH  13  16
HETATM   16  C4  UNL     1      -4.844  66.718   8.567  1.00  0.00     0.106 A 
HETATM   17  C5  UNL     1      -4.773  65.369   8.960  1.00  0.00     0.111 A 
HETATM   18  C6  UNL     1      -5.571  64.638   8.121  1.00  0.00     0.262 A 
HETATM   19  O2  UNL     1      -5.742  63.371   8.193  1.00  0.00    -0.267 OA
HETATM   20  N7  UNL     1      -6.105  65.485   7.257  1.00  0.00    -0.266 N 
HETATM   21  N8  UNL     1      -5.673  66.731   7.521  1.00  0.00    -0.294 N 
ATOM     22  H7  UNL     1      -6.747  65.232   6.506  1.00  0.00     0.190 HD
ATOM     23  H8  UNL     1      -5.940  67.565   6.998  1.00  0.00     0.187 HD
ENDBRANCH  13  16
ENDBRANCH   1  13
TORSDOF 6
ENDMDL
MODEL 4
REMARK VINA RESULT: -6.371017206      3.036      5.217
REMARK  6 active torsions:
REMARK  status: ('A' for Active; 'I' for Inactive)
REMARK    1  A    between atoms: N1_1  and  N2_4 
REMARK    2  A    between atoms: C1_6  and  N3_7 
REMARK    3  A    between atoms: N3_7  and  N4_8 
REMARK    4  A    between atoms: N3_7  and  C3_13 
REMARK    5  A    between atoms: C3_13  and  O1_14 
REMARK    6  A    between atoms: C3_13  and  C4_16 
ROOT
HETATM    1  N3  UNL     1      -2.614  68.085  10.142  1.00  0.00    -0.224 N 
ENDROOT
BRANCH   1   2
HETATM    2  C1  UNL     1      -1.519  67.241  10.107  1.00  0.00     0.225 C 
HETATM    3  N2  UNL     1      -1.620  66.092  10.781  1.00  0.00    -0.301 N 
ATOM      4  H2  UNL     1      -2.481  65.882  11.286  1.00  0.00     0.187 HD
BRANCH   3   5
HETATM    5  N1  UNL     1      -0.586  65.186  10.807  1.00  0.00    -0.344 N 
ATOM      6  H12 UNL     1       0.357  65.521  10.608  1.00  0.00     0.176 HD
ATOM      7  H11 UNL     1      -0.749  64.202  11.019  1.00  0.00     0.176 HD
ENDBRANCH   3   5
ENDBRANCH   1   2
BRANCH   1   8
HETATM    8  N4  UNL     1      -3.265  68.295   8.876  1.00  0.00    -0.266 N 
HETATM    9  C2  UNL     1      -4.195  67.486   8.495  1.00  0.00     0.216 C 
HETATM   10  N5  UNL     1      -4.800  67.746   7.236  1.00  0.00    -0.065 NA
HETATM   11  N6  UNL     1      -4.633  66.370   9.259  1.00  0.00    -0.065 NA
ATOM     12  H4  UNL     1      -2.994  69.081   8.284  1.00  0.00     0.190 HD
ENDBRANCH   1   8
BRANCH   1  13
HETATM   13  C3  UNL     1      -3.145  68.738  11.240  1.00  0.00     0.191 C 
BRANCH  13  14
HETATM   14  O1  UNL     1      -2.839  70.017  11.258  1.00  0.00    -0.343 OA
ATOM     15  H1  UNL     1      -1.975  70.178  11.619  1.00  0.00     0.219 HD
ENDBRANCH  13  14
BRANCH  13  16
HETATM   16  C4  UNL     1      -3.955  68.287  12.345  1.00  0.00     0.106 A 
HETATM   17  C5  UNL     1      -3.944  68.925  13.599  1.00  0.00     0.111 A 
HETATM   18  C6  UNL     1      -4.814  68.261  14.423  1.00  0.00     0.262 A 
HETATM   19  O2  UNL     1      -5.052  68.575  15.641  1.00  0.00    -0.267 OA
HETATM   20  N7  UNL     1      -5.333  67.269  13.719  1.00  0.00    -0.266 N 
HETATM   21  N8  UNL     1      -4.822  67.281  12.476  1.00  0.00    -0.294 N 
ATOM     22  H7  UNL     1      -6.017  66.596  14.068  1.00  0.00     0.190 HD
ATOM     23  H8  UNL     1      -5.062  66.618  11.739  1.00  0.00     0.187 HD
ENDBRANCH  13  16
ENDBRANCH   1  13
TORSDOF 6
ENDMDL
MODEL 5
REMARK VINA RESULT: -6.289760909      2.901      6.077
REMARK  6 active torsions:
REMARK  status: ('A' for Active; 'I' for Inactive)
REMARK    1  A    between atoms: N1_1  and  N2_4 
REMARK    2  A    between atoms: C1_6  and  N3_7 
REMARK    3  A    between atoms: N3_7  and  N4_8 
REMARK    4  A    between atoms: N3_7  and  C3_13 
REMARK    5  A    between atoms: C3_13  and  O1_14 
REMARK    6  A    between atoms: C3_13  and  C4_16 
ROOT
HETATM    1  N3  UNL     1      -2.898  68.068  10.030  1.00  0.00    -0.224 N 
ENDROOT
BRANCH   1   2
HETATM    2  C1  UNL     1      -1.783  67.251  10.004  1.00  0.00     0.225 C 
HETATM    3  N2  UNL     1      -1.830  66.139  10.744  1.00  0.00    -0.301 N 
ATOM      4  H2  UNL     1      -2.668  65.937  11.289  1.00  0.00     0.187 HD
BRANCH   3   5
HETATM    5  N1  UNL     1      -0.772  65.263  10.785  1.00  0.00    -0.344 N 
ATOM      6  H12 UNL     1      -0.144  65.298  11.588  1.00  0.00     0.176 HD
ATOM      7  H11 UNL     1      -0.610  64.591  10.034  1.00  0.00     0.176 HD
ENDBRANCH   3   5
ENDBRANCH   1   2
BRANCH   1   8
HETATM    8  N4  UNL     1      -3.528  68.284   8.755  1.00  0.00    -0.266 N 
HETATM    9  C2  UNL     1      -4.351  67.405   8.292  1.00  0.00     0.216 C 
HETATM   10  N5  UNL     1      -4.940  67.675   7.028  1.00  0.00    -0.065 NA
HETATM   11  N6  UNL     1      -4.689  66.204   8.974  1.00  0.00    -0.065 NA
ATOM     12  H4  UNL     1      -3.325  69.129   8.219  1.00  0.00     0.190 HD
ENDBRANCH   1   8
BRANCH   1  13
HETATM   13  C3  UNL     1      -3.468  68.689  11.127  1.00  0.00     0.191 C 
BRANCH  13  14
HETATM   14  O1  UNL     1      -4.651  68.196  11.424  1.00  0.00    -0.343 OA
ATOM     15  H1  UNL     1      -4.811  67.360  11.001  1.00  0.00     0.219 HD
ENDBRANCH  13  14
BRANCH  13  16
HETATM   16  C4  UNL     1      -3.016  69.754  11.988  1.00  0.00     0.106 A 
HETATM   17  C5  UNL     1      -3.115  69.687  13.390  1.00  0.00     0.111 A 
HETATM   18  C6  UNL     1      -2.603  70.846  13.910  1.00  0.00     0.262 A 
HETATM   19  O2  UNL     1      -2.536  71.121  15.158  1.00  0.00    -0.267 OA
HETATM   20  N7  UNL     1      -2.210  71.589  12.889  1.00  0.00    -0.266 N 
HETATM   21  N8  UNL     1      -2.455  70.939  11.737  1.00  0.00    -0.294 N 
ATOM     22  H7  UNL     1      -1.785  72.514  12.964  1.00  0.00     0.190 HD
ATOM     23  H8  UNL     1      -2.242  71.300  10.807  1.00  0.00     0.187 HD
ENDBRANCH  13  16
ENDBRANCH   1  13
TORSDOF 6
ENDMDL
