MODEL 1
REMARK VINA RESULT: -8.134278568      0.000      0.000
REMARK  12 active torsions:
REMARK  status: ('A' for Active; 'I' for Inactive)
REMARK    1  A    between atoms: N1_1  and  C1_5 
REMARK    2  A    between atoms: C1_5  and  C2_6 
REMARK    3  A    between atoms: C2_6  and  C3_7 
REMARK    4  A    between atoms: C3_7  and  C4_8 
REMARK    5  A    between atoms: C4_8  and  N2_9 
REMARK       I    between atoms: N2_9  and  C5_11 
REMARK    6  A    between atoms: C5_11  and  C6_13 
REMARK    7  A    between atoms: C6_13  and  C7_14 
REMARK    8  A    between atoms: C7_14  and  C8_15 
REMARK    9  A    between atoms: C9_16  and  C10_17 
REMARK   10  A    between atoms: C10_17  and  C11_18 
REMARK   11  A    between atoms: C15_22  and  O2_23 
REMARK   12  A    between atoms: N3_27  and  O3_28 
ROOT
HETATM    1  C8  UNL     1      25.643  58.742  49.199  1.00  0.00    -0.030 C 
HETATM    2  C9  UNL     1      26.820  59.023  49.746  1.00  0.00    -0.030 C 
ENDROOT
BRANCH   1   3
HETATM    3  C7  UNL     1      25.478  57.511  48.416  1.00  0.00     0.036 C 
BRANCH   3   4
HETATM    4  C6  UNL     1      26.555  56.511  48.771  1.00  0.00     0.106 C 
BRANCH   4   5
HETATM    5  C5  UNL     1      25.957  55.150  48.619  1.00  0.00     0.217 C 
HETATM    6  N2  UNL     1      24.946  54.997  47.635  1.00  0.00    -0.361 N 
ATOM      7  H2  UNL     1      24.647  55.786  47.061  1.00  0.00     0.162 HD
HETATM    8  O1  UNL     1      26.342  54.186  49.340  1.00  0.00    -0.274 OA
BRANCH   6   9
HETATM    9  C4  UNL     1      24.353  53.690  47.471  1.00  0.00     0.122 C 
BRANCH   9  10
HETATM   10  C3  UNL     1      25.117  52.809  46.525  1.00  0.00     0.021 C 
BRANCH  10  11
HETATM   11  C2  UNL     1      25.254  51.440  47.138  1.00  0.00     0.029 C 
BRANCH  11  12
HETATM   12  C1  UNL     1      26.659  51.143  47.587  1.00  0.00     0.229 C 
BRANCH  12  13
HETATM   13  N1  UNL     1      26.788  51.334  49.012  1.00  0.00    -0.079 N 
ATOM     14  H13 UNL     1      25.975  51.805  49.406  1.00  0.00     0.274 HD
ATOM     15  H12 UNL     1      26.715  50.452  49.520  1.00  0.00     0.274 HD
ATOM     16  H11 UNL     1      27.654  51.827  49.232  1.00  0.00     0.274 HD
ENDBRANCH  12  13
ENDBRANCH  11  12
ENDBRANCH  10  11
ENDBRANCH   9  10
ENDBRANCH   6   9
ENDBRANCH   4   5
ENDBRANCH   3   4
ENDBRANCH   1   3
BRANCH   2  17
HETATM   17  C10 UNL     1      27.072  60.266  50.563  1.00  0.00     0.032 C 
BRANCH  17  18
HETATM   18  C11 UNL     1      28.337  60.215  51.328  1.00  0.00    -0.000 A 
HETATM   19  C12 UNL     1      28.699  60.906  52.541  1.00  0.00    -0.002 A 
HETATM   20  C13 UNL     1      27.894  61.493  53.603  1.00  0.00     0.030 C 
HETATM   21  C17 UNL     1      28.536  59.402  52.568  1.00  0.00     0.017 A 
HETATM   22  C14 UNL     1      26.957  60.601  54.366  1.00  0.00     0.117 C 
HETATM   23  C15 UNL     1      27.761  59.394  54.868  1.00  0.00     0.158 C 
HETATM   24  N3  UNL     1      26.266  59.691  53.533  1.00  0.00    -0.185 NA
HETATM   25  C16 UNL     1      27.452  58.915  53.436  1.00  0.00     0.121 C 
BRANCH  23  26
HETATM   26  O2  UNL     1      29.091  59.650  55.091  1.00  0.00    -0.392 OA
ATOM     27  H2  UNL     1      29.510  60.168  54.413  1.00  0.00     0.210 HD
ENDBRANCH  23  26
BRANCH  24  28
HETATM   28  O3  UNL     1      25.177  59.092  53.974  1.00  0.00    -0.312 OA
ATOM     29  H3  UNL     1      24.327  59.493  53.836  1.00  0.00     0.237 HD
ENDBRANCH  24  28
ENDBRANCH  17  18
ENDBRANCH   2  17
TORSDOF 12
ENDMDL
MODEL 2
REMARK VINA RESULT: -7.756951621      1.569      2.188
REMARK  12 active torsions:
REMARK  status: ('A' for Active; 'I' for Inactive)
REMARK    1  A    between atoms: N1_1  and  C1_5 
REMARK    2  A    between atoms: C1_5  and  C2_6 
REMARK    3  A    between atoms: C2_6  and  C3_7 
REMARK    4  A    between atoms: C3_7  and  C4_8 
REMARK    5  A    between atoms: C4_8  and  N2_9 
REMARK       I    between atoms: N2_9  and  C5_11 
REMARK    6  A    between atoms: C5_11  and  C6_13 
REMARK    7  A    between atoms: C6_13  and  C7_14 
REMARK    8  A    between atoms: C7_14  and  C8_15 
REMARK    9  A    between atoms: C9_16  and  C10_17 
REMARK   10  A    between atoms: C10_17  and  C11_18 
REMARK   11  A    between atoms: C15_22  and  O2_23 
REMARK   12  A    between atoms: N3_27  and  O3_28 
ROOT
HETATM    1  C8  UNL     1      25.986  58.779  49.601  1.00  0.00    -0.030 C 
HETATM    2  C9  UNL     1      27.300  58.593  49.644  1.00  0.00    -0.030 C 
ENDROOT
BRANCH   1   3
HETATM    3  C7  UNL     1      25.106  57.668  49.221  1.00  0.00     0.036 C 
BRANCH   3   4
HETATM    4  C6  UNL     1      25.636  56.971  47.988  1.00  0.00     0.106 C 
BRANCH   4   5
HETATM    5  C5  UNL     1      25.376  55.510  48.164  1.00  0.00     0.217 C 
HETATM    6  N2  UNL     1      24.386  54.927  47.329  1.00  0.00    -0.361 N 
ATOM      7  H2  UNL     1      23.881  55.488  46.642  1.00  0.00     0.162 HD
HETATM    8  O1  UNL     1      26.013  54.832  49.020  1.00  0.00    -0.274 OA
BRANCH   6   9
HETATM    9  C4  UNL     1      24.117  53.516  47.481  1.00  0.00     0.122 C 
BRANCH   9  10
HETATM   10  C3  UNL     1      24.918  52.658  46.546  1.00  0.00     0.021 C 
BRANCH  10  11
HETATM   11  C2  UNL     1      25.245  51.359  47.235  1.00  0.00     0.029 C 
BRANCH  11  12
HETATM   12  C1  UNL     1      26.667  51.302  47.722  1.00  0.00     0.229 C 
BRANCH  12  13
HETATM   13  N1  UNL     1      26.757  51.775  49.084  1.00  0.00    -0.079 N 
ATOM     14  H13 UNL     1      27.434  52.532  49.178  1.00  0.00     0.274 HD
ATOM     15  H12 UNL     1      25.918  52.284  49.364  1.00  0.00     0.274 HD
ATOM     16  H11 UNL     1      26.963  51.004  49.719  1.00  0.00     0.274 HD
ENDBRANCH  12  13
ENDBRANCH  11  12
ENDBRANCH  10  11
ENDBRANCH   9  10
ENDBRANCH   6   9
ENDBRANCH   4   5
ENDBRANCH   3   4
ENDBRANCH   1   3
BRANCH   2  17
HETATM   17  C10 UNL     1      28.273  59.683  50.023  1.00  0.00     0.032 C 
BRANCH  17  18
HETATM   18  C11 UNL     1      27.854  60.450  51.217  1.00  0.00    -0.000 A 
HETATM   19  C12 UNL     1      27.606  59.987  52.559  1.00  0.00    -0.002 A 
HETATM   20  C13 UNL     1      28.062  58.806  53.281  1.00  0.00     0.030 C 
HETATM   21  C17 UNL     1      28.787  60.896  52.297  1.00  0.00     0.017 A 
HETATM   22  C14 UNL     1      29.539  58.607  53.462  1.00  0.00     0.117 C 
HETATM   23  C15 UNL     1      30.119  59.895  54.062  1.00  0.00     0.158 C 
HETATM   24  N3  UNL     1      30.281  58.913  52.298  1.00  0.00    -0.185 NA
HETATM   25  C16 UNL     1      30.101  60.294  52.574  1.00  0.00     0.121 C 
BRANCH  23  26
HETATM   26  O2  UNL     1      29.238  60.607  54.836  1.00  0.00    -0.392 OA
ATOM     27  H2  UNL     1      29.597  61.405  55.208  1.00  0.00     0.210 HD
ENDBRANCH  23  26
BRANCH  24  28
HETATM   28  O3  UNL     1      31.517  58.470  52.169  1.00  0.00    -0.312 OA
ATOM     29  H3  UNL     1      31.813  58.124  51.335  1.00  0.00     0.237 HD
ENDBRANCH  24  28
ENDBRANCH  17  18
ENDBRANCH   2  17
TORSDOF 12
ENDMDL
MODEL 3
REMARK VINA RESULT: -7.709599809      4.962      6.264
REMARK  12 active torsions:
REMARK  status: ('A' for Active; 'I' for Inactive)
REMARK    1  A    between atoms: N1_1  and  C1_5 
REMARK    2  A    between atoms: C1_5  and  C2_6 
REMARK    3  A    between atoms: C2_6  and  C3_7 
REMARK    4  A    between atoms: C3_7  and  C4_8 
REMARK    5  A    between atoms: C4_8  and  N2_9 
REMARK       I    between atoms: N2_9  and  C5_11 
REMARK    6  A    between atoms: C5_11  and  C6_13 
REMARK    7  A    between atoms: C6_13  and  C7_14 
REMARK    8  A    between atoms: C7_14  and  C8_15 
REMARK    9  A    between atoms: C9_16  and  C10_17 
REMARK   10  A    between atoms: C10_17  and  C11_18 
REMARK   11  A    between atoms: C15_22  and  O2_23 
REMARK   12  A    between atoms: N3_27  and  O3_28 
ROOT
HETATM    1  C8  UNL     1      28.064  58.246  49.510  1.00  0.00    -0.030 C 
HETATM    2  C9  UNL     1      29.002  57.838  48.663  1.00  0.00    -0.030 C 
ENDROOT
BRANCH   1   3
HETATM    3  C7  UNL     1      26.891  57.400  49.760  1.00  0.00     0.036 C 
BRANCH   3   4
HETATM    4  C6  UNL     1      26.202  57.053  48.460  1.00  0.00     0.106 C 
BRANCH   4   5
HETATM    5  C5  UNL     1      25.833  55.607  48.531  1.00  0.00     0.217 C 
HETATM    6  N2  UNL     1      24.805  55.161  47.660  1.00  0.00    -0.361 N 
ATOM      7  H2  UNL     1      24.345  55.806  47.017  1.00  0.00     0.162 HD
HETATM    8  O1  UNL     1      26.416  54.824  49.335  1.00  0.00    -0.274 OA
BRANCH   6   9
HETATM    9  C4  UNL     1      24.431  53.766  47.712  1.00  0.00     0.122 C 
BRANCH   9  10
HETATM   10  C3  UNL     1      25.196  52.914  46.742  1.00  0.00     0.021 C 
BRANCH  10  11
HETATM   11  C2  UNL     1      25.235  51.500  47.261  1.00  0.00     0.029 C 
BRANCH  11  12
HETATM   12  C1  UNL     1      26.591  51.110  47.784  1.00  0.00     0.229 C 
BRANCH  12  13
HETATM   13  N1  UNL     1      26.818  51.688  49.087  1.00  0.00    -0.079 N 
ATOM     14  H13 UNL     1      27.750  51.470  49.440  1.00  0.00     0.274 HD
ATOM     15  H12 UNL     1      26.906  52.704  49.041  1.00  0.00     0.274 HD
ATOM     16  H11 UNL     1      26.090  51.400  49.740  1.00  0.00     0.274 HD
ENDBRANCH  12  13
ENDBRANCH  11  12
ENDBRANCH  10  11
ENDBRANCH   9  10
ENDBRANCH   6   9
ENDBRANCH   4   5
ENDBRANCH   3   4
ENDBRANCH   1   3
BRANCH   2  17
HETATM   17  C10 UNL     1      30.236  58.648  48.350  1.00  0.00     0.032 C 
BRANCH  17  18
HETATM   18  C11 UNL     1      31.463  57.827  48.245  1.00  0.00    -0.000 A 
HETATM   19  C12 UNL     1      31.980  57.101  47.111  1.00  0.00    -0.002 A 
HETATM   20  C13 UNL     1      31.765  57.253  45.679  1.00  0.00     0.030 C 
HETATM   21  C17 UNL     1      32.740  58.303  47.629  1.00  0.00     0.017 A 
HETATM   22  C14 UNL     1      32.130  58.559  45.036  1.00  0.00     0.117 C 
HETATM   23  C15 UNL     1      33.577  58.889  45.427  1.00  0.00     0.158 C 
HETATM   24  N3  UNL     1      31.752  59.678  45.812  1.00  0.00    -0.185 NA
HETATM   25  C16 UNL     1      32.848  59.420  46.677  1.00  0.00     0.121 C 
BRANCH  23  26
HETATM   26  O2  UNL     1      34.364  57.791  45.671  1.00  0.00    -0.392 OA
ATOM     27  H2  UNL     1      34.132  57.307  46.455  1.00  0.00     0.210 HD
ENDBRANCH  23  26
BRANCH  24  28
HETATM   28  O3  UNL     1      31.678  60.872  45.256  1.00  0.00    -0.312 OA
ATOM     29  H3  UNL     1      30.860  61.167  44.873  1.00  0.00     0.237 HD
ENDBRANCH  24  28
ENDBRANCH  17  18
ENDBRANCH   2  17
TORSDOF 12
ENDMDL
MODEL 4
REMARK VINA RESULT: -7.630359681      1.517      2.028
REMARK  12 active torsions:
REMARK  status: ('A' for Active; 'I' for Inactive)
REMARK    1  A    between atoms: N1_1  and  C1_5 
REMARK    2  A    between atoms: C1_5  and  C2_6 
REMARK    3  A    between atoms: C2_6  and  C3_7 
REMARK    4  A    between atoms: C3_7  and  C4_8 
REMARK    5  A    between atoms: C4_8  and  N2_9 
REMARK       I    between atoms: N2_9  and  C5_11 
REMARK    6  A    between atoms: C5_11  and  C6_13 
REMARK    7  A    between atoms: C6_13  and  C7_14 
REMARK    8  A    between atoms: C7_14  and  C8_15 
REMARK    9  A    between atoms: C9_16  and  C10_17 
REMARK   10  A    between atoms: C10_17  and  C11_18 
REMARK   11  A    between atoms: C15_22  and  O2_23 
REMARK   12  A    between atoms: N3_27  and  O3_28 
ROOT
HETATM    1  C8  UNL     1      25.667  57.582  48.264  1.00  0.00    -0.030 C 
HETATM    2  C9  UNL     1      25.328  58.313  49.320  1.00  0.00    -0.030 C 
ENDROOT
BRANCH   1   3
HETATM    3  C7  UNL     1      24.965  56.321  47.996  1.00  0.00     0.036 C 
BRANCH   3   4
HETATM    4  C6  UNL     1      25.695  55.162  48.635  1.00  0.00     0.106 C 
BRANCH   4   5
HETATM    5  C5  UNL     1      25.308  53.931  47.883  1.00  0.00     0.217 C 
HETATM    6  N2  UNL     1      25.795  52.693  48.380  1.00  0.00    -0.361 N 
ATOM      7  H2  UNL     1      26.382  52.656  49.213  1.00  0.00     0.162 HD
HETATM    8  O1  UNL     1      24.580  53.998  46.852  1.00  0.00    -0.274 OA
BRANCH   6   9
HETATM    9  C4  UNL     1      25.434  51.489  47.668  1.00  0.00     0.122 C 
BRANCH   9  10
HETATM   10  C3  UNL     1      26.615  50.780  47.070  1.00  0.00     0.021 C 
BRANCH  10  11
HETATM   11  C2  UNL     1      27.572  50.413  48.173  1.00  0.00     0.029 C 
BRANCH  11  12
HETATM   12  C1  UNL     1      28.549  49.344  47.763  1.00  0.00     0.229 C 
BRANCH  12  13
HETATM   13  N1  UNL     1      29.868  49.903  47.583  1.00  0.00    -0.079 N 
ATOM     14  H13 UNL     1      30.539  49.199  47.276  1.00  0.00     0.274 HD
ATOM     15  H12 UNL     1      29.911  50.519  46.770  1.00  0.00     0.274 HD
ATOM     16  H11 UNL     1      30.178  50.375  48.433  1.00  0.00     0.274 HD
ENDBRANCH  12  13
ENDBRANCH  11  12
ENDBRANCH  10  11
ENDBRANCH   9  10
ENDBRANCH   6   9
ENDBRANCH   4   5
ENDBRANCH   3   4
ENDBRANCH   1   3
BRANCH   2  17
HETATM   17  C10 UNL     1      26.000  59.619  49.666  1.00  0.00     0.032 C 
BRANCH  17  18
HETATM   18  C11 UNL     1      27.451  59.480  49.918  1.00  0.00    -0.000 A 
HETATM   19  C12 UNL     1      28.284  60.181  50.863  1.00  0.00    -0.002 A 
HETATM   20  C13 UNL     1      27.973  60.880  52.103  1.00  0.00     0.030 C 
HETATM   21  C17 UNL     1      28.034  58.700  51.053  1.00  0.00     0.017 A 
HETATM   22  C14 UNL     1      27.323  60.109  53.214  1.00  0.00     0.117 C 
HETATM   23  C15 UNL     1      28.165  58.853  53.472  1.00  0.00     0.158 C 
HETATM   24  N3  UNL     1      26.309  59.236  52.757  1.00  0.00    -0.185 NA
HETATM   25  C16 UNL     1      27.315  58.350  52.289  1.00  0.00     0.121 C 
BRANCH  23  26
HETATM   26  O2  UNL     1      29.498  58.992  53.176  1.00  0.00    -0.392 OA
ATOM     27  H2  UNL     1      29.948  59.652  53.691  1.00  0.00     0.210 HD
ENDBRANCH  23  26
BRANCH  24  28
HETATM   28  O3  UNL     1      25.419  58.758  53.606  1.00  0.00    -0.312 OA
ATOM     29  H3  UNL     1      24.809  59.347  54.034  1.00  0.00     0.237 HD
ENDBRANCH  24  28
ENDBRANCH  17  18
ENDBRANCH   2  17
TORSDOF 12
ENDMDL
MODEL 5
REMARK VINA RESULT: -7.572686014      2.615      4.483
REMARK  12 active torsions:
REMARK  status: ('A' for Active; 'I' for Inactive)
REMARK    1  A    between atoms: N1_1  and  C1_5 
REMARK    2  A    between atoms: C1_5  and  C2_6 
REMARK    3  A    between atoms: C2_6  and  C3_7 
REMARK    4  A    between atoms: C3_7  and  C4_8 
REMARK    5  A    between atoms: C4_8  and  N2_9 
REMARK       I    between atoms: N2_9  and  C5_11 
REMARK    6  A    between atoms: C5_11  and  C6_13 
REMARK    7  A    between atoms: C6_13  and  C7_14 
REMARK    8  A    between atoms: C7_14  and  C8_15 
REMARK    9  A    between atoms: C9_16  and  C10_17 
REMARK   10  A    between atoms: C10_17  and  C11_18 
REMARK   11  A    between atoms: C15_22  and  O2_23 
REMARK   12  A    between atoms: N3_27  and  O3_28 
ROOT
HETATM    1  C8  UNL     1      25.175  54.362  47.860  1.00  0.00    -0.030 C 
HETATM    2  C9  UNL     1      24.855  55.617  47.566  1.00  0.00    -0.030 C 
ENDROOT
BRANCH   1   3
HETATM    3  C7  UNL     1      24.386  53.259  47.297  1.00  0.00     0.036 C 
BRANCH   3   4
HETATM    4  C6  UNL     1      25.236  52.422  46.369  1.00  0.00     0.106 C 
BRANCH   4   5
HETATM    5  C5  UNL     1      25.796  51.298  47.179  1.00  0.00     0.217 C 
HETATM    6  N2  UNL     1      27.210  51.207  47.262  1.00  0.00    -0.361 N 
ATOM      7  H2  UNL     1      27.809  51.883  46.787  1.00  0.00     0.162 HD
HETATM    8  O1  UNL     1      25.036  50.472  47.760  1.00  0.00    -0.274 OA
BRANCH   6   9
HETATM    9  C4  UNL     1      27.775  50.128  48.040  1.00  0.00     0.122 C 
BRANCH   9  10
HETATM   10  C3  UNL     1      28.755  49.294  47.268  1.00  0.00     0.021 C 
BRANCH  10  11
HETATM   11  C2  UNL     1      30.120  49.448  47.886  1.00  0.00     0.029 C 
BRANCH  11  12
HETATM   12  C1  UNL     1      31.190  49.735  46.868  1.00  0.00     0.229 C 
BRANCH  12  13
HETATM   13  N1  UNL     1      31.631  51.107  46.967  1.00  0.00    -0.079 N 
ATOM     14  H13 UNL     1      30.850  51.760  46.906  1.00  0.00     0.274 HD
ATOM     15  H12 UNL     1      31.949  51.335  47.909  1.00  0.00     0.274 HD
ATOM     16  H11 UNL     1      32.346  51.306  46.267  1.00  0.00     0.274 HD
ENDBRANCH  12  13
ENDBRANCH  11  12
ENDBRANCH  10  11
ENDBRANCH   9  10
ENDBRANCH   6   9
ENDBRANCH   4   5
ENDBRANCH   3   4
ENDBRANCH   1   3
BRANCH   2  17
HETATM   17  C10 UNL     1      25.614  56.806  48.102  1.00  0.00     0.032 C 
BRANCH  17  18
HETATM   18  C11 UNL     1      26.696  56.434  49.040  1.00  0.00    -0.000 A 
HETATM   19  C12 UNL     1      27.919  57.133  49.346  1.00  0.00    -0.002 A 
HETATM   20  C13 UNL     1      28.300  58.533  49.210  1.00  0.00     0.030 C 
HETATM   21  C17 UNL     1      26.851  57.011  50.412  1.00  0.00     0.017 A 
HETATM   22  C14 UNL     1      27.499  59.566  49.949  1.00  0.00     0.117 C 
HETATM   23  C15 UNL     1      27.427  59.141  51.422  1.00  0.00     0.158 C 
HETATM   24  N3  UNL     1      26.107  59.323  49.896  1.00  0.00    -0.185 NA
HETATM   25  C16 UNL     1      26.274  58.290  50.855  1.00  0.00     0.121 C 
BRANCH  23  26
HETATM   26  O2  UNL     1      28.500  58.402  51.853  1.00  0.00    -0.392 OA
ATOM     27  H2  UNL     1      28.670  58.464  52.786  1.00  0.00     0.210 HD
ENDBRANCH  23  26
BRANCH  24  28
HETATM   28  O3  UNL     1      25.259  60.293  50.180  1.00  0.00    -0.312 OA
ATOM     29  H3  UNL     1      24.815  60.755  49.479  1.00  0.00     0.237 HD
ENDBRANCH  24  28
ENDBRANCH  17  18
ENDBRANCH   2  17
TORSDOF 12
ENDMDL
