MODEL 1
REMARK VINA RESULT: -7.693990261      0.000      0.000
REMARK  10 active torsions:
REMARK  status: ('A' for Active; 'I' for Inactive)
REMARK    1  A    between atoms: C2_2  and  N1_3 
REMARK    2  A    between atoms: N1_3  and  C3_4 
REMARK    3  A    between atoms: N1_3  and  C5_6 
REMARK    4  A    between atoms: C5_6  and  C6_7 
REMARK    5  A    between atoms: C6_7  and  C7_8 
REMARK    6  A    between atoms: C7_8  and  N2_9 
REMARK    7  A    between atoms: N2_9  and  C8_11 
REMARK    8  A    between atoms: C11_16  and  N4_17 
REMARK    9  A    between atoms: N4_17  and  C12_19 
REMARK   10  A    between atoms: C12_19  and  C13_20 
ROOT
HETATM    1  C8  UNL     1      26.472  57.383  49.334  1.00  0.00     0.679 A 
HETATM    2  N3  UNL     1      27.714  57.185  48.830  1.00  0.00    -0.195 N 
ATOM      3  H3  UNL     1      27.866  56.374  48.231  1.00  0.00     0.184 HD
HETATM    4  C9  UNL     1      28.745  57.986  49.072  1.00  0.00     0.036 A 
HETATM    5  C10 UNL     1      28.567  59.083  49.877  1.00  0.00     0.009 A 
HETATM    6  C11 UNL     1      27.300  59.320  50.414  1.00  0.00     0.125 A 
HETATM    7  N5  UNL     1      26.309  58.454  50.115  1.00  0.00    -0.176 N 
ATOM      8  H5  UNL     1      25.384  58.628  50.507  1.00  0.00     0.186 HD
HETATM    9  C14 UNL     1      29.839  59.840  50.020  1.00  0.00     0.045 C 
HETATM   10  C15 UNL     1      30.592  59.409  48.801  1.00  0.00     0.011 C 
HETATM   11  C16 UNL     1      30.190  57.980  48.638  1.00  0.00     0.058 C 
ENDROOT
BRANCH   1  12
HETATM   12  N2  UNL     1      25.549  56.592  49.070  1.00  0.00    -0.226 N 
ATOM     13  H2  UNL     1      25.212  56.072  49.881  1.00  0.00     0.177 HD
BRANCH  12  14
HETATM   14  C7  UNL     1      24.865  56.266  47.853  1.00  0.00     0.140 C 
BRANCH  14  15
HETATM   15  C6  UNL     1      24.530  54.839  47.704  1.00  0.00     0.050 C 
BRANCH  15  16
HETATM   16  C5  UNL     1      25.542  53.833  48.100  1.00  0.00     0.274 C 
BRANCH  16  17
HETATM   17  N1  UNL     1      25.873  52.761  47.218  1.00  0.00     0.087 N 
BRANCH  17  18
HETATM   18  C2  UNL     1      24.970  52.924  46.034  1.00  0.00     0.268 C 
HETATM   19  C1  UNL     1      24.223  51.665  45.752  1.00  0.00     0.037 C 
ENDBRANCH  17  18
BRANCH  17  20
HETATM   20  C3  UNL     1      25.628  51.425  47.671  1.00  0.00     0.268 C 
HETATM   21  C4  UNL     1      26.766  50.785  48.431  1.00  0.00     0.037 C 
ENDBRANCH  17  20
ENDBRANCH  16  17
ENDBRANCH  15  16
ENDBRANCH  14  15
ENDBRANCH  12  14
ENDBRANCH   1  12
BRANCH   6  22
HETATM   22  N4  UNL     1      27.178  60.355  51.162  1.00  0.00    -0.365 N 
ATOM     23  H4  UNL     1      26.908  61.250  50.753  1.00  0.00     0.161 HD
BRANCH  22  24
HETATM   24  C12 UNL     1      27.420  60.254  52.578  1.00  0.00     0.234 C 
BRANCH  24  25
HETATM   25  C13 UNL     1      26.687  59.098  53.191  1.00  0.00     0.191 C 
HETATM   26  O1  UNL     1      25.727  59.355  53.932  1.00  0.00    -0.647 OA
HETATM   27  O2  UNL     1      27.043  57.793  52.956  1.00  0.00    -0.647 OA
ENDBRANCH  24  25
ENDBRANCH  22  24
ENDBRANCH   6  22
TORSDOF 10
ENDMDL
MODEL 2
REMARK VINA RESULT: -7.612861317      1.095      1.338
REMARK  10 active torsions:
REMARK  status: ('A' for Active; 'I' for Inactive)
REMARK    1  A    between atoms: C2_2  and  N1_3 
REMARK    2  A    between atoms: N1_3  and  C3_4 
REMARK    3  A    between atoms: N1_3  and  C5_6 
REMARK    4  A    between atoms: C5_6  and  C6_7 
REMARK    5  A    between atoms: C6_7  and  C7_8 
REMARK    6  A    between atoms: C7_8  and  N2_9 
REMARK    7  A    between atoms: N2_9  and  C8_11 
REMARK    8  A    between atoms: C11_16  and  N4_17 
REMARK    9  A    between atoms: N4_17  and  C12_19 
REMARK   10  A    between atoms: C12_19  and  C13_20 
ROOT
HETATM    1  C8  UNL     1      25.822  57.556  49.302  1.00  0.00     0.679 A 
HETATM    2  N3  UNL     1      27.085  57.562  48.812  1.00  0.00    -0.195 N 
ATOM      3  H3  UNL     1      27.282  56.998  47.985  1.00  0.00     0.184 HD
HETATM    4  C9  UNL     1      28.081  58.258  49.346  1.00  0.00     0.036 A 
HETATM    5  C10 UNL     1      27.842  59.023  50.460  1.00  0.00     0.009 A 
HETATM    6  C11 UNL     1      26.553  59.042  50.994  1.00  0.00     0.125 A 
HETATM    7  N5  UNL     1      25.600  58.305  50.386  1.00  0.00    -0.176 N 
ATOM      8  H5  UNL     1      24.658  58.320  50.776  1.00  0.00     0.186 HD
HETATM    9  C14 UNL     1      29.084  59.716  50.897  1.00  0.00     0.045 C 
HETATM   10  C15 UNL     1      29.889  59.728  49.634  1.00  0.00     0.011 C 
HETATM   11  C16 UNL     1      29.539  58.426  48.993  1.00  0.00     0.058 C 
ENDROOT
BRANCH   1  12
HETATM   12  N2  UNL     1      24.934  56.878  48.755  1.00  0.00    -0.226 N 
ATOM     13  H2  UNL     1      23.989  57.209  48.948  1.00  0.00     0.177 HD
BRANCH  12  14
HETATM   14  C7  UNL     1      24.977  55.723  47.907  1.00  0.00     0.140 C 
BRANCH  14  15
HETATM   15  C6  UNL     1      25.774  54.604  48.439  1.00  0.00     0.050 C 
BRANCH  15  16
HETATM   16  C5  UNL     1      25.260  53.226  48.264  1.00  0.00     0.274 C 
BRANCH  16  17
HETATM   17  N1  UNL     1      26.042  52.249  47.578  1.00  0.00     0.087 N 
BRANCH  17  18
HETATM   18  C2  UNL     1      25.101  51.584  46.621  1.00  0.00     0.268 C 
HETATM   19  C1  UNL     1      24.333  52.592  45.836  1.00  0.00     0.037 C 
ENDBRANCH  17  18
BRANCH  17  20
HETATM   20  C3  UNL     1      26.587  51.171  48.348  1.00  0.00     0.268 C 
HETATM   21  C4  UNL     1      27.588  50.305  47.621  1.00  0.00     0.037 C 
ENDBRANCH  17  20
ENDBRANCH  16  17
ENDBRANCH  15  16
ENDBRANCH  14  15
ENDBRANCH  12  14
ENDBRANCH   1  12
BRANCH   6  22
HETATM   22  N4  UNL     1      26.373  59.769  52.036  1.00  0.00    -0.365 N 
ATOM     23  H4  UNL     1      26.000  60.713  51.940  1.00  0.00     0.161 HD
BRANCH  22  24
HETATM   24  C12 UNL     1      26.697  59.251  53.340  1.00  0.00     0.234 C 
BRANCH  24  25
HETATM   25  C13 UNL     1      25.916  59.933  54.424  1.00  0.00     0.191 C 
HETATM   26  O1  UNL     1      24.863  59.396  54.796  1.00  0.00    -0.647 OA
HETATM   27  O2  UNL     1      26.329  61.108  55.000  1.00  0.00    -0.647 OA
ENDBRANCH  24  25
ENDBRANCH  22  24
ENDBRANCH   6  22
TORSDOF 10
ENDMDL
MODEL 3
REMARK VINA RESULT: -7.500754502      2.065      2.988
REMARK  10 active torsions:
REMARK  status: ('A' for Active; 'I' for Inactive)
REMARK    1  A    between atoms: C2_2  and  N1_3 
REMARK    2  A    between atoms: N1_3  and  C3_4 
REMARK    3  A    between atoms: N1_3  and  C5_6 
REMARK    4  A    between atoms: C5_6  and  C6_7 
REMARK    5  A    between atoms: C6_7  and  C7_8 
REMARK    6  A    between atoms: C7_8  and  N2_9 
REMARK    7  A    between atoms: N2_9  and  C8_11 
REMARK    8  A    between atoms: C11_16  and  N4_17 
REMARK    9  A    between atoms: N4_17  and  C12_19 
REMARK   10  A    between atoms: C12_19  and  C13_20 
ROOT
HETATM    1  C8  UNL     1      26.906  58.071  51.117  1.00  0.00     0.679 A 
HETATM    2  N3  UNL     1      28.245  58.273  51.176  1.00  0.00    -0.195 N 
ATOM      3  H3  UNL     1      28.839  57.737  50.544  1.00  0.00     0.184 HD
HETATM    4  C9  UNL     1      28.826  59.127  52.009  1.00  0.00     0.036 A 
HETATM    5  C10 UNL     1      28.048  59.858  52.870  1.00  0.00     0.009 A 
HETATM    6  C11 UNL     1      26.665  59.678  52.839  1.00  0.00     0.125 A 
HETATM    7  N5  UNL     1      26.158  58.789  51.959  1.00  0.00    -0.176 N 
ATOM      8  H5  UNL     1      25.146  58.658  51.935  1.00  0.00     0.186 HD
HETATM    9  C14 UNL     1      28.892  60.747  53.713  1.00  0.00     0.045 C 
HETATM   10  C15 UNL     1      30.132  60.871  52.884  1.00  0.00     0.011 C 
HETATM   11  C16 UNL     1      30.262  59.522  52.259  1.00  0.00     0.058 C 
ENDROOT
BRANCH   1  12
HETATM   12  N2  UNL     1      26.425  57.252  50.314  1.00  0.00    -0.226 N 
ATOM     13  H2  UNL     1      25.422  57.368  50.163  1.00  0.00     0.177 HD
BRANCH  12  14
HETATM   14  C7  UNL     1      26.999  56.178  49.558  1.00  0.00     0.140 C 
BRANCH  14  15
HETATM   15  C6  UNL     1      26.020  55.352  48.830  1.00  0.00     0.050 C 
BRANCH  15  16
HETATM   16  C5  UNL     1      26.223  53.886  48.794  1.00  0.00     0.274 C 
BRANCH  16  17
HETATM   17  N1  UNL     1      25.292  53.048  48.113  1.00  0.00     0.087 N 
BRANCH  17  18
HETATM   18  C2  UNL     1      26.119  52.002  47.431  1.00  0.00     0.268 C 
HETATM   19  C1  UNL     1      26.534  50.937  48.389  1.00  0.00     0.037 C 
ENDBRANCH  17  18
BRANCH  17  20
HETATM   20  C3  UNL     1      24.516  53.631  47.059  1.00  0.00     0.268 C 
HETATM   21  C4  UNL     1      24.403  52.795  45.806  1.00  0.00     0.037 C 
ENDBRANCH  17  20
ENDBRANCH  16  17
ENDBRANCH  15  16
ENDBRANCH  14  15
ENDBRANCH  12  14
ENDBRANCH   1  12
BRANCH   6  22
HETATM   22  N4  UNL     1      25.975  60.380  53.661  1.00  0.00    -0.365 N 
ATOM     23  H4  UNL     1      25.992  61.398  53.602  1.00  0.00     0.161 HD
BRANCH  22  24
HETATM   24  C12 UNL     1      25.175  59.731  54.668  1.00  0.00     0.234 C 
BRANCH  24  25
HETATM   25  C13 UNL     1      25.727  59.944  56.046  1.00  0.00     0.191 C 
HETATM   26  O1  UNL     1      25.508  59.066  56.894  1.00  0.00    -0.647 OA
HETATM   27  O2  UNL     1      26.454  61.059  56.383  1.00  0.00    -0.647 OA
ENDBRANCH  24  25
ENDBRANCH  22  24
ENDBRANCH   6  22
TORSDOF 10
ENDMDL
MODEL 4
REMARK VINA RESULT: -7.427213456      0.561      1.401
REMARK  10 active torsions:
REMARK  status: ('A' for Active; 'I' for Inactive)
REMARK    1  A    between atoms: C2_2  and  N1_3 
REMARK    2  A    between atoms: N1_3  and  C3_4 
REMARK    3  A    between atoms: N1_3  and  C5_6 
REMARK    4  A    between atoms: C5_6  and  C6_7 
REMARK    5  A    between atoms: C6_7  and  C7_8 
REMARK    6  A    between atoms: C7_8  and  N2_9 
REMARK    7  A    between atoms: N2_9  and  C8_11 
REMARK    8  A    between atoms: C11_16  and  N4_17 
REMARK    9  A    between atoms: N4_17  and  C12_19 
REMARK   10  A    between atoms: C12_19  and  C13_20 
ROOT
HETATM    1  C8  UNL     1      26.281  57.619  49.318  1.00  0.00     0.679 A 
HETATM    2  N3  UNL     1      27.501  57.349  48.794  1.00  0.00    -0.195 N 
ATOM      3  H3  UNL     1      27.587  56.553  48.162  1.00  0.00     0.184 HD
HETATM    4  C9  UNL     1      28.591  58.060  49.057  1.00  0.00     0.036 A 
HETATM    5  C10 UNL     1      28.501  59.134  49.906  1.00  0.00     0.009 A 
HETATM    6  C11 UNL     1      27.261  59.443  50.465  1.00  0.00     0.125 A 
HETATM    7  N5  UNL     1      26.205  58.667  50.142  1.00  0.00    -0.176 N 
ATOM      8  H5  UNL     1      25.298  58.894  50.550  1.00  0.00     0.186 HD
HETATM    9  C14 UNL     1      29.828  59.788  50.066  1.00  0.00     0.045 C 
HETATM   10  C15 UNL     1      30.538  59.350  48.823  1.00  0.00     0.011 C 
HETATM   11  C16 UNL     1      30.029  57.963  48.609  1.00  0.00     0.058 C 
ENDROOT
BRANCH   1  12
HETATM   12  N2  UNL     1      25.299  56.910  49.033  1.00  0.00    -0.226 N 
ATOM     13  H2  UNL     1      24.547  56.957  49.721  1.00  0.00     0.177 HD
BRANCH  12  14
HETATM   14  C7  UNL     1      25.015  56.041  47.929  1.00  0.00     0.140 C 
BRANCH  14  15
HETATM   15  C6  UNL     1      25.451  54.646  48.123  1.00  0.00     0.050 C 
BRANCH  15  16
HETATM   16  C5  UNL     1      24.446  53.568  47.983  1.00  0.00     0.274 C 
BRANCH  16  17
HETATM   17  N1  UNL     1      24.863  52.216  47.800  1.00  0.00     0.087 N 
BRANCH  17  18
HETATM   18  C2  UNL     1      26.281  52.166  48.279  1.00  0.00     0.268 C 
HETATM   19  C1  UNL     1      26.836  50.787  48.170  1.00  0.00     0.037 C 
ENDBRANCH  17  18
BRANCH  17  20
HETATM   20  C3  UNL     1      24.921  51.711  46.461  1.00  0.00     0.268 C 
HETATM   21  C4  UNL     1      24.591  52.713  45.381  1.00  0.00     0.037 C 
ENDBRANCH  17  20
ENDBRANCH  16  17
ENDBRANCH  15  16
ENDBRANCH  14  15
ENDBRANCH  12  14
ENDBRANCH   1  12
BRANCH   6  22
HETATM   22  N4  UNL     1      27.221  60.454  51.254  1.00  0.00    -0.365 N 
ATOM     23  H4  UNL     1      27.034  61.385  50.881  1.00  0.00     0.161 HD
BRANCH  22  24
HETATM   24  C12 UNL     1      27.442  60.275  52.666  1.00  0.00     0.234 C 
BRANCH  24  25
HETATM   25  C13 UNL     1      26.702  59.086  53.203  1.00  0.00     0.191 C 
HETATM   26  O1  UNL     1      25.710  59.301  53.914  1.00  0.00    -0.647 OA
HETATM   27  O2  UNL     1      27.087  57.796  52.932  1.00  0.00    -0.647 OA
ENDBRANCH  24  25
ENDBRANCH  22  24
ENDBRANCH   6  22
TORSDOF 10
ENDMDL
MODEL 5
REMARK VINA RESULT: -7.399308834      2.328      3.532
REMARK  10 active torsions:
REMARK  status: ('A' for Active; 'I' for Inactive)
REMARK    1  A    between atoms: C2_2  and  N1_3 
REMARK    2  A    between atoms: N1_3  and  C3_4 
REMARK    3  A    between atoms: N1_3  and  C5_6 
REMARK    4  A    between atoms: C5_6  and  C6_7 
REMARK    5  A    between atoms: C6_7  and  C7_8 
REMARK    6  A    between atoms: C7_8  and  N2_9 
REMARK    7  A    between atoms: N2_9  and  C8_11 
REMARK    8  A    between atoms: C11_16  and  N4_17 
REMARK    9  A    between atoms: N4_17  and  C12_19 
REMARK   10  A    between atoms: C12_19  and  C13_20 
ROOT
HETATM    1  C8  UNL     1      26.762  57.338  49.778  1.00  0.00     0.679 A 
HETATM    2  N3  UNL     1      26.348  57.808  50.979  1.00  0.00    -0.195 N 
ATOM      3  H3  UNL     1      25.534  57.370  51.411  1.00  0.00     0.184 HD
HETATM    4  C9  UNL     1      26.940  58.805  51.625  1.00  0.00     0.036 A 
HETATM    5  C10 UNL     1      28.034  59.411  51.063  1.00  0.00     0.009 A 
HETATM    6  C11 UNL     1      28.491  58.954  49.826  1.00  0.00     0.125 A 
HETATM    7  N5  UNL     1      27.829  57.934  49.240  1.00  0.00    -0.176 N 
ATOM      8  H5  UNL     1      28.164  57.599  48.336  1.00  0.00     0.186 HD
HETATM    9  C14 UNL     1      28.541  60.499  51.942  1.00  0.00     0.045 C 
HETATM   10  C15 UNL     1      28.001  60.091  53.278  1.00  0.00     0.011 C 
HETATM   11  C16 UNL     1      26.675  59.493  52.942  1.00  0.00     0.058 C 
ENDROOT
BRANCH   1  12
HETATM   12  N2  UNL     1      26.160  56.401  49.223  1.00  0.00    -0.226 N 
ATOM     13  H2  UNL     1      26.419  55.480  49.579  1.00  0.00     0.177 HD
BRANCH  12  14
HETATM   14  C7  UNL     1      25.174  56.358  48.184  1.00  0.00     0.140 C 
BRANCH  14  15
HETATM   15  C6  UNL     1      24.753  55.000  47.796  1.00  0.00     0.050 C 
BRANCH  15  16
HETATM   16  C5  UNL     1      25.576  53.853  48.245  1.00  0.00     0.274 C 
BRANCH  16  17
HETATM   17  N1  UNL     1      25.924  52.816  47.329  1.00  0.00     0.087 N 
BRANCH  17  18
HETATM   18  C2  UNL     1      25.056  53.034  46.129  1.00  0.00     0.268 C 
HETATM   19  C1  UNL     1      24.254  51.816  45.819  1.00  0.00     0.037 C 
ENDBRANCH  17  18
BRANCH  17  20
HETATM   20  C3  UNL     1      25.658  51.464  47.720  1.00  0.00     0.268 C 
HETATM   21  C4  UNL     1      26.803  50.756  48.404  1.00  0.00     0.037 C 
ENDBRANCH  17  20
ENDBRANCH  16  17
ENDBRANCH  15  16
ENDBRANCH  14  15
ENDBRANCH  12  14
ENDBRANCH   1  12
BRANCH   6  22
HETATM   22  N4  UNL     1      29.516  59.549  49.336  1.00  0.00    -0.365 N 
ATOM     23  H4  UNL     1      29.394  60.381  48.758  1.00  0.00     0.161 HD
BRANCH  22  24
HETATM   24  C12 UNL     1      30.838  59.043  49.600  1.00  0.00     0.234 C 
BRANCH  24  25
HETATM   25  C13 UNL     1      31.325  58.145  48.501  1.00  0.00     0.191 C 
HETATM   26  O1  UNL     1      32.541  57.913  48.448  1.00  0.00    -0.647 OA
HETATM   27  O2  UNL     1      30.477  57.588  47.577  1.00  0.00    -0.647 OA
ENDBRANCH  24  25
ENDBRANCH  22  24
ENDBRANCH   6  22
TORSDOF 10
ENDMDL
