MODEL 1
REMARK VINA RESULT: -7.907005141      0.000      0.000
REMARK  8 active torsions:
REMARK  status: ('A' for Active; 'I' for Inactive)
REMARK    1  A    between atoms: S1_2  and  N1_5 
REMARK    2  A    between atoms: N1_5  and  S2_7 
REMARK    3  A    between atoms: S2_7  and  N2_10 
REMARK    4  A    between atoms: N2_10  and  C1_12 
REMARK    5  A    between atoms: C1_12  and  C2_13 
REMARK    6  A    between atoms: C2_13  and  C3_14 
REMARK    7  A    between atoms: C3_14  and  C4_15 
REMARK    8  A    between atoms: C4_15  and  C5_16 
ROOT
HETATM    1  C1  UNL     1      28.067  57.590  49.224  1.00  0.00     0.133 C 
ENDROOT
BRANCH   1   2
HETATM    2  N2  UNL     1      27.756  58.006  50.557  1.00  0.00    -0.302 N 
ATOM      3  H2  UNL     1      27.643  57.404  51.373  1.00  0.00     0.173 HD
BRANCH   2   4
HETATM    4  S2  UNL     1      27.610  59.760  50.515  1.00  0.00     0.329 S 
HETATM    5  O4  UNL     1      26.353  60.262  49.985  1.00  0.00    -0.182 OA
HETATM    6  O5  UNL     1      28.711  60.217  49.492  1.00  0.00    -0.182 OA
BRANCH   4   7
HETATM    7  N1  UNL     1      28.097  60.412  52.016  1.00  0.00    -0.175 N 
ATOM      8  H1  UNL     1      28.482  61.344  52.165  1.00  0.00     0.196 HD
BRANCH   7   9
HETATM    9  S1  UNL     1      27.826  59.223  53.243  1.00  0.00     0.219 S 
HETATM   10  O1  UNL     1      29.025  58.345  53.340  1.00  0.00    -0.577 OA
HETATM   11  O2  UNL     1      27.720  59.977  54.549  1.00  0.00    -0.577 OA
HETATM   12  O3  UNL     1      26.413  58.370  52.981  1.00  0.00    -0.577 OA
ENDBRANCH   7   9
ENDBRANCH   4   7
ENDBRANCH   2   4
ENDBRANCH   1   2
BRANCH   1  13
HETATM   13  C2  UNL     1      26.736  57.312  48.557  1.00  0.00     0.020 C 
BRANCH  13  14
HETATM   14  C3  UNL     1      25.811  56.327  49.019  1.00  0.00     0.004 C 
BRANCH  14  15
HETATM   15  C4  UNL     1      26.459  54.995  49.249  1.00  0.00     0.024 C 
BRANCH  15  16
HETATM   16  C5  UNL     1      26.142  53.929  48.221  1.00  0.00     0.076 C 
HETATM   17  C6  UNL     1      24.721  54.126  47.819  1.00  0.00     0.024 C 
HETATM   18  C7  UNL     1      24.132  53.170  46.872  1.00  0.00     0.002 C 
HETATM   19  C8  UNL     1      25.074  52.392  46.015  1.00  0.00     0.002 C 
HETATM   20  C9  UNL     1      26.105  51.618  46.779  1.00  0.00     0.019 C 
HETATM   21  C10 UNL     1      25.808  51.519  48.247  1.00  0.00     0.114 C 
HETATM   22  N3  UNL     1      26.389  52.667  48.890  1.00  0.00    -0.417 N 
ATOM     23  H3  UNL     1      26.933  52.599  49.750  1.00  0.00     0.153 HD
ENDBRANCH  15  16
ENDBRANCH  14  15
ENDBRANCH  13  14
ENDBRANCH   1  13
TORSDOF 8
ENDMDL
MODEL 2
REMARK VINA RESULT: -7.901818234      1.456      2.675
REMARK  8 active torsions:
REMARK  status: ('A' for Active; 'I' for Inactive)
REMARK    1  A    between atoms: S1_2  and  N1_5 
REMARK    2  A    between atoms: N1_5  and  S2_7 
REMARK    3  A    between atoms: S2_7  and  N2_10 
REMARK    4  A    between atoms: N2_10  and  C1_12 
REMARK    5  A    between atoms: C1_12  and  C2_13 
REMARK    6  A    between atoms: C2_13  and  C3_14 
REMARK    7  A    between atoms: C3_14  and  C4_15 
REMARK    8  A    between atoms: C4_15  and  C5_16 
ROOT
HETATM    1  C1  UNL     1      25.647  57.948  50.128  1.00  0.00     0.133 C 
ENDROOT
BRANCH   1   2
HETATM    2  N2  UNL     1      26.698  58.917  50.165  1.00  0.00    -0.302 N 
ATOM      3  H2  UNL     1      26.914  59.610  49.448  1.00  0.00     0.173 HD
BRANCH   2   4
HETATM    4  S2  UNL     1      27.547  58.681  51.689  1.00  0.00     0.329 S 
HETATM    5  O4  UNL     1      27.065  57.574  52.499  1.00  0.00    -0.182 OA
HETATM    6  O5  UNL     1      27.228  59.979  52.516  1.00  0.00    -0.182 OA
BRANCH   4   7
HETATM    7  N1  UNL     1      29.233  58.726  51.420  1.00  0.00    -0.175 N 
ATOM      8  H1  UNL     1      29.953  58.678  52.140  1.00  0.00     0.196 HD
BRANCH   7   9
HETATM    9  S1  UNL     1      29.511  58.868  49.719  1.00  0.00     0.219 S 
HETATM   10  O1  UNL     1      29.001  60.188  49.253  1.00  0.00    -0.577 OA
HETATM   11  O2  UNL     1      31.011  58.881  49.534  1.00  0.00    -0.577 OA
HETATM   12  O3  UNL     1      28.860  57.583  48.873  1.00  0.00    -0.577 OA
ENDBRANCH   7   9
ENDBRANCH   4   7
ENDBRANCH   2   4
ENDBRANCH   1   2
BRANCH   1  13
HETATM   13  C2  UNL     1      25.387  57.675  48.662  1.00  0.00     0.020 C 
BRANCH  13  14
HETATM   14  C3  UNL     1      25.059  56.384  48.144  1.00  0.00     0.004 C 
BRANCH  14  15
HETATM   15  C4  UNL     1      25.968  55.311  48.660  1.00  0.00     0.024 C 
BRANCH  15  16
HETATM   16  C5  UNL     1      25.904  53.991  47.922  1.00  0.00     0.076 C 
HETATM   17  C6  UNL     1      24.492  53.809  47.484  1.00  0.00     0.024 C 
HETATM   18  C7  UNL     1      24.135  52.560  46.797  1.00  0.00     0.002 C 
HETATM   19  C8  UNL     1      25.244  51.798  46.154  1.00  0.00     0.002 C 
HETATM   20  C9  UNL     1      26.366  51.441  47.081  1.00  0.00     0.019 C 
HETATM   21  C10 UNL     1      26.026  51.639  48.530  1.00  0.00     0.114 C 
HETATM   22  N3  UNL     1      26.351  52.996  48.875  1.00  0.00    -0.417 N 
ATOM     23  H3  UNL     1      26.858  53.240  49.726  1.00  0.00     0.153 HD
ENDBRANCH  15  16
ENDBRANCH  14  15
ENDBRANCH  13  14
ENDBRANCH   1  13
TORSDOF 8
ENDMDL
MODEL 3
REMARK VINA RESULT: -7.858482767      1.232      1.361
REMARK  8 active torsions:
REMARK  status: ('A' for Active; 'I' for Inactive)
REMARK    1  A    between atoms: S1_2  and  N1_5 
REMARK    2  A    between atoms: N1_5  and  S2_7 
REMARK    3  A    between atoms: S2_7  and  N2_10 
REMARK    4  A    between atoms: N2_10  and  C1_12 
REMARK    5  A    between atoms: C1_12  and  C2_13 
REMARK    6  A    between atoms: C2_13  and  C3_14 
REMARK    7  A    between atoms: C3_14  and  C4_15 
REMARK    8  A    between atoms: C4_15  and  C5_16 
ROOT
HETATM    1  C1  UNL     1      25.912  58.867  49.139  1.00  0.00     0.133 C 
ENDROOT
BRANCH   1   2
HETATM    2  N2  UNL     1      26.580  59.009  50.396  1.00  0.00    -0.302 N 
ATOM      3  H2  UNL     1      26.143  59.057  51.316  1.00  0.00     0.173 HD
BRANCH   2   4
HETATM    4  S2  UNL     1      28.303  59.084  50.044  1.00  0.00     0.329 S 
HETATM    5  O4  UNL     1      28.735  60.269  49.322  1.00  0.00    -0.182 OA
HETATM    6  O5  UNL     1      28.552  57.880  49.065  1.00  0.00    -0.182 OA
BRANCH   4   7
HETATM    7  N1  UNL     1      29.192  58.705  51.452  1.00  0.00    -0.175 N 
ATOM      8  H1  UNL     1      30.157  58.376  51.477  1.00  0.00     0.196 HD
BRANCH   7   9
HETATM    9  S1  UNL     1      28.179  58.974  52.828  1.00  0.00     0.219 S 
HETATM   10  O1  UNL     1      29.026  59.007  54.053  1.00  0.00    -0.577 OA
HETATM   11  O2  UNL     1      27.590  60.355  52.658  1.00  0.00    -0.577 OA
HETATM   12  O3  UNL     1      26.945  57.852  52.919  1.00  0.00    -0.577 OA
ENDBRANCH   7   9
ENDBRANCH   4   7
ENDBRANCH   2   4
ENDBRANCH   1   2
BRANCH   1  13
HETATM   13  C2  UNL     1      25.155  57.558  49.218  1.00  0.00     0.020 C 
BRANCH  13  14
HETATM   14  C3  UNL     1      25.303  56.500  48.270  1.00  0.00     0.004 C 
BRANCH  14  15
HETATM   15  C4  UNL     1      26.058  55.331  48.826  1.00  0.00     0.024 C 
BRANCH  15  16
HETATM   16  C5  UNL     1      25.951  54.047  48.032  1.00  0.00     0.076 C 
HETATM   17  C6  UNL     1      24.528  53.918  47.611  1.00  0.00     0.024 C 
HETATM   18  C7  UNL     1      24.131  52.709  46.876  1.00  0.00     0.002 C 
HETATM   19  C8  UNL     1      25.211  51.950  46.181  1.00  0.00     0.002 C 
HETATM   20  C9  UNL     1      26.338  51.527  47.073  1.00  0.00     0.019 C 
HETATM   21  C10 UNL     1      26.026  51.668  48.534  1.00  0.00     0.114 C 
HETATM   22  N3  UNL     1      26.390  53.001  48.933  1.00  0.00    -0.417 N 
ATOM     23  H3  UNL     1      26.916  53.195  49.785  1.00  0.00     0.153 HD
ENDBRANCH  15  16
ENDBRANCH  14  15
ENDBRANCH  13  14
ENDBRANCH   1  13
TORSDOF 8
ENDMDL
MODEL 4
REMARK VINA RESULT: -7.836918419      1.809      2.960
REMARK  8 active torsions:
REMARK  status: ('A' for Active; 'I' for Inactive)
REMARK    1  A    between atoms: S1_2  and  N1_5 
REMARK    2  A    between atoms: N1_5  and  S2_7 
REMARK    3  A    between atoms: S2_7  and  N2_10 
REMARK    4  A    between atoms: N2_10  and  C1_12 
REMARK    5  A    between atoms: C1_12  and  C2_13 
REMARK    6  A    between atoms: C2_13  and  C3_14 
REMARK    7  A    between atoms: C3_14  and  C4_15 
REMARK    8  A    between atoms: C4_15  and  C5_16 
ROOT
HETATM    1  C1  UNL     1      26.534  58.170  50.535  1.00  0.00     0.133 C 
ENDROOT
BRANCH   1   2
HETATM    2  N2  UNL     1      27.962  58.153  50.615  1.00  0.00    -0.302 N 
ATOM      3  H2  UNL     1      28.558  57.331  50.717  1.00  0.00     0.173 HD
BRANCH   2   4
HETATM    4  S2  UNL     1      28.492  59.828  50.502  1.00  0.00     0.329 S 
HETATM    5  O4  UNL     1      29.087  60.370  51.712  1.00  0.00    -0.182 OA
HETATM    6  O5  UNL     1      27.164  60.640  50.285  1.00  0.00    -0.182 OA
BRANCH   4   7
HETATM    7  N1  UNL     1      29.390  60.049  49.067  1.00  0.00    -0.175 N 
ATOM      8  H1  UNL     1      29.329  60.854  48.443  1.00  0.00     0.196 HD
BRANCH   7   9
HETATM    9  S1  UNL     1      30.422  58.679  48.851  1.00  0.00     0.219 S 
HETATM   10  O1  UNL     1      29.603  57.524  48.388  1.00  0.00    -0.577 OA
HETATM   11  O2  UNL     1      31.367  59.032  47.725  1.00  0.00    -0.577 OA
HETATM   12  O3  UNL     1      31.305  58.342  50.228  1.00  0.00    -0.577 OA
ENDBRANCH   7   9
ENDBRANCH   4   7
ENDBRANCH   2   4
ENDBRANCH   1   2
BRANCH   1  13
HETATM   13  C2  UNL     1      26.195  57.775  49.113  1.00  0.00     0.020 C 
BRANCH  13  14
HETATM   14  C3  UNL     1      25.490  56.581  48.771  1.00  0.00     0.004 C 
BRANCH  14  15
HETATM   15  C4  UNL     1      26.288  55.343  49.049  1.00  0.00     0.024 C 
BRANCH  15  16
HETATM   16  C5  UNL     1      26.036  54.180  48.113  1.00  0.00     0.076 C 
HETATM   17  C6  UNL     1      24.634  54.315  47.627  1.00  0.00     0.024 C 
HETATM   18  C7  UNL     1      24.103  53.263  46.747  1.00  0.00     0.002 C 
HETATM   19  C8  UNL     1      25.095  52.425  46.014  1.00  0.00     0.002 C 
HETATM   20  C9  UNL     1      26.097  51.744  46.895  1.00  0.00     0.019 C 
HETATM   21  C10 UNL     1      25.731  51.778  48.350  1.00  0.00     0.114 C 
HETATM   22  N3  UNL     1      26.265  52.991  48.909  1.00  0.00    -0.417 N 
ATOM     23  H3  UNL     1      26.767  53.013  49.796  1.00  0.00     0.153 HD
ENDBRANCH  15  16
ENDBRANCH  14  15
ENDBRANCH  13  14
ENDBRANCH   1  13
TORSDOF 8
ENDMDL
MODEL 5
REMARK VINA RESULT: -7.783004523      1.235      1.505
REMARK  8 active torsions:
REMARK  status: ('A' for Active; 'I' for Inactive)
REMARK    1  A    between atoms: S1_2  and  N1_5 
REMARK    2  A    between atoms: N1_5  and  S2_7 
REMARK    3  A    between atoms: S2_7  and  N2_10 
REMARK    4  A    between atoms: N2_10  and  C1_12 
REMARK    5  A    between atoms: C1_12  and  C2_13 
REMARK    6  A    between atoms: C2_13  and  C3_14 
REMARK    7  A    between atoms: C3_14  and  C4_15 
REMARK    8  A    between atoms: C4_15  and  C5_16 
ROOT
HETATM    1  C1  UNL     1      25.765  58.906  49.233  1.00  0.00     0.133 C 
ENDROOT
BRANCH   1   2
HETATM    2  N2  UNL     1      26.465  58.920  50.480  1.00  0.00    -0.302 N 
ATOM      3  H2  UNL     1      26.054  58.849  51.411  1.00  0.00     0.173 HD
BRANCH   2   4
HETATM    4  S2  UNL     1      28.175  59.084  50.094  1.00  0.00     0.329 S 
HETATM    5  O4  UNL     1      28.546  60.333  49.449  1.00  0.00    -0.182 OA
HETATM    6  O5  UNL     1      28.440  57.963  49.024  1.00  0.00    -0.182 OA
BRANCH   4   7
HETATM    7  N1  UNL     1      29.114  58.639  51.449  1.00  0.00    -0.175 N 
ATOM      8  H1  UNL     1      30.054  58.244  51.419  1.00  0.00     0.196 HD
BRANCH   7   9
HETATM    9  S1  UNL     1      28.201  58.971  52.880  1.00  0.00     0.219 S 
HETATM   10  O1  UNL     1      27.153  57.925  53.040  1.00  0.00    -0.577 OA
HETATM   11  O2  UNL     1      29.160  58.821  54.039  1.00  0.00    -0.577 OA
HETATM   12  O3  UNL     1      27.578  60.521  52.874  1.00  0.00    -0.577 OA
ENDBRANCH   7   9
ENDBRANCH   4   7
ENDBRANCH   2   4
ENDBRANCH   1   2
BRANCH   1  13
HETATM   13  C2  UNL     1      25.016  57.590  49.194  1.00  0.00     0.020 C 
BRANCH  13  14
HETATM   14  C3  UNL     1      25.250  56.576  48.216  1.00  0.00     0.004 C 
BRANCH  14  15
HETATM   15  C4  UNL     1      26.025  55.417  48.764  1.00  0.00     0.024 C 
BRANCH  15  16
HETATM   16  C5  UNL     1      25.921  54.130  47.973  1.00  0.00     0.076 C 
HETATM   17  C6  UNL     1      24.506  54.017  47.519  1.00  0.00     0.024 C 
HETATM   18  C7  UNL     1      24.112  52.809  46.781  1.00  0.00     0.002 C 
HETATM   19  C8  UNL     1      25.199  52.033  46.116  1.00  0.00     0.002 C 
HETATM   20  C9  UNL     1      26.299  51.600  47.037  1.00  0.00     0.019 C 
HETATM   21  C10 UNL     1      25.954  51.753  48.490  1.00  0.00     0.114 C 
HETATM   22  N3  UNL     1      26.324  53.084  48.891  1.00  0.00    -0.417 N 
ATOM     23  H3  UNL     1      26.832  53.276  49.754  1.00  0.00     0.153 HD
ENDBRANCH  15  16
ENDBRANCH  14  15
ENDBRANCH  13  14
ENDBRANCH   1  13
TORSDOF 8
ENDMDL
