MODEL 1
REMARK VINA RESULT: -7.638352286      0.000      0.000
REMARK  11 active torsions:
REMARK  status: ('A' for Active; 'I' for Inactive)
REMARK    1  A    between atoms: C3_3  and  C4_4 
REMARK    2  A    between atoms: C4_4  and  N1_5 
REMARK    3  A    between atoms: N1_5  and  C6_7 
REMARK    4  A    between atoms: C6_7  and  C7_8 
REMARK    5  A    between atoms: C7_8  and  C8_9 
REMARK    6  A    between atoms: C8_9  and  N2_10 
REMARK    7  A    between atoms: N2_10  and  C9_12 
REMARK    8  A    between atoms: C10_15  and  N4_16 
REMARK    9  A    between atoms: C11_21  and  N6_22 
REMARK       I    between atoms: N6_22  and  C12_24 
REMARK   10  A    between atoms: C12_24  and  C13_26 
REMARK   11  A    between atoms: C13_26  and  C14_27 
ROOT
HETATM    1  C1  UNL     1      24.447  52.282  45.940  1.00  0.00     0.012 C 
HETATM    2  C2  UNL     1      24.508  53.280  46.612  1.00  0.00    -0.116 C 
HETATM    3  C3  UNL     1      24.593  54.488  47.458  1.00  0.00     0.112 C 
ENDROOT
BRANCH   3   4
HETATM    4  C4  UNL     1      25.807  54.454  48.340  1.00  0.00     0.128 C 
BRANCH   4   5
HETATM    5  N1  UNL     1      25.928  55.717  49.010  1.00  0.00    -0.416 N 
HETATM    6  C5  UNL     1      27.166  55.945  49.660  1.00  0.00     0.143 C 
BRANCH   5   7
HETATM    7  C6  UNL     1      25.322  56.810  48.340  1.00  0.00     0.118 C 
BRANCH   7   8
HETATM    8  C7  UNL     1      24.621  57.782  49.229  1.00  0.00     0.039 C 
BRANCH   8   9
HETATM    9  C8  UNL     1      25.259  59.169  49.158  1.00  0.00     0.139 C 
BRANCH   9  10
HETATM   10  N2  UNL     1      25.723  59.663  50.398  1.00  0.00    -0.225 N 
ATOM     11  H2  UNL     1      25.020  59.893  51.100  1.00  0.00     0.177 HD
BRANCH  10  12
HETATM   12  C9  UNL     1      26.950  59.847  50.717  1.00  0.00     0.707 A 
HETATM   13  N3  UNL     1      27.375  60.136  51.965  1.00  0.00    -0.022 N 
HETATM   14  C10 UNL     1      28.670  60.331  52.285  1.00  0.00     0.705 A 
ATOM     15  H3  UNL     1      26.679  60.211  52.707  1.00  0.00     0.203 HD
HETATM   16  N5  UNL     1      29.571  60.231  51.312  1.00  0.00    -0.021 N 
HETATM   17  C11 UNL     1      29.218  59.941  50.020  1.00  0.00     0.714 A 
ATOM     18  H5  UNL     1      30.555  60.376  51.534  1.00  0.00     0.203 HD
HETATM   19  N7  UNL     1      27.928  59.759  49.761  1.00  0.00    -0.021 N 
ATOM     20  H7  UNL     1      27.651  59.542  48.804  1.00  0.00     0.203 HD
BRANCH  14  21
HETATM   21  N4  UNL     1      29.077  60.608  53.483  1.00  0.00    -0.234 N 
ATOM     22  H42 UNL     1      28.953  59.911  54.217  1.00  0.00     0.174 HD
ATOM     23  H41 UNL     1      29.518  61.492  53.738  1.00  0.00     0.174 HD
ENDBRANCH  14  21
BRANCH  17  24
HETATM   24  N6  UNL     1      30.174  59.874  49.161  1.00  0.00    -0.159 N 
HETATM   25  C12 UNL     1      30.935  58.684  49.059  1.00  0.00     0.235 C 
HETATM   26  O1  UNL     1      31.610  58.248  50.019  1.00  0.00    -0.273 OA
ATOM     27  H6  UNL     1      30.382  60.672  48.559  1.00  0.00     0.187 HD
BRANCH  25  28
HETATM   28  C13 UNL     1      30.976  57.886  47.801  1.00  0.00     0.103 C 
BRANCH  28  29
HETATM   29  C14 UNL     1      31.176  58.705  46.570  1.00  0.00     0.005 C 
HETATM   30  C15 UNL     1      31.182  57.775  45.375  1.00  0.00     0.005 C 
ENDBRANCH  28  29
ENDBRANCH  25  28
ENDBRANCH  17  24
ENDBRANCH  10  12
ENDBRANCH   9  10
ENDBRANCH   8   9
ENDBRANCH   7   8
ENDBRANCH   5   7
ENDBRANCH   4   5
ENDBRANCH   3   4
TORSDOF 11
ENDMDL
MODEL 2
REMARK VINA RESULT: -7.480303981      3.101      5.369
REMARK  11 active torsions:
REMARK  status: ('A' for Active; 'I' for Inactive)
REMARK    1  A    between atoms: C3_3  and  C4_4 
REMARK    2  A    between atoms: C4_4  and  N1_5 
REMARK    3  A    between atoms: N1_5  and  C6_7 
REMARK    4  A    between atoms: C6_7  and  C7_8 
REMARK    5  A    between atoms: C7_8  and  C8_9 
REMARK    6  A    between atoms: C8_9  and  N2_10 
REMARK    7  A    between atoms: N2_10  and  C9_12 
REMARK    8  A    between atoms: C10_15  and  N4_16 
REMARK    9  A    between atoms: C11_21  and  N6_22 
REMARK       I    between atoms: N6_22  and  C12_24 
REMARK   10  A    between atoms: C12_24  and  C13_26 
REMARK   11  A    between atoms: C13_26  and  C14_27 
ROOT
HETATM    1  C1  UNL     1      24.453  51.922  45.821  1.00  0.00     0.012 C 
HETATM    2  C2  UNL     1      24.497  52.924  46.489  1.00  0.00    -0.116 C 
HETATM    3  C3  UNL     1      24.558  54.137  47.330  1.00  0.00     0.112 C 
ENDROOT
BRANCH   3   4
HETATM    4  C4  UNL     1      25.711  54.079  48.290  1.00  0.00     0.128 C 
BRANCH   4   5
HETATM    5  N1  UNL     1      25.773  55.316  49.014  1.00  0.00    -0.416 N 
HETATM    6  C5  UNL     1      27.024  55.612  49.607  1.00  0.00     0.143 C 
BRANCH   5   7
HETATM    7  C6  UNL     1      25.048  56.386  48.433  1.00  0.00     0.118 C 
BRANCH   7   8
HETATM    8  C7  UNL     1      25.861  57.594  48.106  1.00  0.00     0.039 C 
BRANCH   8   9
HETATM    9  C8  UNL     1      25.593  58.734  49.087  1.00  0.00     0.139 C 
BRANCH   9  10
HETATM   10  N2  UNL     1      26.745  59.224  49.743  1.00  0.00    -0.225 N 
ATOM     11  H2  UNL     1      27.465  59.652  49.161  1.00  0.00     0.177 HD
BRANCH  10  12
HETATM   12  C9  UNL     1      26.964  59.177  51.003  1.00  0.00     0.707 A 
HETATM   13  N3  UNL     1      28.109  58.727  51.560  1.00  0.00    -0.022 N 
HETATM   14  C10 UNL     1      28.323  58.680  52.890  1.00  0.00     0.705 A 
ATOM     15  H3  UNL     1      28.853  58.406  50.940  1.00  0.00     0.203 HD
HETATM   16  N5  UNL     1      27.347  59.100  53.690  1.00  0.00    -0.021 N 
HETATM   17  C11 UNL     1      26.157  59.570  53.202  1.00  0.00     0.714 A 
ATOM     18  H5  UNL     1      27.490  59.071  54.699  1.00  0.00     0.203 HD
HETATM   19  N7  UNL     1      26.000  59.594  51.883  1.00  0.00    -0.021 N 
ATOM     20  H7  UNL     1      25.118  59.941  51.506  1.00  0.00     0.203 HD
BRANCH  14  21
HETATM   21  N4  UNL     1      29.422  58.249  53.422  1.00  0.00    -0.234 N 
ATOM     22  H42 UNL     1      30.156  58.920  53.645  1.00  0.00     0.174 HD
ATOM     23  H41 UNL     1      29.598  57.266  53.635  1.00  0.00     0.174 HD
ENDBRANCH  14  21
BRANCH  17  24
HETATM   24  N6  UNL     1      25.283  59.945  54.070  1.00  0.00    -0.159 N 
HETATM   25  C12 UNL     1      25.587  59.841  55.450  1.00  0.00     0.235 C 
HETATM   26  O1  UNL     1      25.825  58.737  55.992  1.00  0.00    -0.273 OA
ATOM     27  H6  UNL     1      24.382  60.314  53.767  1.00  0.00     0.187 HD
BRANCH  25  28
HETATM   28  C13 UNL     1      25.636  61.040  56.334  1.00  0.00     0.103 C 
BRANCH  28  29
HETATM   29  C14 UNL     1      26.993  61.645  56.459  1.00  0.00     0.005 C 
HETATM   30  C15 UNL     1      27.523  61.345  57.846  1.00  0.00     0.005 C 
ENDBRANCH  28  29
ENDBRANCH  25  28
ENDBRANCH  17  24
ENDBRANCH  10  12
ENDBRANCH   9  10
ENDBRANCH   8   9
ENDBRANCH   7   8
ENDBRANCH   5   7
ENDBRANCH   4   5
ENDBRANCH   3   4
TORSDOF 11
ENDMDL
MODEL 3
REMARK VINA RESULT: -7.247813893      3.308      5.670
REMARK  11 active torsions:
REMARK  status: ('A' for Active; 'I' for Inactive)
REMARK    1  A    between atoms: C3_3  and  C4_4 
REMARK    2  A    between atoms: C4_4  and  N1_5 
REMARK    3  A    between atoms: N1_5  and  C6_7 
REMARK    4  A    between atoms: C6_7  and  C7_8 
REMARK    5  A    between atoms: C7_8  and  C8_9 
REMARK    6  A    between atoms: C8_9  and  N2_10 
REMARK    7  A    between atoms: N2_10  and  C9_12 
REMARK    8  A    between atoms: C10_15  and  N4_16 
REMARK    9  A    between atoms: C11_21  and  N6_22 
REMARK       I    between atoms: N6_22  and  C12_24 
REMARK   10  A    between atoms: C12_24  and  C13_26 
REMARK   11  A    between atoms: C13_26  and  C14_27 
ROOT
HETATM    1  C1  UNL     1      24.391  51.985  45.792  1.00  0.00     0.012 C 
HETATM    2  C2  UNL     1      24.476  52.992  46.448  1.00  0.00    -0.116 C 
HETATM    3  C3  UNL     1      24.582  54.211  47.275  1.00  0.00     0.112 C 
ENDROOT
BRANCH   3   4
HETATM    4  C4  UNL     1      25.586  54.037  48.378  1.00  0.00     0.128 C 
BRANCH   4   5
HETATM    5  N1  UNL     1      25.799  55.306  49.014  1.00  0.00    -0.416 N 
HETATM    6  C5  UNL     1      27.076  55.486  49.600  1.00  0.00     0.143 C 
BRANCH   5   7
HETATM    7  C6  UNL     1      25.216  56.413  48.349  1.00  0.00     0.118 C 
BRANCH   7   8
HETATM    8  C7  UNL     1      26.081  57.626  48.268  1.00  0.00     0.039 C 
BRANCH   8   9
HETATM    9  C8  UNL     1      25.582  58.737  49.191  1.00  0.00     0.139 C 
BRANCH   9  10
HETATM   10  N2  UNL     1      25.609  58.410  50.565  1.00  0.00    -0.225 N 
ATOM     11  H2  UNL     1      24.882  57.783  50.909  1.00  0.00     0.177 HD
BRANCH  10  12
HETATM   12  C9  UNL     1      26.467  58.833  51.417  1.00  0.00     0.707 A 
HETATM   13  N3  UNL     1      27.799  58.641  51.313  1.00  0.00    -0.022 N 
HETATM   14  C10 UNL     1      28.690  59.089  52.220  1.00  0.00     0.705 A 
ATOM     15  H3  UNL     1      28.151  58.130  50.504  1.00  0.00     0.203 HD
HETATM   16  N5  UNL     1      28.221  59.754  53.272  1.00  0.00    -0.021 N 
HETATM   17  C11 UNL     1      26.884  59.989  53.449  1.00  0.00     0.714 A 
ATOM     18  H5  UNL     1      28.880  60.099  53.970  1.00  0.00     0.203 HD
HETATM   19  N7  UNL     1      26.050  59.525  52.524  1.00  0.00    -0.021 N 
ATOM     20  H7  UNL     1      25.051  59.692  52.643  1.00  0.00     0.203 HD
BRANCH  14  21
HETATM   21  N4  UNL     1      29.968  58.904  52.119  1.00  0.00    -0.234 N 
ATOM     22  H42 UNL     1      30.439  59.196  51.263  1.00  0.00     0.174 HD
ATOM     23  H41 UNL     1      30.536  58.480  52.853  1.00  0.00     0.174 HD
ENDBRANCH  14  21
BRANCH  17  24
HETATM   24  N6  UNL     1      26.545  60.639  54.507  1.00  0.00    -0.159 N 
HETATM   25  C12 UNL     1      25.588  60.080  55.389  1.00  0.00     0.235 C 
HETATM   26  O1  UNL     1      24.416  59.834  55.022  1.00  0.00    -0.273 OA
ATOM     27  H6  UNL     1      26.962  61.548  54.709  1.00  0.00     0.187 HD
BRANCH  25  28
HETATM   28  C13 UNL     1      25.922  59.755  56.805  1.00  0.00     0.103 C 
BRANCH  28  29
HETATM   29  C14 UNL     1      24.792  59.961  57.756  1.00  0.00     0.005 C 
HETATM   30  C15 UNL     1      24.746  61.428  58.131  1.00  0.00     0.005 C 
ENDBRANCH  28  29
ENDBRANCH  25  28
ENDBRANCH  17  24
ENDBRANCH  10  12
ENDBRANCH   9  10
ENDBRANCH   8   9
ENDBRANCH   7   8
ENDBRANCH   5   7
ENDBRANCH   4   5
ENDBRANCH   3   4
TORSDOF 11
ENDMDL
MODEL 4
REMARK VINA RESULT: -7.225420658      1.608      2.108
REMARK  11 active torsions:
REMARK  status: ('A' for Active; 'I' for Inactive)
REMARK    1  A    between atoms: C3_3  and  C4_4 
REMARK    2  A    between atoms: C4_4  and  N1_5 
REMARK    3  A    between atoms: N1_5  and  C6_7 
REMARK    4  A    between atoms: C6_7  and  C7_8 
REMARK    5  A    between atoms: C7_8  and  C8_9 
REMARK    6  A    between atoms: C8_9  and  N2_10 
REMARK    7  A    between atoms: N2_10  and  C9_12 
REMARK    8  A    between atoms: C10_15  and  N4_16 
REMARK    9  A    between atoms: C11_21  and  N6_22 
REMARK       I    between atoms: N6_22  and  C12_24 
REMARK   10  A    between atoms: C12_24  and  C13_26 
REMARK   11  A    between atoms: C13_26  and  C14_27 
ROOT
HETATM    1  C1  UNL     1      27.799  50.152  47.760  1.00  0.00     0.012 C 
HETATM    2  C2  UNL     1      26.791  50.813  47.789  1.00  0.00    -0.116 C 
HETATM    3  C3  UNL     1      25.566  51.635  47.846  1.00  0.00     0.112 C 
ENDROOT
BRANCH   3   4
HETATM    4  C4  UNL     1      25.879  53.057  48.214  1.00  0.00     0.128 C 
BRANCH   4   5
HETATM    5  N1  UNL     1      25.209  53.931  47.293  1.00  0.00    -0.416 N 
HETATM    6  C5  UNL     1      24.423  53.288  46.306  1.00  0.00     0.143 C 
BRANCH   5   7
HETATM    7  C6  UNL     1      24.706  55.127  47.863  1.00  0.00     0.118 C 
BRANCH   7   8
HETATM    8  C7  UNL     1      25.729  55.988  48.526  1.00  0.00     0.039 C 
BRANCH   8   9
HETATM    9  C8  UNL     1      25.266  57.441  48.619  1.00  0.00     0.139 C 
BRANCH   9  10
HETATM   10  N2  UNL     1      25.413  58.020  49.899  1.00  0.00    -0.225 N 
ATOM     11  H2  UNL     1      24.682  57.829  50.584  1.00  0.00     0.177 HD
BRANCH  10  12
HETATM   12  C9  UNL     1      26.385  58.765  50.275  1.00  0.00     0.707 A 
HETATM   13  N3  UNL     1      26.409  59.457  51.434  1.00  0.00    -0.022 N 
HETATM   14  C10 UNL     1      27.438  60.240  51.814  1.00  0.00     0.705 A 
ATOM     15  H3  UNL     1      25.604  59.384  52.056  1.00  0.00     0.203 HD
HETATM   16  N5  UNL     1      28.483  60.329  50.996  1.00  0.00    -0.021 N 
HETATM   17  C11 UNL     1      28.535  59.658  49.803  1.00  0.00     0.714 A 
ATOM     18  H5  UNL     1      29.271  60.917  51.266  1.00  0.00     0.203 HD
HETATM   19  N7  UNL     1      27.492  58.901  49.479  1.00  0.00    -0.021 N 
ATOM     20  H7  UNL     1      27.517  58.395  48.593  1.00  0.00     0.203 HD
BRANCH  14  21
HETATM   21  N4  UNL     1      27.459  60.903  52.926  1.00  0.00    -0.234 N 
ATOM     22  H42 UNL     1      27.381  60.392  53.804  1.00  0.00     0.174 HD
ATOM     23  H41 UNL     1      27.552  61.918  52.975  1.00  0.00     0.174 HD
ENDBRANCH  14  21
BRANCH  17  24
HETATM   24  N6  UNL     1      29.594  59.824  49.091  1.00  0.00    -0.159 N 
HETATM   25  C12 UNL     1      30.626  58.856  49.147  1.00  0.00     0.235 C 
HETATM   26  O1  UNL     1      31.238  58.603  50.210  1.00  0.00    -0.273 OA
ATOM     27  H6  UNL     1      29.689  60.645  48.493  1.00  0.00     0.187 HD
BRANCH  25  28
HETATM   28  C13 UNL     1      31.045  58.086  47.941  1.00  0.00     0.103 C 
BRANCH  28  29
HETATM   29  C14 UNL     1      31.210  58.921  46.717  1.00  0.00     0.005 C 
HETATM   30  C15 UNL     1      31.174  58.008  45.509  1.00  0.00     0.005 C 
ENDBRANCH  28  29
ENDBRANCH  25  28
ENDBRANCH  17  24
ENDBRANCH  10  12
ENDBRANCH   9  10
ENDBRANCH   8   9
ENDBRANCH   7   8
ENDBRANCH   5   7
ENDBRANCH   4   5
ENDBRANCH   3   4
TORSDOF 11
ENDMDL
MODEL 5
REMARK VINA RESULT: -7.211397458      2.672      4.933
REMARK  11 active torsions:
REMARK  status: ('A' for Active; 'I' for Inactive)
REMARK    1  A    between atoms: C3_3  and  C4_4 
REMARK    2  A    between atoms: C4_4  and  N1_5 
REMARK    3  A    between atoms: N1_5  and  C6_7 
REMARK    4  A    between atoms: C6_7  and  C7_8 
REMARK    5  A    between atoms: C7_8  and  C8_9 
REMARK    6  A    between atoms: C8_9  and  N2_10 
REMARK    7  A    between atoms: N2_10  and  C9_12 
REMARK    8  A    between atoms: C10_15  and  N4_16 
REMARK    9  A    between atoms: C11_21  and  N6_22 
REMARK       I    between atoms: N6_22  and  C12_24 
REMARK   10  A    between atoms: C12_24  and  C13_26 
REMARK   11  A    between atoms: C13_26  and  C14_27 
ROOT
HETATM    1  C1  UNL     1      28.714  49.492  48.012  1.00  0.00     0.012 C 
HETATM    2  C2  UNL     1      27.787  50.122  47.569  1.00  0.00    -0.116 C 
HETATM    3  C3  UNL     1      26.642  50.899  47.053  1.00  0.00     0.112 C 
ENDROOT
BRANCH   3   4
HETATM    4  C4  UNL     1      26.309  52.049  47.957  1.00  0.00     0.128 C 
BRANCH   4   5
HETATM    5  N1  UNL     1      25.429  52.945  47.262  1.00  0.00    -0.416 N 
HETATM    6  C5  UNL     1      24.624  52.351  46.259  1.00  0.00     0.143 C 
BRANCH   5   7
HETATM    7  C6  UNL     1      24.844  53.953  48.068  1.00  0.00     0.118 C 
BRANCH   7   8
HETATM    8  C7  UNL     1      24.571  55.241  47.365  1.00  0.00     0.039 C 
BRANCH   8   9
HETATM    9  C8  UNL     1      24.920  56.444  48.240  1.00  0.00     0.139 C 
BRANCH   9  10
HETATM   10  N2  UNL     1      25.940  56.201  49.188  1.00  0.00    -0.225 N 
ATOM     11  H2  UNL     1      25.994  55.262  49.582  1.00  0.00     0.177 HD
BRANCH  10  12
HETATM   12  C9  UNL     1      26.801  57.057  49.594  1.00  0.00     0.707 A 
HETATM   13  N3  UNL     1      28.092  57.082  49.201  1.00  0.00    -0.022 N 
HETATM   14  C10 UNL     1      28.989  57.987  49.641  1.00  0.00     0.705 A 
ATOM     15  H3  UNL     1      28.407  56.377  48.534  1.00  0.00     0.203 HD
HETATM   16  N5  UNL     1      28.569  58.901  50.511  1.00  0.00    -0.021 N 
HETATM   17  C11 UNL     1      27.276  58.943  50.958  1.00  0.00     0.714 A 
ATOM     18  H5  UNL     1      29.233  59.594  50.856  1.00  0.00     0.203 HD
HETATM   19  N7  UNL     1      26.434  58.026  50.491  1.00  0.00    -0.021 N 
ATOM     20  H7  UNL     1      25.467  58.044  50.817  1.00  0.00     0.203 HD
BRANCH  14  21
HETATM   21  N4  UNL     1      30.227  58.009  49.263  1.00  0.00    -0.234 N 
ATOM     22  H42 UNL     1      30.586  57.229  48.715  1.00  0.00     0.174 HD
ATOM     23  H41 UNL     1      30.870  58.771  49.482  1.00  0.00     0.174 HD
ENDBRANCH  14  21
BRANCH  17  24
HETATM   24  N6  UNL     1      26.984  59.869  51.804  1.00  0.00    -0.159 N 
HETATM   25  C12 UNL     1      26.721  59.521  53.151  1.00  0.00     0.235 C 
HETATM   26  O1  UNL     1      25.768  58.771  53.465  1.00  0.00    -0.273 OA
ATOM     27  H6  UNL     1      26.943  60.844  51.505  1.00  0.00     0.187 HD
BRANCH  25  28
HETATM   28  C13 UNL     1      27.561  60.031  54.271  1.00  0.00     0.103 C 
BRANCH  28  29
HETATM   29  C14 UNL     1      27.962  61.461  54.125  1.00  0.00     0.005 C 
HETATM   30  C15 UNL     1      29.465  61.519  53.954  1.00  0.00     0.005 C 
ENDBRANCH  28  29
ENDBRANCH  25  28
ENDBRANCH  17  24
ENDBRANCH  10  12
ENDBRANCH   9  10
ENDBRANCH   8   9
ENDBRANCH   7   8
ENDBRANCH   5   7
ENDBRANCH   4   5
ENDBRANCH   3   4
TORSDOF 11
ENDMDL
