MODEL 1
REMARK VINA RESULT: -7.341131773      0.000      0.000
REMARK  11 active torsions:
REMARK  status: ('A' for Active; 'I' for Inactive)
REMARK    1  A    between atoms: N1_2  and  C2_4 
REMARK    2  A    between atoms: N3_8  and  C4_10 
REMARK    3  A    between atoms: C4_10  and  C5_11 
REMARK    4  A    between atoms: C5_11  and  C6_12 
REMARK    5  A    between atoms: C6_12  and  O1_13 
REMARK    6  A    between atoms: O1_13  and  C7_14 
REMARK    7  A    between atoms: C7_14  and  C8_15 
REMARK    8  A    between atoms: C8_15  and  O2_16 
REMARK    9  A    between atoms: C9_20  and  N5_21 
REMARK   10  A    between atoms: N5_21  and  C10_23 
REMARK   11  A    between atoms: C10_23  and  C11_24 
ROOT
HETATM    1  C2  UNL     1      29.254  59.642  49.407  1.00  0.00     0.706 A 
HETATM    2  N2  UNL     1      28.164  58.970  48.927  1.00  0.00    -0.022 N 
ATOM      3  H2  UNL     1      28.284  58.389  48.097  1.00  0.00     0.203 HD
HETATM    4  C3  UNL     1      26.951  59.029  49.482  1.00  0.00     0.707 A 
HETATM    5  N3  UNL     1      25.927  58.407  49.045  1.00  0.00    -0.225 N 
ATOM      6  H3  UNL     1      25.051  58.531  49.552  1.00  0.00     0.177 HD
HETATM    7  N4  UNL     1      26.812  59.816  50.597  1.00  0.00    -0.022 N 
ATOM      8  H4  UNL     1      25.900  59.888  51.048  1.00  0.00     0.203 HD
HETATM    9  C9  UNL     1      27.854  60.495  51.106  1.00  0.00     0.707 A 
HETATM   10  N6  UNL     1      29.053  60.395  50.501  1.00  0.00    -0.022 N 
ATOM     11  H6  UNL     1      29.841  60.912  50.891  1.00  0.00     0.203 HD
ENDROOT
BRANCH   5  12
HETATM   12  C4  UNL     1      25.909  57.551  47.903  1.00  0.00     0.140 C 
BRANCH  12  13
HETATM   13  C5  UNL     1      25.483  56.132  48.207  1.00  0.00     0.046 C 
BRANCH  13  14
HETATM   14  C6  UNL     1      26.397  55.421  49.162  1.00  0.00     0.169 C 
BRANCH  14  15
HETATM   15  O1  UNL     1      26.008  54.111  49.347  1.00  0.00    -0.389 OA
BRANCH  15  16
HETATM   16  C7  UNL     1      25.402  53.511  48.274  1.00  0.00     0.193 C 
BRANCH  16  17
HETATM   17  C8  UNL     1      26.068  52.196  47.911  1.00  0.00     0.190 C 
BRANCH  17  18
HETATM   18  O2  UNL     1      26.651  51.633  49.057  1.00  0.00    -0.399 OA
ATOM     19  H2  UNL     1      27.576  51.483  48.901  1.00  0.00     0.209 HD
ENDBRANCH  17  18
ENDBRANCH  16  17
ENDBRANCH  15  16
ENDBRANCH  14  15
ENDBRANCH  13  14
ENDBRANCH  12  13
ENDBRANCH   5  12
BRANCH   1  20
HETATM   20  N1  UNL     1      30.415  59.566  48.852  1.00  0.00    -0.229 N 
HETATM   21  C1  UNL     1      30.824  58.273  48.336  1.00  0.00     0.165 C 
ATOM     22  H1  UNL     1      31.023  60.383  48.778  1.00  0.00     0.177 HD
ENDBRANCH   1  20
BRANCH   9  23
HETATM   23  N5  UNL     1      27.698  61.231  52.159  1.00  0.00    -0.215 N 
ATOM     24  H5  UNL     1      27.493  62.227  52.076  1.00  0.00     0.178 HD
BRANCH  23  25
HETATM   25  C10 UNL     1      27.820  60.613  53.441  1.00  0.00     0.251 C 
BRANCH  25  26
HETATM   26  C11 UNL     1      26.864  59.535  53.687  1.00  0.00     0.191 C 
HETATM   27  O3  UNL     1      25.773  59.715  54.278  1.00  0.00    -0.647 OA
HETATM   28  O4  UNL     1      27.175  58.259  53.249  1.00  0.00    -0.647 OA
ENDBRANCH  25  26
ENDBRANCH  23  25
ENDBRANCH   9  23
TORSDOF 11
ENDMDL
MODEL 2
REMARK VINA RESULT: -7.247771676      2.361      2.994
REMARK  11 active torsions:
REMARK  status: ('A' for Active; 'I' for Inactive)
REMARK    1  A    between atoms: N1_2  and  C2_4 
REMARK    2  A    between atoms: N3_8  and  C4_10 
REMARK    3  A    between atoms: C4_10  and  C5_11 
REMARK    4  A    between atoms: C5_11  and  C6_12 
REMARK    5  A    between atoms: C6_12  and  O1_13 
REMARK    6  A    between atoms: O1_13  and  C7_14 
REMARK    7  A    between atoms: C7_14  and  C8_15 
REMARK    8  A    between atoms: C8_15  and  O2_16 
REMARK    9  A    between atoms: C9_20  and  N5_21 
REMARK   10  A    between atoms: N5_21  and  C10_23 
REMARK   11  A    between atoms: C10_23  and  C11_24 
ROOT
HETATM    1  C2  UNL     1      28.342  58.640  53.096  1.00  0.00     0.706 A 
HETATM    2  N2  UNL     1      27.878  58.333  51.847  1.00  0.00    -0.022 N 
ATOM      3  H2  UNL     1      28.483  57.790  51.230  1.00  0.00     0.203 HD
HETATM    4  C3  UNL     1      26.681  58.701  51.387  1.00  0.00     0.707 A 
HETATM    5  N3  UNL     1      26.236  58.420  50.225  1.00  0.00    -0.225 N 
ATOM      6  H3  UNL     1      25.304  58.759  49.985  1.00  0.00     0.177 HD
HETATM    7  N4  UNL     1      25.885  59.432  52.234  1.00  0.00    -0.022 N 
ATOM      8  H4  UNL     1      24.963  59.733  51.917  1.00  0.00     0.203 HD
HETATM    9  C9  UNL     1      26.296  59.758  53.471  1.00  0.00     0.707 A 
HETATM   10  N6  UNL     1      27.516  59.356  53.876  1.00  0.00    -0.022 N 
ATOM     11  H6  UNL     1      27.825  59.606  54.816  1.00  0.00     0.203 HD
ENDROOT
BRANCH   5  12
HETATM   12  C4  UNL     1      26.938  57.670  49.234  1.00  0.00     0.140 C 
BRANCH  12  13
HETATM   13  C5  UNL     1      26.511  56.223  49.145  1.00  0.00     0.046 C 
BRANCH  13  14
HETATM   14  C6  UNL     1      25.419  55.978  48.146  1.00  0.00     0.169 C 
BRANCH  14  15
HETATM   15  O1  UNL     1      25.245  54.630  47.911  1.00  0.00    -0.389 OA
BRANCH  15  16
HETATM   16  C7  UNL     1      25.949  53.786  48.731  1.00  0.00     0.193 C 
BRANCH  16  17
HETATM   17  C8  UNL     1      25.972  52.366  48.196  1.00  0.00     0.190 C 
BRANCH  17  18
HETATM   18  O2  UNL     1      26.671  51.539  49.089  1.00  0.00    -0.399 OA
ATOM     19  H2  UNL     1      26.056  50.996  49.567  1.00  0.00     0.209 HD
ENDBRANCH  17  18
ENDBRANCH  16  17
ENDBRANCH  15  16
ENDBRANCH  14  15
ENDBRANCH  13  14
ENDBRANCH  12  13
ENDBRANCH   5  12
BRANCH   1  20
HETATM   20  N1  UNL     1      29.504  58.270  53.515  1.00  0.00    -0.229 N 
HETATM   21  C1  UNL     1      30.457  59.314  53.843  1.00  0.00     0.165 C 
ATOM     22  H1  UNL     1      29.744  57.283  53.611  1.00  0.00     0.177 HD
ENDBRANCH   1  20
BRANCH   9  23
HETATM   23  N5  UNL     1      25.527  60.447  54.250  1.00  0.00    -0.215 N 
ATOM     24  H5  UNL     1      24.693  60.909  53.888  1.00  0.00     0.178 HD
BRANCH  23  25
HETATM   25  C10 UNL     1      25.876  60.545  55.632  1.00  0.00     0.251 C 
BRANCH  25  26
HETATM   26  C11 UNL     1      24.825  60.116  56.554  1.00  0.00     0.191 C 
HETATM   27  O3  UNL     1      23.628  60.467  56.430  1.00  0.00    -0.647 OA
HETATM   28  O4  UNL     1      25.165  59.285  57.609  1.00  0.00    -0.647 OA
ENDBRANCH  25  26
ENDBRANCH  23  25
ENDBRANCH   9  23
TORSDOF 11
ENDMDL
MODEL 3
REMARK VINA RESULT: -7.226202341      0.931      1.120
REMARK  11 active torsions:
REMARK  status: ('A' for Active; 'I' for Inactive)
REMARK    1  A    between atoms: N1_2  and  C2_4 
REMARK    2  A    between atoms: N3_8  and  C4_10 
REMARK    3  A    between atoms: C4_10  and  C5_11 
REMARK    4  A    between atoms: C5_11  and  C6_12 
REMARK    5  A    between atoms: C6_12  and  O1_13 
REMARK    6  A    between atoms: O1_13  and  C7_14 
REMARK    7  A    between atoms: C7_14  and  C8_15 
REMARK    8  A    between atoms: C8_15  and  O2_16 
REMARK    9  A    between atoms: C9_20  and  N5_21 
REMARK   10  A    between atoms: N5_21  and  C10_23 
REMARK   11  A    between atoms: C10_23  and  C11_24 
ROOT
HETATM    1  C2  UNL     1      28.773  60.007  49.999  1.00  0.00     0.706 A 
HETATM    2  N2  UNL     1      27.728  59.288  49.485  1.00  0.00    -0.022 N 
ATOM      3  H2  UNL     1      27.832  58.892  48.551  1.00  0.00     0.203 HD
HETATM    4  C3  UNL     1      26.583  59.074  50.135  1.00  0.00     0.707 A 
HETATM    5  N3  UNL     1      25.602  58.406  49.668  1.00  0.00    -0.225 N 
ATOM      6  H3  UNL     1      24.775  58.311  50.257  1.00  0.00     0.177 HD
HETATM    7  N4  UNL     1      26.466  59.617  51.390  1.00  0.00    -0.022 N 
ATOM      8  H4  UNL     1      25.604  59.476  51.917  1.00  0.00     0.203 HD
HETATM    9  C9  UNL     1      27.465  60.329  51.938  1.00  0.00     0.707 A 
HETATM   10  N6  UNL     1      28.597  60.510  51.232  1.00  0.00    -0.022 N 
ATOM     11  H6  UNL     1      29.353  61.052  51.651  1.00  0.00     0.203 HD
ENDROOT
BRANCH   5  12
HETATM   12  C4  UNL     1      25.569  57.780  48.385  1.00  0.00     0.140 C 
BRANCH  12  13
HETATM   13  C5  UNL     1      25.312  56.291  48.437  1.00  0.00     0.046 C 
BRANCH  13  14
HETATM   14  C6  UNL     1      26.392  55.516  49.133  1.00  0.00     0.169 C 
BRANCH  14  15
HETATM   15  O1  UNL     1      26.047  54.189  49.274  1.00  0.00    -0.389 OA
BRANCH  15  16
HETATM   16  C7  UNL     1      25.501  53.593  48.167  1.00  0.00     0.193 C 
BRANCH  16  17
HETATM   17  C8  UNL     1      26.114  52.231  47.897  1.00  0.00     0.190 C 
BRANCH  17  18
HETATM   18  O2  UNL     1      26.631  51.704  49.091  1.00  0.00    -0.399 OA
ATOM     19  H2  UNL     1      27.579  51.669  49.037  1.00  0.00     0.209 HD
ENDBRANCH  17  18
ENDBRANCH  16  17
ENDBRANCH  15  16
ENDBRANCH  14  15
ENDBRANCH  13  14
ENDBRANCH  12  13
ENDBRANCH   5  12
BRANCH   1  20
HETATM   20  N1  UNL     1      29.870  60.197  49.349  1.00  0.00    -0.229 N 
HETATM   21  C1  UNL     1      30.514  59.031  48.774  1.00  0.00     0.165 C 
ATOM     22  H1  UNL     1      30.270  61.130  49.243  1.00  0.00     0.177 HD
ENDBRANCH   1  20
BRANCH   9  23
HETATM   23  N5  UNL     1      27.331  60.830  53.124  1.00  0.00    -0.215 N 
ATOM     24  H5  UNL     1      27.213  61.835  53.257  1.00  0.00     0.178 HD
BRANCH  23  25
HETATM   25  C10 UNL     1      27.353  59.941  54.241  1.00  0.00     0.251 C 
BRANCH  25  26
HETATM   26  C11 UNL     1      26.065  59.787  54.917  1.00  0.00     0.191 C 
HETATM   27  O3  UNL     1      25.024  59.423  54.322  1.00  0.00    -0.647 OA
HETATM   28  O4  UNL     1      25.991  60.055  56.274  1.00  0.00    -0.647 OA
ENDBRANCH  25  26
ENDBRANCH  23  25
ENDBRANCH   9  23
TORSDOF 11
ENDMDL
MODEL 4
REMARK VINA RESULT: -7.144912584      2.497      3.889
REMARK  11 active torsions:
REMARK  status: ('A' for Active; 'I' for Inactive)
REMARK    1  A    between atoms: N1_2  and  C2_4 
REMARK    2  A    between atoms: N3_8  and  C4_10 
REMARK    3  A    between atoms: C4_10  and  C5_11 
REMARK    4  A    between atoms: C5_11  and  C6_12 
REMARK    5  A    between atoms: C6_12  and  O1_13 
REMARK    6  A    between atoms: O1_13  and  C7_14 
REMARK    7  A    between atoms: C7_14  and  C8_15 
REMARK    8  A    between atoms: C8_15  and  O2_16 
REMARK    9  A    between atoms: C9_20  and  N5_21 
REMARK   10  A    between atoms: N5_21  and  C10_23 
REMARK   11  A    between atoms: C10_23  and  C11_24 
ROOT
HETATM    1  C2  UNL     1      26.563  59.348  51.204  1.00  0.00     0.706 A 
HETATM    2  N2  UNL     1      26.061  58.503  50.252  1.00  0.00    -0.022 N 
ATOM      3  H2  UNL     1      25.142  58.091  50.413  1.00  0.00     0.203 HD
HETATM    4  C3  UNL     1      26.703  58.187  49.126  1.00  0.00     0.707 A 
HETATM    5  N3  UNL     1      26.246  57.402  48.231  1.00  0.00    -0.225 N 
ATOM      6  H3  UNL     1      26.829  57.233  47.412  1.00  0.00     0.177 HD
HETATM    7  N4  UNL     1      27.938  58.752  48.931  1.00  0.00    -0.022 N 
ATOM      8  H4  UNL     1      28.460  58.533  48.082  1.00  0.00     0.203 HD
HETATM    9  C9  UNL     1      28.473  59.589  49.836  1.00  0.00     0.707 A 
HETATM   10  N6  UNL     1      27.775  59.870  50.953  1.00  0.00    -0.022 N 
ATOM     11  H6  UNL     1      28.185  60.505  51.638  1.00  0.00     0.203 HD
ENDROOT
BRANCH   5  12
HETATM   12  C4  UNL     1      24.982  56.739  48.285  1.00  0.00     0.140 C 
BRANCH  12  13
HETATM   13  C5  UNL     1      25.027  55.296  47.837  1.00  0.00     0.046 C 
BRANCH  13  14
HETATM   14  C6  UNL     1      25.922  54.432  48.677  1.00  0.00     0.169 C 
BRANCH  14  15
HETATM   15  O1  UNL     1      25.909  53.123  48.243  1.00  0.00    -0.389 OA
BRANCH  15  16
HETATM   16  C7  UNL     1      24.709  52.667  47.762  1.00  0.00     0.193 C 
BRANCH  16  17
HETATM   17  C8  UNL     1      24.886  51.821  46.514  1.00  0.00     0.190 C 
BRANCH  17  18
HETATM   18  O2  UNL     1      26.225  51.414  46.409  1.00  0.00    -0.399 OA
ATOM     19  H2  UNL     1      26.585  51.717  45.584  1.00  0.00     0.209 HD
ENDBRANCH  17  18
ENDBRANCH  16  17
ENDBRANCH  15  16
ENDBRANCH  14  15
ENDBRANCH  13  14
ENDBRANCH  12  13
ENDBRANCH   5  12
BRANCH   1  20
HETATM   20  N1  UNL     1      25.920  59.638  52.283  1.00  0.00    -0.229 N 
HETATM   21  C1  UNL     1      26.679  59.682  53.519  1.00  0.00     0.165 C 
ATOM     22  H1  UNL     1      24.918  59.829  52.269  1.00  0.00     0.177 HD
ENDBRANCH   1  20
BRANCH   9  23
HETATM   23  N5  UNL     1      29.639  60.110  49.630  1.00  0.00    -0.215 N 
ATOM     24  H5  UNL     1      29.736  61.002  49.144  1.00  0.00     0.178 HD
BRANCH  23  25
HETATM   25  C10 UNL     1      30.790  59.404  50.099  1.00  0.00     0.251 C 
BRANCH  25  26
HETATM   26  C11 UNL     1      31.456  58.590  49.084  1.00  0.00     0.191 C 
HETATM   27  O3  UNL     1      32.701  58.561  48.946  1.00  0.00    -0.647 OA
HETATM   28  O4  UNL     1      30.679  57.816  48.238  1.00  0.00    -0.647 OA
ENDBRANCH  25  26
ENDBRANCH  23  25
ENDBRANCH   9  23
TORSDOF 11
ENDMDL
MODEL 5
REMARK VINA RESULT: -7.117456209      2.215      3.497
REMARK  11 active torsions:
REMARK  status: ('A' for Active; 'I' for Inactive)
REMARK    1  A    between atoms: N1_2  and  C2_4 
REMARK    2  A    between atoms: N3_8  and  C4_10 
REMARK    3  A    between atoms: C4_10  and  C5_11 
REMARK    4  A    between atoms: C5_11  and  C6_12 
REMARK    5  A    between atoms: C6_12  and  O1_13 
REMARK    6  A    between atoms: O1_13  and  C7_14 
REMARK    7  A    between atoms: C7_14  and  C8_15 
REMARK    8  A    between atoms: C8_15  and  O2_16 
REMARK    9  A    between atoms: C9_20  and  N5_21 
REMARK   10  A    between atoms: N5_21  and  C10_23 
REMARK   11  A    between atoms: C10_23  and  C11_24 
ROOT
HETATM    1  C2  UNL     1      26.510  59.443  51.405  1.00  0.00     0.706 A 
HETATM    2  N2  UNL     1      26.052  58.591  50.438  1.00  0.00    -0.022 N 
ATOM      3  H2  UNL     1      25.165  58.113  50.601  1.00  0.00     0.203 HD
HETATM    4  C3  UNL     1      26.696  58.350  49.295  1.00  0.00     0.707 A 
HETATM    5  N3  UNL     1      26.279  57.559  48.385  1.00  0.00    -0.225 N 
ATOM      6  H3  UNL     1      26.860  57.452  47.554  1.00  0.00     0.177 HD
HETATM    7  N4  UNL     1      27.886  59.003  49.099  1.00  0.00    -0.022 N 
ATOM      8  H4  UNL     1      28.409  58.843  48.237  1.00  0.00     0.203 HD
HETATM    9  C9  UNL     1      28.377  59.850  50.019  1.00  0.00     0.707 A 
HETATM   10  N6  UNL     1      27.680  60.053  51.153  1.00  0.00    -0.022 N 
ATOM     11  H6  UNL     1      28.056  60.697  51.849  1.00  0.00     0.203 HD
ENDROOT
BRANCH   5  12
HETATM   12  C4  UNL     1      25.064  56.810  48.439  1.00  0.00     0.140 C 
BRANCH  12  13
HETATM   13  C5  UNL     1      25.169  55.429  47.832  1.00  0.00     0.046 C 
BRANCH  13  14
HETATM   14  C6  UNL     1      25.917  54.450  48.688  1.00  0.00     0.169 C 
BRANCH  14  15
HETATM   15  O1  UNL     1      25.612  53.149  48.347  1.00  0.00    -0.389 OA
BRANCH  15  16
HETATM   16  C7  UNL     1      24.598  52.993  47.437  1.00  0.00     0.193 C 
BRANCH  16  17
HETATM   17  C8  UNL     1      24.856  51.829  46.497  1.00  0.00     0.190 C 
BRANCH  17  18
HETATM   18  O2  UNL     1      26.222  51.508  46.513  1.00  0.00    -0.399 OA
ATOM     19  H2  UNL     1      26.535  51.495  47.410  1.00  0.00     0.209 HD
ENDBRANCH  17  18
ENDBRANCH  16  17
ENDBRANCH  15  16
ENDBRANCH  14  15
ENDBRANCH  13  14
ENDBRANCH  12  13
ENDBRANCH   5  12
BRANCH   1  20
HETATM   20  N1  UNL     1      25.866  59.659  52.502  1.00  0.00    -0.229 N 
HETATM   21  C1  UNL     1      26.636  59.691  53.731  1.00  0.00     0.165 C 
ATOM     22  H1  UNL     1      24.856  59.802  52.504  1.00  0.00     0.177 HD
ENDBRANCH   1  20
BRANCH   9  23
HETATM   23  N5  UNL     1      29.502  60.456  49.810  1.00  0.00    -0.215 N 
ATOM     24  H5  UNL     1      29.635  61.045  48.988  1.00  0.00     0.178 HD
BRANCH  23  25
HETATM   25  C10 UNL     1      30.553  60.278  50.761  1.00  0.00     0.251 C 
BRANCH  25  26
HETATM   26  C11 UNL     1      31.186  58.960  50.725  1.00  0.00     0.191 C 
HETATM   27  O3  UNL     1      31.136  58.210  49.723  1.00  0.00    -0.647 OA
HETATM   28  O4  UNL     1      31.870  58.521  51.846  1.00  0.00    -0.647 OA
ENDBRANCH  25  26
ENDBRANCH  23  25
ENDBRANCH   9  23
TORSDOF 11
ENDMDL
