MODEL 1
REMARK VINA RESULT: -7.803703356      0.000      0.000
REMARK  18 active torsions:
REMARK  status: ('A' for Active; 'I' for Inactive)
REMARK       I    between atoms: C1_4  and  N3_6 
REMARK    1  A    between atoms: N3_6  and  C2_8 
REMARK    2  A    between atoms: C2_8  and  C3_9 
REMARK    3  A    between atoms: C3_9  and  C4_10 
REMARK    4  A    between atoms: C4_10  and  C5_11 
REMARK    5  A    between atoms: C5_11  and  O1_12 
REMARK    6  A    between atoms: O1_12  and  C6_13 
REMARK    7  A    between atoms: C6_13  and  C7_14 
REMARK    8  A    between atoms: C7_14  and  C8_15 
REMARK    9  A    between atoms: C8_15  and  N4_16 
REMARK   10  A    between atoms: N4_16  and  C9_18 
REMARK   11  A    between atoms: C10_19  and  O2_20 
REMARK   12  A    between atoms: C11_22  and  O3_23 
REMARK   13  A    between atoms: C12_25  and  O4_26 
REMARK   14  A    between atoms: C13_28  and  N5_29 
REMARK   15  A    between atoms: C13_28  and  O5_34 
REMARK   16  A    between atoms: O5_34  and  N8_35 
REMARK   17  A    between atoms: N8_35  and  O6_36 
REMARK   18  A    between atoms: N9_38  and  N10_39 
ROOT
HETATM    1  C9  UNL     1      34.297  50.391  17.808  1.00  0.00     0.113 C 
HETATM    2  C10 UNL     1      33.877  48.953  17.834  1.00  0.00     0.213 C 
HETATM    3  C11 UNL     1      34.023  48.396  19.243  1.00  0.00     0.189 C 
HETATM    4  C12 UNL     1      33.558  49.328  20.315  1.00  0.00     0.225 C 
HETATM    5  C13 UNL     1      34.109  50.727  20.126  1.00  0.00     0.271 C 
HETATM    6  N9  UNL     1      33.629  51.208  18.827  1.00  0.00    -0.130 NA
ENDROOT
BRANCH   1   7
HETATM    7  N4  UNL     1      34.396  51.044  16.574  1.00  0.00    -0.360 N 
ATOM      8  H4  UNL     1      33.606  51.633  16.309  1.00  0.00     0.165 HD
BRANCH   7   9
HETATM    9  C8  UNL     1      35.432  50.982  15.684  1.00  0.00     0.064 C 
BRANCH   9  10
HETATM   10  C7  UNL     1      35.321  51.508  14.286  1.00  0.00     0.071 C 
BRANCH  10  11
HETATM   11  C6  UNL     1      35.920  52.890  14.095  1.00  0.00     0.172 C 
BRANCH  11  12
HETATM   12  O1  UNL     1      36.219  53.475  15.289  1.00  0.00    -0.391 OA
BRANCH  12  13
HETATM   13  C5  UNL     1      37.322  54.295  15.213  1.00  0.00     0.167 C 
BRANCH  13  14
HETATM   14  C4  UNL     1      38.556  53.748  15.872  1.00  0.00     0.028 C 
BRANCH  14  15
HETATM   15  C3  UNL     1      38.227  52.876  17.054  1.00  0.00     0.022 C 
BRANCH  15  16
HETATM   16  C2  UNL     1      37.727  53.651  18.248  1.00  0.00     0.122 C 
BRANCH  16  17
HETATM   17  N3  UNL     1      36.416  53.166  18.596  1.00  0.00    -0.365 N 
HETATM   18  C1  UNL     1      35.339  54.050  18.787  1.00  0.00     0.181 C 
HETATM   19  N1  UNL     1      34.832  54.676  17.798  1.00  0.00    -0.374 N 
HETATM   20  N2  UNL     1      34.797  54.244  20.078  1.00  0.00    -0.064 NA
ATOM     21  H12 UNL     1      34.051  55.317  17.937  1.00  0.00     0.158 HD
ATOM     22  H11 UNL     1      35.224  54.536  16.867  1.00  0.00     0.158 HD
ATOM     23  H3  UNL     1      36.266  52.164  18.706  1.00  0.00     0.162 HD
ENDBRANCH  16  17
ENDBRANCH  15  16
ENDBRANCH  14  15
ENDBRANCH  13  14
ENDBRANCH  12  13
ENDBRANCH  11  12
ENDBRANCH  10  11
ENDBRANCH   9  10
ENDBRANCH   7   9
ENDBRANCH   1   7
BRANCH   2  24
HETATM   24  O2  UNL     1      34.872  48.263  17.080  1.00  0.00    -0.386 OA
ATOM     25  H2  UNL     1      34.512  48.193  16.204  1.00  0.00     0.210 HD
ENDBRANCH   2  24
BRANCH   6  26
HETATM   26  N10 UNL     1      32.264  51.052  18.829  1.00  0.00    -0.354 NA
ATOM     27 2H10 UNL     1      32.074  50.136  19.233  1.00  0.00     0.171 HD
ATOM     28 1H10 UNL     1      31.863  51.044  17.891  1.00  0.00     0.171 HD
ENDBRANCH   6  26
BRANCH   3  29
HETATM   29  O3  UNL     1      35.278  47.847  19.470  1.00  0.00    -0.390 OA
ATOM     30  H3  UNL     1      35.627  48.075  20.323  1.00  0.00     0.210 HD
ENDBRANCH   3  29
BRANCH   5  31
HETATM   31  N5  UNL     1      33.768  51.525  21.211  1.00  0.00    -0.317 N 
HETATM   32  C14 UNL     1      32.824  51.869  21.903  1.00  0.00     0.200 C 
HETATM   33  N6  UNL     1      33.046  52.795  22.988  1.00  0.00    -0.067 NA
HETATM   34  N7  UNL     1      31.503  51.419  21.716  1.00  0.00    -0.067 NA
ATOM     35  H5  UNL     1      34.609  51.991  21.551  1.00  0.00     0.166 HD
ENDBRANCH   5  31
BRANCH   5  36
HETATM   36  O5  UNL     1      35.521  50.647  20.103  1.00  0.00    -0.207 OA
BRANCH  36  37
HETATM   37  N8  UNL     1      36.037  51.266  21.156  1.00  0.00     0.068 NA
BRANCH  37  38
HETATM   38  O6  UNL     1      36.277  50.413  22.162  1.00  0.00    -0.271 OA
ATOM     39  H6  UNL     1      35.549  50.377  22.771  1.00  0.00     0.241 HD
ENDBRANCH  37  38
ENDBRANCH  36  37
ENDBRANCH   5  36
BRANCH   4  40
HETATM   40  O4  UNL     1      33.962  48.853  21.548  1.00  0.00    -0.386 OA
ATOM     41  H4  UNL     1      34.900  48.974  21.643  1.00  0.00     0.210 HD
ENDBRANCH   4  40
TORSDOF 18
ENDMDL
MODEL 2
REMARK VINA RESULT: -7.473562428      1.047      1.294
REMARK  18 active torsions:
REMARK  status: ('A' for Active; 'I' for Inactive)
REMARK       I    between atoms: C1_4  and  N3_6 
REMARK    1  A    between atoms: N3_6  and  C2_8 
REMARK    2  A    between atoms: C2_8  and  C3_9 
REMARK    3  A    between atoms: C3_9  and  C4_10 
REMARK    4  A    between atoms: C4_10  and  C5_11 
REMARK    5  A    between atoms: C5_11  and  O1_12 
REMARK    6  A    between atoms: O1_12  and  C6_13 
REMARK    7  A    between atoms: C6_13  and  C7_14 
REMARK    8  A    between atoms: C7_14  and  C8_15 
REMARK    9  A    between atoms: C8_15  and  N4_16 
REMARK   10  A    between atoms: N4_16  and  C9_18 
REMARK   11  A    between atoms: C10_19  and  O2_20 
REMARK   12  A    between atoms: C11_22  and  O3_23 
REMARK   13  A    between atoms: C12_25  and  O4_26 
REMARK   14  A    between atoms: C13_28  and  N5_29 
REMARK   15  A    between atoms: C13_28  and  O5_34 
REMARK   16  A    between atoms: O5_34  and  N8_35 
REMARK   17  A    between atoms: N8_35  and  O6_36 
REMARK   18  A    between atoms: N9_38  and  N10_39 
ROOT
HETATM    1  C9  UNL     1      34.337  50.513  17.946  1.00  0.00     0.113 C 
HETATM    2  C10 UNL     1      33.934  49.071  17.896  1.00  0.00     0.213 C 
HETATM    3  C11 UNL     1      34.093  48.440  19.272  1.00  0.00     0.189 C 
HETATM    4  C12 UNL     1      33.623  49.307  20.394  1.00  0.00     0.225 C 
HETATM    5  C13 UNL     1      34.156  50.721  20.278  1.00  0.00     0.271 C 
HETATM    6  N9  UNL     1      33.664  51.265  19.010  1.00  0.00    -0.130 NA
ENDROOT
BRANCH   1   7
HETATM    7  N4  UNL     1      34.422  51.232  16.748  1.00  0.00    -0.360 N 
ATOM      8  H4  UNL     1      33.617  51.813  16.511  1.00  0.00     0.165 HD
BRANCH   7   9
HETATM    9  C8  UNL     1      35.463  51.246  15.861  1.00  0.00     0.064 C 
BRANCH   9  10
HETATM   10  C7  UNL     1      35.255  51.159  14.381  1.00  0.00     0.071 C 
BRANCH  10  11
HETATM   11  C6  UNL     1      35.537  52.453  13.638  1.00  0.00     0.172 C 
BRANCH  11  12
HETATM   12  O1  UNL     1      36.692  53.036  14.070  1.00  0.00    -0.391 OA
BRANCH  12  13
HETATM   13  C5  UNL     1      36.790  54.355  13.692  1.00  0.00     0.167 C 
BRANCH  13  14
HETATM   14  C4  UNL     1      35.911  55.296  14.467  1.00  0.00     0.028 C 
BRANCH  14  15
HETATM   15  C3  UNL     1      36.349  55.426  15.902  1.00  0.00     0.022 C 
BRANCH  15  16
HETATM   16  C2  UNL     1      35.480  54.653  16.863  1.00  0.00     0.122 C 
BRANCH  16  17
HETATM   17  N3  UNL     1      35.866  54.994  18.209  1.00  0.00    -0.365 N 
HETATM   18  C1  UNL     1      35.806  54.046  19.246  1.00  0.00     0.181 C 
HETATM   19  N1  UNL     1      36.621  53.066  19.274  1.00  0.00    -0.374 N 
HETATM   20  N2  UNL     1      34.851  54.179  20.279  1.00  0.00    -0.064 NA
ATOM     21  H12 UNL     1      36.579  52.379  20.027  1.00  0.00     0.158 HD
ATOM     22  H11 UNL     1      37.311  52.970  18.529  1.00  0.00     0.158 HD
ATOM     23  H3  UNL     1      36.187  55.940  18.413  1.00  0.00     0.162 HD
ENDBRANCH  16  17
ENDBRANCH  15  16
ENDBRANCH  14  15
ENDBRANCH  13  14
ENDBRANCH  12  13
ENDBRANCH  11  12
ENDBRANCH  10  11
ENDBRANCH   9  10
ENDBRANCH   7   9
ENDBRANCH   1   7
BRANCH   2  24
HETATM   24  O2  UNL     1      34.933  48.434  17.102  1.00  0.00    -0.386 OA
ATOM     25  H2  UNL     1      34.997  47.551  17.447  1.00  0.00     0.210 HD
ENDBRANCH   2  24
BRANCH   6  26
HETATM   26  N10 UNL     1      32.301  51.094  19.009  1.00  0.00    -0.354 NA
ATOM     27 2H10 UNL     1      32.132  50.089  18.977  1.00  0.00     0.171 HD
ATOM     28 1H10 UNL     1      31.850  51.489  18.184  1.00  0.00     0.171 HD
ENDBRANCH   6  26
BRANCH   3  29
HETATM   29  O3  UNL     1      35.356  47.895  19.463  1.00  0.00    -0.390 OA
ATOM     30  H3  UNL     1      35.379  46.961  19.289  1.00  0.00     0.210 HD
ENDBRANCH   3  29
BRANCH   5  31
HETATM   31  N5  UNL     1      33.811  51.455  21.407  1.00  0.00    -0.317 N 
HETATM   32  C14 UNL     1      32.857  51.803  22.082  1.00  0.00     0.200 C 
HETATM   33  N6  UNL     1      33.080  52.630  23.244  1.00  0.00    -0.067 NA
HETATM   34  N7  UNL     1      31.522  51.450  21.806  1.00  0.00    -0.067 NA
ATOM     35  H5  UNL     1      34.661  51.842  21.818  1.00  0.00     0.166 HD
ENDBRANCH   5  31
BRANCH   5  36
HETATM   36  O5  UNL     1      35.569  50.659  20.246  1.00  0.00    -0.207 OA
BRANCH  36  37
HETATM   37  N8  UNL     1      36.063  50.708  21.475  1.00  0.00     0.068 NA
BRANCH  37  38
HETATM   38  O6  UNL     1      36.846  49.650  21.734  1.00  0.00    -0.271 OA
ATOM     39  H6  UNL     1      37.493  49.849  22.400  1.00  0.00     0.241 HD
ENDBRANCH  37  38
ENDBRANCH  36  37
ENDBRANCH   5  36
BRANCH   4  40
HETATM   40  O4  UNL     1      34.039  48.772  21.598  1.00  0.00    -0.386 OA
ATOM     41  H4  UNL     1      34.661  49.360  22.009  1.00  0.00     0.210 HD
ENDBRANCH   4  40
TORSDOF 18
ENDMDL
MODEL 3
REMARK VINA RESULT: -7.191718768      2.748      6.925
REMARK  18 active torsions:
REMARK  status: ('A' for Active; 'I' for Inactive)
REMARK       I    between atoms: C1_4  and  N3_6 
REMARK    1  A    between atoms: N3_6  and  C2_8 
REMARK    2  A    between atoms: C2_8  and  C3_9 
REMARK    3  A    between atoms: C3_9  and  C4_10 
REMARK    4  A    between atoms: C4_10  and  C5_11 
REMARK    5  A    between atoms: C5_11  and  O1_12 
REMARK    6  A    between atoms: O1_12  and  C6_13 
REMARK    7  A    between atoms: C6_13  and  C7_14 
REMARK    8  A    between atoms: C7_14  and  C8_15 
REMARK    9  A    between atoms: C8_15  and  N4_16 
REMARK   10  A    between atoms: N4_16  and  C9_18 
REMARK   11  A    between atoms: C10_19  and  O2_20 
REMARK   12  A    between atoms: C11_22  and  O3_23 
REMARK   13  A    between atoms: C12_25  and  O4_26 
REMARK   14  A    between atoms: C13_28  and  N5_29 
REMARK   15  A    between atoms: C13_28  and  O5_34 
REMARK   16  A    between atoms: O5_34  and  N8_35 
REMARK   17  A    between atoms: N8_35  and  O6_36 
REMARK   18  A    between atoms: N9_38  and  N10_39 
ROOT
HETATM    1  C9  UNL     1      35.982  52.403  16.434  1.00  0.00     0.113 C 
HETATM    2  C10 UNL     1      34.890  53.228  17.042  1.00  0.00     0.213 C 
HETATM    3  C11 UNL     1      35.313  54.690  17.095  1.00  0.00     0.189 C 
HETATM    4  C12 UNL     1      36.009  55.165  15.861  1.00  0.00     0.225 C 
HETATM    5  C13 UNL     1      37.095  54.205  15.418  1.00  0.00     0.271 C 
HETATM    6  N9  UNL     1      36.448  52.919  15.143  1.00  0.00    -0.130 NA
ENDROOT
BRANCH   1   7
HETATM    7  N4  UNL     1      35.861  51.008  16.445  1.00  0.00    -0.360 N 
ATOM      8  H4  UNL     1      36.606  50.492  16.913  1.00  0.00     0.165 HD
BRANCH   7   9
HETATM    9  C8  UNL     1      34.855  50.259  15.898  1.00  0.00     0.064 C 
BRANCH   9  10
HETATM   10  C7  UNL     1      34.285  49.058  16.586  1.00  0.00     0.071 C 
BRANCH  10  11
HETATM   11  C6  UNL     1      33.957  49.280  18.052  1.00  0.00     0.172 C 
BRANCH  11  12
HETATM   12  O1  UNL     1      33.301  50.459  18.244  1.00  0.00    -0.391 OA
BRANCH  12  13
HETATM   13  C5  UNL     1      32.196  50.321  19.052  1.00  0.00     0.167 C 
BRANCH  13  14
HETATM   14  C4  UNL     1      32.107  49.006  19.774  1.00  0.00     0.028 C 
BRANCH  14  15
HETATM   15  C3  UNL     1      32.290  49.163  21.260  1.00  0.00     0.022 C 
BRANCH  15  16
HETATM   16  C2  UNL     1      33.726  49.027  21.703  1.00  0.00     0.122 C 
BRANCH  16  17
HETATM   17  N3  UNL     1      34.229  50.333  22.043  1.00  0.00    -0.365 N 
HETATM   18  C1  UNL     1      33.386  51.320  22.584  1.00  0.00     0.181 C 
HETATM   19  N1  UNL     1      32.926  51.202  23.768  1.00  0.00    -0.374 N 
HETATM   20  N2  UNL     1      33.050  52.464  21.825  1.00  0.00    -0.064 NA
ATOM     21  H12 UNL     1      32.315  51.918  24.160  1.00  0.00     0.158 HD
ATOM     22  H11 UNL     1      33.168  50.376  24.315  1.00  0.00     0.158 HD
ATOM     23  H3  UNL     1      35.214  50.545  21.890  1.00  0.00     0.162 HD
ENDBRANCH  16  17
ENDBRANCH  15  16
ENDBRANCH  14  15
ENDBRANCH  13  14
ENDBRANCH  12  13
ENDBRANCH  11  12
ENDBRANCH  10  11
ENDBRANCH   9  10
ENDBRANCH   7   9
ENDBRANCH   1   7
BRANCH   2  24
HETATM   24  O2  UNL     1      34.841  52.828  18.410  1.00  0.00    -0.386 OA
ATOM     25  H2  UNL     1      33.932  52.603  18.569  1.00  0.00     0.210 HD
ENDBRANCH   2  24
BRANCH   6  26
HETATM   26  N10 UNL     1      35.422  53.173  14.265  1.00  0.00    -0.354 NA
ATOM     27 2H10 UNL     1      34.582  52.761  14.670  1.00  0.00     0.171 HD
ATOM     28 1H10 UNL     1      35.555  52.727  13.357  1.00  0.00     0.171 HD
ENDBRANCH   6  26
BRANCH   3  29
HETATM   29  O3  UNL     1      35.968  55.010  18.278  1.00  0.00    -0.390 OA
ATOM     30  H3  UNL     1      36.350  55.879  18.258  1.00  0.00     0.210 HD
ENDBRANCH   3  29
BRANCH   5  31
HETATM   31  N5  UNL     1      37.805  54.746  14.353  1.00  0.00    -0.317 N 
HETATM   32  C14 UNL     1      37.667  55.360  13.308  1.00  0.00     0.200 C 
HETATM   33  N6  UNL     1      38.834  55.693  12.527  1.00  0.00    -0.067 NA
HETATM   34  N7  UNL     1      36.424  55.778  12.796  1.00  0.00    -0.067 NA
ATOM     35  H5  UNL     1      38.798  54.565  14.497  1.00  0.00     0.166 HD
ENDBRANCH   5  31
BRANCH   5  36
HETATM   36  O5  UNL     1      38.010  54.051  16.485  1.00  0.00    -0.207 OA
BRANCH  36  37
HETATM   37  N8  UNL     1      39.255  54.040  16.030  1.00  0.00     0.068 NA
BRANCH  37  38
HETATM   38  O6  UNL     1      39.557  52.870  15.447  1.00  0.00    -0.271 OA
ATOM     39  H6  UNL     1      39.230  52.829  14.556  1.00  0.00     0.241 HD
ENDBRANCH  37  38
ENDBRANCH  36  37
ENDBRANCH   5  36
BRANCH   4  40
HETATM   40  O4  UNL     1      36.576  56.401  16.097  1.00  0.00    -0.386 OA
ATOM     41  H4  UNL     1      36.096  57.068  15.620  1.00  0.00     0.210 HD
ENDBRANCH   4  40
TORSDOF 18
ENDMDL
MODEL 4
REMARK VINA RESULT: -7.191305529      2.939      7.479
REMARK  18 active torsions:
REMARK  status: ('A' for Active; 'I' for Inactive)
REMARK       I    between atoms: C1_4  and  N3_6 
REMARK    1  A    between atoms: N3_6  and  C2_8 
REMARK    2  A    between atoms: C2_8  and  C3_9 
REMARK    3  A    between atoms: C3_9  and  C4_10 
REMARK    4  A    between atoms: C4_10  and  C5_11 
REMARK    5  A    between atoms: C5_11  and  O1_12 
REMARK    6  A    between atoms: O1_12  and  C6_13 
REMARK    7  A    between atoms: C6_13  and  C7_14 
REMARK    8  A    between atoms: C7_14  and  C8_15 
REMARK    9  A    between atoms: C8_15  and  N4_16 
REMARK   10  A    between atoms: N4_16  and  C9_18 
REMARK   11  A    between atoms: C10_19  and  O2_20 
REMARK   12  A    between atoms: C11_22  and  O3_23 
REMARK   13  A    between atoms: C12_25  and  O4_26 
REMARK   14  A    between atoms: C13_28  and  N5_29 
REMARK   15  A    between atoms: C13_28  and  O5_34 
REMARK   16  A    between atoms: O5_34  and  N8_35 
REMARK   17  A    between atoms: N8_35  and  O6_36 
REMARK   18  A    between atoms: N9_38  and  N10_39 
ROOT
HETATM    1  C9  UNL     1      37.298  55.380  17.835  1.00  0.00     0.113 C 
HETATM    2  C10 UNL     1      37.324  56.870  17.681  1.00  0.00     0.213 C 
HETATM    3  C11 UNL     1      37.891  57.240  16.317  1.00  0.00     0.189 C 
HETATM    4  C12 UNL     1      37.390  56.383  15.200  1.00  0.00     0.225 C 
HETATM    5  C13 UNL     1      37.466  54.908  15.541  1.00  0.00     0.271 C 
HETATM    6  N9  UNL     1      36.629  54.695  16.725  1.00  0.00    -0.130 NA
ENDROOT
BRANCH   1   7
HETATM    7  N4  UNL     1      36.966  54.836  19.082  1.00  0.00    -0.360 N 
ATOM      8  H4  UNL     1      37.225  55.388  19.900  1.00  0.00     0.165 HD
BRANCH   7   9
HETATM    9  C8  UNL     1      36.335  53.647  19.326  1.00  0.00     0.064 C 
BRANCH   9  10
HETATM   10  C7  UNL     1      34.933  53.576  19.847  1.00  0.00     0.071 C 
BRANCH  10  11
HETATM   11  C6  UNL     1      34.445  52.165  20.123  1.00  0.00     0.172 C 
BRANCH  11  12
HETATM   12  O1  UNL     1      33.380  51.842  19.336  1.00  0.00    -0.391 OA
BRANCH  12  13
HETATM   13  C5  UNL     1      32.564  50.897  19.915  1.00  0.00     0.167 C 
BRANCH  13  14
HETATM   14  C4  UNL     1      32.206  49.744  19.020  1.00  0.00     0.028 C 
BRANCH  14  15
HETATM   15  C3  UNL     1      33.421  48.976  18.574  1.00  0.00     0.022 C 
BRANCH  15  16
HETATM   16  C2  UNL     1      33.872  49.329  17.179  1.00  0.00     0.122 C 
BRANCH  16  17
HETATM   17  N3  UNL     1      35.088  50.097  17.268  1.00  0.00    -0.365 N 
HETATM   18  C1  UNL     1      35.334  51.175  16.399  1.00  0.00     0.181 C 
HETATM   19  N1  UNL     1      34.659  52.253  16.499  1.00  0.00    -0.374 N 
HETATM   20  N2  UNL     1      36.343  51.082  15.414  1.00  0.00    -0.064 NA
ATOM     21  H12 UNL     1      34.838  53.035  15.869  1.00  0.00     0.158 HD
ATOM     22  H11 UNL     1      33.931  52.321  17.209  1.00  0.00     0.158 HD
ATOM     23  H3  UNL     1      35.783  49.854  17.973  1.00  0.00     0.162 HD
ENDBRANCH  16  17
ENDBRANCH  15  16
ENDBRANCH  14  15
ENDBRANCH  13  14
ENDBRANCH  12  13
ENDBRANCH  11  12
ENDBRANCH  10  11
ENDBRANCH   9  10
ENDBRANCH   7   9
ENDBRANCH   1   7
BRANCH   2  24
HETATM   24  O2  UNL     1      38.314  57.320  18.604  1.00  0.00    -0.386 OA
ATOM     25  H2  UNL     1      37.860  57.393  19.436  1.00  0.00     0.210 HD
ENDBRANCH   2  24
BRANCH   6  26
HETATM   26  N10 UNL     1      35.394  55.221  16.435  1.00  0.00    -0.354 NA
ATOM     27 2H10 UNL     1      34.938  55.407  17.328  1.00  0.00     0.171 HD
ATOM     28 1H10 UNL     1      34.790  54.570  15.932  1.00  0.00     0.171 HD
ENDBRANCH   6  26
BRANCH   3  29
HETATM   29  O3  UNL     1      39.270  57.397  16.340  1.00  0.00    -0.390 OA
ATOM     30  H3  UNL     1      39.732  56.591  16.144  1.00  0.00     0.210 HD
ENDBRANCH   3  29
BRANCH   5  31
HETATM   31  N5  UNL     1      37.121  54.144  14.431  1.00  0.00    -0.317 N 
HETATM   32  C14 UNL     1      36.331  54.082  13.505  1.00  0.00     0.200 C 
HETATM   33  N6  UNL     1      36.429  52.989  12.567  1.00  0.00    -0.067 NA
HETATM   34  N7  UNL     1      35.307  55.021  13.276  1.00  0.00    -0.067 NA
ATOM     35  H5  UNL     1      37.758  53.349  14.372  1.00  0.00     0.166 HD
ENDBRANCH   5  31
BRANCH   5  36
HETATM   36  O5  UNL     1      38.809  54.595  15.853  1.00  0.00    -0.207 OA
BRANCH  36  37
HETATM   37  N8  UNL     1      39.106  53.370  15.443  1.00  0.00     0.068 NA
BRANCH  37  38
HETATM   38  O6  UNL     1      38.731  52.445  16.339  1.00  0.00    -0.271 OA
ATOM     39  H6  UNL     1      39.237  51.647  16.250  1.00  0.00     0.241 HD
ENDBRANCH  37  38
ENDBRANCH  36  37
ENDBRANCH   5  36
BRANCH   4  40
HETATM   40  O4  UNL     1      38.141  56.617  14.065  1.00  0.00    -0.386 OA
ATOM     41  H4  UNL     1      37.563  56.806  13.335  1.00  0.00     0.210 HD
ENDBRANCH   4  40
TORSDOF 18
ENDMDL
MODEL 5
REMARK VINA RESULT: -7.175101431      2.707      6.474
REMARK  18 active torsions:
REMARK  status: ('A' for Active; 'I' for Inactive)
REMARK       I    between atoms: C1_4  and  N3_6 
REMARK    1  A    between atoms: N3_6  and  C2_8 
REMARK    2  A    between atoms: C2_8  and  C3_9 
REMARK    3  A    between atoms: C3_9  and  C4_10 
REMARK    4  A    between atoms: C4_10  and  C5_11 
REMARK    5  A    between atoms: C5_11  and  O1_12 
REMARK    6  A    between atoms: O1_12  and  C6_13 
REMARK    7  A    between atoms: C6_13  and  C7_14 
REMARK    8  A    between atoms: C7_14  and  C8_15 
REMARK    9  A    between atoms: C8_15  and  N4_16 
REMARK   10  A    between atoms: N4_16  and  C9_18 
REMARK   11  A    between atoms: C10_19  and  O2_20 
REMARK   12  A    between atoms: C11_22  and  O3_23 
REMARK   13  A    between atoms: C12_25  and  O4_26 
REMARK   14  A    between atoms: C13_28  and  N5_29 
REMARK   15  A    between atoms: C13_28  and  O5_34 
REMARK   16  A    between atoms: O5_34  and  N8_35 
REMARK   17  A    between atoms: N8_35  and  O6_36 
REMARK   18  A    between atoms: N9_38  and  N10_39 
ROOT
HETATM    1  C9  UNL     1      35.971  52.187  16.821  1.00  0.00     0.113 C 
HETATM    2  C10 UNL     1      34.750  53.038  16.657  1.00  0.00     0.213 C 
HETATM    3  C11 UNL     1      35.069  54.480  17.026  1.00  0.00     0.189 C 
HETATM    4  C12 UNL     1      36.387  54.960  16.510  1.00  0.00     0.225 C 
HETATM    5  C13 UNL     1      37.500  53.971  16.793  1.00  0.00     0.271 C 
HETATM    6  N9  UNL     1      37.145  52.718  16.120  1.00  0.00    -0.130 NA
ENDROOT
BRANCH   1   7
HETATM    7  N4  UNL     1      35.850  50.799  16.692  1.00  0.00    -0.360 N 
ATOM      8  H4  UNL     1      36.587  50.238  17.119  1.00  0.00     0.165 HD
BRANCH   7   9
HETATM    9  C8  UNL     1      34.853  50.109  16.057  1.00  0.00     0.064 C 
BRANCH   9  10
HETATM   10  C7  UNL     1      34.321  48.810  16.577  1.00  0.00     0.071 C 
BRANCH  10  11
HETATM   11  C6  UNL     1      33.835  48.869  18.014  1.00  0.00     0.172 C 
BRANCH  11  12
HETATM   12  O1  UNL     1      33.211  50.051  18.283  1.00  0.00    -0.391 OA
BRANCH  12  13
HETATM   13  C5  UNL     1      32.194  49.915  19.199  1.00  0.00     0.167 C 
BRANCH  13  14
HETATM   14  C4  UNL     1      32.326  48.726  20.110  1.00  0.00     0.028 C 
BRANCH  14  15
HETATM   15  C3  UNL     1      32.441  49.131  21.555  1.00  0.00     0.022 C 
BRANCH  15  16
HETATM   16  C2  UNL     1      32.843  50.573  21.741  1.00  0.00     0.122 C 
BRANCH  16  17
HETATM   17  N3  UNL     1      34.239  50.620  22.092  1.00  0.00    -0.365 N 
HETATM   18  C1  UNL     1      35.241  50.464  21.118  1.00  0.00     0.181 C 
HETATM   19  N1  UNL     1      35.443  51.372  20.246  1.00  0.00    -0.374 N 
HETATM   20  N2  UNL     1      36.048  49.304  21.104  1.00  0.00    -0.064 NA
ATOM     21  H12 UNL     1      36.169  51.260  19.539  1.00  0.00     0.158 HD
ATOM     22  H11 UNL     1      34.861  52.210  20.255  1.00  0.00     0.158 HD
ATOM     23  H3  UNL     1      34.506  50.769  23.065  1.00  0.00     0.162 HD
ENDBRANCH  16  17
ENDBRANCH  15  16
ENDBRANCH  14  15
ENDBRANCH  13  14
ENDBRANCH  12  13
ENDBRANCH  11  12
ENDBRANCH  10  11
ENDBRANCH   9  10
ENDBRANCH   7   9
ENDBRANCH   1   7
BRANCH   2  24
HETATM   24  O2  UNL     1      33.857  52.605  17.682  1.00  0.00    -0.386 OA
ATOM     25  H2  UNL     1      33.039  52.421  17.234  1.00  0.00     0.210 HD
ENDBRANCH   2  24
BRANCH   6  26
HETATM   26  N10 UNL     1      36.889  53.034  14.808  1.00  0.00    -0.354 NA
ATOM     27 2H10 UNL     1      36.863  52.153  14.294  1.00  0.00     0.171 HD
ATOM     28 1H10 UNL     1      37.626  53.596  14.381  1.00  0.00     0.171 HD
ENDBRANCH   6  26
BRANCH   3  29
HETATM   29  O3  UNL     1      34.854  54.744  18.372  1.00  0.00    -0.390 OA
ATOM     30  H3  UNL     1      34.186  54.185  18.750  1.00  0.00     0.210 HD
ENDBRANCH   3  29
BRANCH   5  31
HETATM   31  N5  UNL     1      38.725  54.511  16.422  1.00  0.00    -0.317 N 
HETATM   32  C14 UNL     1      39.329  54.983  15.473  1.00  0.00     0.200 C 
HETATM   33  N6  UNL     1      40.691  55.425  15.654  1.00  0.00    -0.067 NA
HETATM   34  N7  UNL     1      38.783  55.132  14.184  1.00  0.00    -0.067 NA
ATOM     35  H5  UNL     1      39.341  54.515  17.235  1.00  0.00     0.166 HD
ENDBRANCH   5  31
BRANCH   5  36
HETATM   36  O5  UNL     1      37.553  53.753  18.189  1.00  0.00    -0.207 OA
BRANCH  36  37
HETATM   37  N8  UNL     1      38.077  54.806  18.802  1.00  0.00     0.068 NA
BRANCH  37  38
HETATM   38  O6  UNL     1      37.268  55.269  19.766  1.00  0.00    -0.271 OA
ATOM     39  H6  UNL     1      37.587  56.087  20.127  1.00  0.00     0.241 HD
ENDBRANCH  37  38
ENDBRANCH  36  37
ENDBRANCH   5  36
BRANCH   4  40
HETATM   40  O4  UNL     1      36.704  56.167  17.101  1.00  0.00    -0.386 OA
ATOM     41  H4  UNL     1      36.660  56.079  18.046  1.00  0.00     0.210 HD
ENDBRANCH   4  40
TORSDOF 18
ENDMDL
