MODEL 1
REMARK VINA RESULT: -8.035238305      0.000      0.000
REMARK  18 active torsions:
REMARK  status: ('A' for Active; 'I' for Inactive)
REMARK    1  A    between atoms: N1_2  and  N2_3 
REMARK    2  A    between atoms: N2_3  and  C2_4 
REMARK    3  A    between atoms: C2_4  and  C3_5 
REMARK    4  A    between atoms: C3_5  and  C4_6 
REMARK    5  A    between atoms: C4_6  and  C5_7 
REMARK    6  A    between atoms: C4_6  and  N4_12 
REMARK    7  A    between atoms: C5_7  and  N3_8 
REMARK    8  A    between atoms: N4_12  and  C6_14 
REMARK    9  A    between atoms: C6_14  and  C7_15 
REMARK   10  A    between atoms: C8_17  and  C9_18 
REMARK   11  A    between atoms: C9_18  and  N5_19 
REMARK   12  A    between atoms: N5_19  and  C10_22 
REMARK   13  A    between atoms: C11_23  and  N6_24 
REMARK   14  A    between atoms: C12_28  and  O2_29 
REMARK   15  A    between atoms: C13_31  and  O3_32 
REMARK   16  A    between atoms: C14_34  and  N7_35 
REMARK   17  A    between atoms: C15_39  and  O4_40 
REMARK   18  A    between atoms: C16_42  and  N8_43 
ROOT
HETATM    1  C9  UNL     1      34.649  50.478  17.557  1.00  0.00     0.266 C 
ENDROOT
BRANCH   1   2
HETATM    2  C8  UNL     1      35.250  51.723  16.983  1.00  0.00     0.172 C 
HETATM    3  O1  UNL     1      36.427  52.169  17.648  1.00  0.00    -0.373 OA
HETATM    4  C7  UNL     1      36.790  52.710  16.397  1.00  0.00     0.164 C 
HETATM    5  C16 UNL     1      36.140  51.536  15.762  1.00  0.00     0.143 C 
BRANCH   4   6
HETATM    6  C6  UNL     1      38.257  52.936  16.233  1.00  0.00     0.148 C 
BRANCH   6   7
HETATM    7  N4  UNL     1      38.627  54.203  16.787  1.00  0.00    -0.413 N 
ATOM      8  H4  UNL     1      39.367  54.296  17.483  1.00  0.00     0.153 HD
BRANCH   7   9
HETATM    9  C4  UNL     1      37.889  55.339  16.299  1.00  0.00     0.103 C 
BRANCH   9  10
HETATM   10  C3  UNL     1      38.511  55.841  15.047  1.00  0.00     0.043 C 
BRANCH  10  11
HETATM   11  C2  UNL     1      39.867  56.483  15.224  1.00  0.00     0.132 C 
BRANCH  11  12
HETATM   12  N2  UNL     1      40.911  55.591  15.598  1.00  0.00    -0.149 NA
BRANCH  12  13
HETATM   13  N1  UNL     1      42.051  56.346  15.890  1.00  0.00    -0.153 NA
HETATM   14  C1  UNL     1      42.490  57.118  14.742  1.00  0.00     0.154 C 
ENDBRANCH  12  13
ENDBRANCH  11  12
ENDBRANCH  10  11
ENDBRANCH   9  10
BRANCH   9  15
HETATM   15  C5  UNL     1      37.736  56.386  17.378  1.00  0.00     0.254 C 
BRANCH  15  16
HETATM   16  N3  UNL     1      37.041  55.920  18.536  1.00  0.00    -0.077 N 
ATOM     17  H33 UNL     1      37.423  55.027  18.850  1.00  0.00     0.274 HD
ATOM     18  H32 UNL     1      37.266  56.496  19.347  1.00  0.00     0.274 HD
ATOM     19  H31 UNL     1      36.031  55.855  18.409  1.00  0.00     0.274 HD
ENDBRANCH  15  16
ENDBRANCH   9  15
ENDBRANCH   7   9
ENDBRANCH   6   7
ENDBRANCH   4   6
BRANCH   5  20
HETATM   20  N8  UNL     1      35.375  51.869  14.568  1.00  0.00    -0.378 N 
HETATM   21  C17 UNL     1      35.251  51.034  13.595  1.00  0.00     0.185 C 
HETATM   22  N9  UNL     1      34.506  51.366  12.440  1.00  0.00    -0.097 NA
ATOM     23  H8  UNL     1      34.928  52.783  14.500  1.00  0.00     0.160 HD
ENDBRANCH   5  20
ENDBRANCH   1   2
BRANCH   1  24
HETATM   24  N5  UNL     1      34.857  50.389  18.960  1.00  0.00    -0.064 N 
ATOM     25  H52 UNL     1      35.119  49.440  19.225  1.00  0.00     0.277 HD
ATOM     26  H51 UNL     1      35.708  50.883  19.229  1.00  0.00     0.277 HD
BRANCH  24  27
HETATM   27  C10 UNL     1      33.724  50.849  19.752  1.00  0.00     0.249 C 
HETATM   28  C11 UNL     1      34.192  51.939  20.664  1.00  0.00     0.247 C 
HETATM   29  C12 UNL     1      32.968  52.343  21.491  1.00  0.00     0.181 C 
HETATM   30  C13 UNL     1      32.689  51.180  22.406  1.00  0.00     0.182 C 
HETATM   31  C14 UNL     1      32.367  49.913  21.678  1.00  0.00     0.245 C 
HETATM   32  C15 UNL     1      32.917  49.768  20.326  1.00  0.00     0.184 C 
BRANCH  28  33
HETATM   33  N6  UNL     1      34.522  53.117  19.861  1.00  0.00    -0.070 N 
ATOM     34  H63 UNL     1      35.045  52.879  19.018  1.00  0.00     0.274 HD
ATOM     35  H62 UNL     1      33.702  53.523  19.410  1.00  0.00     0.274 HD
ATOM     36  H61 UNL     1      35.016  53.787  20.450  1.00  0.00     0.274 HD
ENDBRANCH  28  33
BRANCH  29  37
HETATM   37  O2  UNL     1      33.235  53.452  22.297  1.00  0.00    -0.391 OA
ATOM     38  H2  UNL     1      33.951  53.284  22.899  1.00  0.00     0.210 HD
ENDBRANCH  29  37
BRANCH  30  39
HETATM   39  O3  UNL     1      33.807  51.009  23.224  1.00  0.00    -0.391 OA
ATOM     40  H3  UNL     1      33.614  51.414  24.061  1.00  0.00     0.210 HD
ENDBRANCH  30  39
BRANCH  31  41
HETATM   41  N7  UNL     1      32.790  48.811  22.551  1.00  0.00    -0.070 N 
ATOM     42  H73 UNL     1      32.099  48.064  22.621  1.00  0.00     0.274 HD
ATOM     43  H72 UNL     1      33.544  48.249  22.155  1.00  0.00     0.274 HD
ATOM     44  H71 UNL     1      33.026  49.228  23.452  1.00  0.00     0.274 HD
ENDBRANCH  31  41
BRANCH  32  45
HETATM   45  O4  UNL     1      31.885  49.450  19.402  1.00  0.00    -0.391 OA
ATOM     46  H4  UNL     1      32.048  48.576  19.067  1.00  0.00     0.210 HD
ENDBRANCH  32  45
ENDBRANCH  24  27
ENDBRANCH   1  24
TORSDOF 18
ENDMDL
MODEL 2
REMARK VINA RESULT: -7.868008956      1.811      2.678
REMARK  18 active torsions:
REMARK  status: ('A' for Active; 'I' for Inactive)
REMARK    1  A    between atoms: N1_2  and  N2_3 
REMARK    2  A    between atoms: N2_3  and  C2_4 
REMARK    3  A    between atoms: C2_4  and  C3_5 
REMARK    4  A    between atoms: C3_5  and  C4_6 
REMARK    5  A    between atoms: C4_6  and  C5_7 
REMARK    6  A    between atoms: C4_6  and  N4_12 
REMARK    7  A    between atoms: C5_7  and  N3_8 
REMARK    8  A    between atoms: N4_12  and  C6_14 
REMARK    9  A    between atoms: C6_14  and  C7_15 
REMARK   10  A    between atoms: C8_17  and  C9_18 
REMARK   11  A    between atoms: C9_18  and  N5_19 
REMARK   12  A    between atoms: N5_19  and  C10_22 
REMARK   13  A    between atoms: C11_23  and  N6_24 
REMARK   14  A    between atoms: C12_28  and  O2_29 
REMARK   15  A    between atoms: C13_31  and  O3_32 
REMARK   16  A    between atoms: C14_34  and  N7_35 
REMARK   17  A    between atoms: C15_39  and  O4_40 
REMARK   18  A    between atoms: C16_42  and  N8_43 
ROOT
HETATM    1  C9  UNL     1      35.545  52.139  19.953  1.00  0.00     0.266 C 
ENDROOT
BRANCH   1   2
HETATM    2  C8  UNL     1      35.442  53.244  18.949  1.00  0.00     0.172 C 
HETATM    3  O1  UNL     1      36.420  54.267  19.099  1.00  0.00    -0.373 OA
HETATM    4  C7  UNL     1      36.279  54.445  17.707  1.00  0.00     0.164 C 
HETATM    5  C16 UNL     1      36.082  52.979  17.594  1.00  0.00     0.143 C 
BRANCH   4   6
HETATM    6  C6  UNL     1      37.453  55.098  17.053  1.00  0.00     0.148 C 
BRANCH   6   7
HETATM    7  N4  UNL     1      37.126  56.441  16.680  1.00  0.00    -0.413 N 
ATOM      8  H4  UNL     1      36.581  57.055  17.285  1.00  0.00     0.153 HD
BRANCH   7   9
HETATM    9  C4  UNL     1      37.616  56.871  15.396  1.00  0.00     0.103 C 
BRANCH   9  10
HETATM   10  C3  UNL     1      38.945  57.516  15.557  1.00  0.00     0.043 C 
BRANCH  10  11
HETATM   11  C2  UNL     1      40.102  56.744  14.968  1.00  0.00     0.132 C 
BRANCH  11  12
HETATM   12  N2  UNL     1      40.802  55.913  15.888  1.00  0.00    -0.149 NA
BRANCH  12  13
HETATM   13  N1  UNL     1      42.148  56.289  15.883  1.00  0.00    -0.153 NA
HETATM   14  C1  UNL     1      42.485  57.060  14.701  1.00  0.00     0.154 C 
ENDBRANCH  12  13
ENDBRANCH  11  12
ENDBRANCH  10  11
ENDBRANCH   9  10
BRANCH   9  15
HETATM   15  C5  UNL     1      36.593  57.729  14.688  1.00  0.00     0.254 C 
BRANCH  15  16
HETATM   16  N3  UNL     1      35.251  57.263  14.838  1.00  0.00    -0.077 N 
ATOM     17  H33 UNL     1      35.201  56.256  14.686  1.00  0.00     0.274 HD
ATOM     18  H32 UNL     1      34.962  57.303  15.815  1.00  0.00     0.274 HD
ATOM     19  H31 UNL     1      34.580  57.750  14.245  1.00  0.00     0.274 HD
ENDBRANCH  15  16
ENDBRANCH   9  15
ENDBRANCH   7   9
ENDBRANCH   6   7
ENDBRANCH   4   6
BRANCH   5  20
HETATM   20  N8  UNL     1      35.040  52.601  16.648  1.00  0.00    -0.378 N 
HETATM   21  C17 UNL     1      35.254  51.727  15.726  1.00  0.00     0.185 C 
HETATM   22  N9  UNL     1      34.236  51.368  14.814  1.00  0.00    -0.097 NA
ATOM     23  H8  UNL     1      34.121  53.039  16.718  1.00  0.00     0.160 HD
ENDBRANCH   5  20
ENDBRANCH   1   2
BRANCH   1  24
HETATM   24  N5  UNL     1      35.607  50.863  19.331  1.00  0.00    -0.064 N 
ATOM     25  H52 UNL     1      35.520  50.951  18.319  1.00  0.00     0.277 HD
ATOM     26  H51 UNL     1      36.550  50.480  19.389  1.00  0.00     0.277 HD
BRANCH  24  27
HETATM   27  C10 UNL     1      34.634  49.909  19.848  1.00  0.00     0.249 C 
HETATM   28  C11 UNL     1      33.348  50.089  19.103  1.00  0.00     0.247 C 
HETATM   29  C12 UNL     1      32.365  49.092  19.723  1.00  0.00     0.181 C 
HETATM   30  C13 UNL     1      32.074  49.609  21.107  1.00  0.00     0.182 C 
HETATM   31  C14 UNL     1      33.285  49.681  21.982  1.00  0.00     0.245 C 
HETATM   32  C15 UNL     1      34.580  49.843  21.311  1.00  0.00     0.184 C 
BRANCH  28  33
HETATM   33  N6  UNL     1      33.536  49.642  17.723  1.00  0.00    -0.070 N 
ATOM     34  H63 UNL     1      33.638  50.420  17.071  1.00  0.00     0.274 HD
ATOM     35  H62 UNL     1      34.449  49.211  17.574  1.00  0.00     0.274 HD
ATOM     36  H61 UNL     1      32.767  49.021  17.472  1.00  0.00     0.274 HD
ENDBRANCH  28  33
BRANCH  29  37
HETATM   37  O2  UNL     1      31.155  49.063  19.026  1.00  0.00    -0.391 OA
ATOM     38  H2  UNL     1      30.620  48.322  19.286  1.00  0.00     0.210 HD
ENDBRANCH  29  37
BRANCH  30  39
HETATM   39  O3  UNL     1      31.486  50.867  20.972  1.00  0.00    -0.391 OA
ATOM     40  H3  UNL     1      31.740  51.384  21.727  1.00  0.00     0.210 HD
ENDBRANCH  30  39
BRANCH  31  41
HETATM   41  N7  UNL     1      33.041  50.761  22.946  1.00  0.00    -0.070 N 
ATOM     42  H73 UNL     1      32.691  51.616  22.513  1.00  0.00     0.274 HD
ATOM     43  H72 UNL     1      32.239  50.588  23.551  1.00  0.00     0.274 HD
ATOM     44  H71 UNL     1      33.913  50.896  23.458  1.00  0.00     0.274 HD
ENDBRANCH  31  41
BRANCH  32  45
HETATM   45  O4  UNL     1      35.491  48.841  21.741  1.00  0.00    -0.391 OA
ATOM     46  H4  UNL     1      36.257  49.273  22.101  1.00  0.00     0.210 HD
ENDBRANCH  32  45
ENDBRANCH  24  27
ENDBRANCH   1  24
TORSDOF 18
ENDMDL
MODEL 3
REMARK VINA RESULT: -7.747576753      1.183      1.875
REMARK  18 active torsions:
REMARK  status: ('A' for Active; 'I' for Inactive)
REMARK    1  A    between atoms: N1_2  and  N2_3 
REMARK    2  A    between atoms: N2_3  and  C2_4 
REMARK    3  A    between atoms: C2_4  and  C3_5 
REMARK    4  A    between atoms: C3_5  and  C4_6 
REMARK    5  A    between atoms: C4_6  and  C5_7 
REMARK    6  A    between atoms: C4_6  and  N4_12 
REMARK    7  A    between atoms: C5_7  and  N3_8 
REMARK    8  A    between atoms: N4_12  and  C6_14 
REMARK    9  A    between atoms: C6_14  and  C7_15 
REMARK   10  A    between atoms: C8_17  and  C9_18 
REMARK   11  A    between atoms: C9_18  and  N5_19 
REMARK   12  A    between atoms: N5_19  and  C10_22 
REMARK   13  A    between atoms: C11_23  and  N6_24 
REMARK   14  A    between atoms: C12_28  and  O2_29 
REMARK   15  A    between atoms: C13_31  and  O3_32 
REMARK   16  A    between atoms: C14_34  and  N7_35 
REMARK   17  A    between atoms: C15_39  and  O4_40 
REMARK   18  A    between atoms: C16_42  and  N8_43 
ROOT
HETATM    1  C9  UNL     1      34.668  50.643  17.562  1.00  0.00     0.266 C 
ENDROOT
BRANCH   1   2
HETATM    2  C8  UNL     1      35.337  51.855  16.993  1.00  0.00     0.172 C 
HETATM    3  O1  UNL     1      36.532  52.237  17.664  1.00  0.00    -0.373 OA
HETATM    4  C7  UNL     1      36.929  52.760  16.416  1.00  0.00     0.164 C 
HETATM    5  C16 UNL     1      36.221  51.624  15.776  1.00  0.00     0.143 C 
BRANCH   4   6
HETATM    6  C6  UNL     1      38.407  52.909  16.259  1.00  0.00     0.148 C 
BRANCH   6   7
HETATM    7  N4  UNL     1      38.834  54.175  16.773  1.00  0.00    -0.413 N 
ATOM      8  H4  UNL     1      39.662  54.271  17.361  1.00  0.00     0.153 HD
BRANCH   7   9
HETATM    9  C4  UNL     1      38.020  55.305  16.409  1.00  0.00     0.103 C 
BRANCH   9  10
HETATM   10  C3  UNL     1      38.698  56.089  15.344  1.00  0.00     0.043 C 
BRANCH  10  11
HETATM   11  C2  UNL     1      38.105  55.932  13.963  1.00  0.00     0.132 C 
BRANCH  11  12
HETATM   12  N2  UNL     1      38.300  54.656  13.366  1.00  0.00    -0.149 NA
BRANCH  12  13
HETATM   13  N1  UNL     1      37.053  54.160  12.973  1.00  0.00    -0.153 NA
HETATM   14  C1  UNL     1      36.005  55.148  13.147  1.00  0.00     0.154 C 
ENDBRANCH  12  13
ENDBRANCH  11  12
ENDBRANCH  10  11
ENDBRANCH   9  10
BRANCH   9  15
HETATM   15  C5  UNL     1      37.644  56.114  17.629  1.00  0.00     0.254 C 
BRANCH  15  16
HETATM   16  N3  UNL     1      36.686  55.471  18.471  1.00  0.00    -0.077 N 
ATOM     17  H33 UNL     1      36.579  55.981  19.348  1.00  0.00     0.274 HD
ATOM     18  H32 UNL     1      35.745  55.580  18.094  1.00  0.00     0.274 HD
ATOM     19  H31 UNL     1      36.891  54.488  18.649  1.00  0.00     0.274 HD
ENDBRANCH  15  16
ENDBRANCH   9  15
ENDBRANCH   7   9
ENDBRANCH   6   7
ENDBRANCH   4   6
BRANCH   5  20
HETATM   20  N8  UNL     1      35.480  51.998  14.579  1.00  0.00    -0.378 N 
HETATM   21  C17 UNL     1      35.088  51.114  13.727  1.00  0.00     0.185 C 
HETATM   22  N9  UNL     1      34.370  51.488  12.569  1.00  0.00    -0.097 NA
ATOM     23  H8  UNL     1      35.267  52.981  14.411  1.00  0.00     0.160 HD
ENDBRANCH   5  20
ENDBRANCH   1   2
BRANCH   1  24
HETATM   24  N5  UNL     1      34.881  50.530  18.963  1.00  0.00    -0.064 N 
ATOM     25  H52 UNL     1      35.161  49.581  19.209  1.00  0.00     0.277 HD
ATOM     26  H51 UNL     1      35.723  51.034  19.240  1.00  0.00     0.277 HD
BRANCH  24  27
HETATM   27  C10 UNL     1      33.742  50.954  19.766  1.00  0.00     0.249 C 
HETATM   28  C11 UNL     1      34.192  52.031  20.702  1.00  0.00     0.247 C 
HETATM   29  C12 UNL     1      32.963  52.396  21.539  1.00  0.00     0.181 C 
HETATM   30  C13 UNL     1      32.705  51.209  22.428  1.00  0.00     0.182 C 
HETATM   31  C14 UNL     1      32.404  49.953  21.673  1.00  0.00     0.245 C 
HETATM   32  C15 UNL     1      32.954  49.847  20.317  1.00  0.00     0.184 C 
BRANCH  28  33
HETATM   33  N6  UNL     1      34.501  53.232  19.924  1.00  0.00    -0.070 N 
ATOM     34  H63 UNL     1      35.456  53.229  19.565  1.00  0.00     0.274 HD
ATOM     35  H62 UNL     1      34.013  53.252  19.029  1.00  0.00     0.274 HD
ATOM     36  H61 UNL     1      34.302  54.053  20.495  1.00  0.00     0.274 HD
ENDBRANCH  28  33
BRANCH  29  37
HETATM   37  O2  UNL     1      33.212  53.492  22.368  1.00  0.00    -0.391 OA
ATOM     38  H2  UNL     1      32.972  54.310  21.948  1.00  0.00     0.210 HD
ENDBRANCH  29  37
BRANCH  30  39
HETATM   39  O3  UNL     1      33.827  51.040  23.241  1.00  0.00    -0.391 OA
ATOM     40  H3  UNL     1      33.631  50.347  23.860  1.00  0.00     0.210 HD
ENDBRANCH  30  39
BRANCH  31  41
HETATM   41  N7  UNL     1      32.846  48.839  22.521  1.00  0.00    -0.070 N 
ATOM     42  H73 UNL     1      32.098  48.443  23.089  1.00  0.00     0.274 HD
ATOM     43  H72 UNL     1      33.067  47.994  21.994  1.00  0.00     0.274 HD
ATOM     44  H71 UNL     1      33.630  49.188  23.073  1.00  0.00     0.274 HD
ENDBRANCH  31  41
BRANCH  32  45
HETATM   45  O4  UNL     1      31.926  49.532  19.388  1.00  0.00    -0.391 OA
ATOM     46  H4  UNL     1      31.266  49.019  19.840  1.00  0.00     0.210 HD
ENDBRANCH  32  45
ENDBRANCH  24  27
ENDBRANCH   1  24
TORSDOF 18
ENDMDL
MODEL 4
REMARK VINA RESULT: -7.664612795      2.030      2.835
REMARK  18 active torsions:
REMARK  status: ('A' for Active; 'I' for Inactive)
REMARK    1  A    between atoms: N1_2  and  N2_3 
REMARK    2  A    between atoms: N2_3  and  C2_4 
REMARK    3  A    between atoms: C2_4  and  C3_5 
REMARK    4  A    between atoms: C3_5  and  C4_6 
REMARK    5  A    between atoms: C4_6  and  C5_7 
REMARK    6  A    between atoms: C4_6  and  N4_12 
REMARK    7  A    between atoms: C5_7  and  N3_8 
REMARK    8  A    between atoms: N4_12  and  C6_14 
REMARK    9  A    between atoms: C6_14  and  C7_15 
REMARK   10  A    between atoms: C8_17  and  C9_18 
REMARK   11  A    between atoms: C9_18  and  N5_19 
REMARK   12  A    between atoms: N5_19  and  C10_22 
REMARK   13  A    between atoms: C11_23  and  N6_24 
REMARK   14  A    between atoms: C12_28  and  O2_29 
REMARK   15  A    between atoms: C13_31  and  O3_32 
REMARK   16  A    between atoms: C14_34  and  N7_35 
REMARK   17  A    between atoms: C15_39  and  O4_40 
REMARK   18  A    between atoms: C16_42  and  N8_43 
ROOT
HETATM    1  C9  UNL     1      35.110  50.655  15.514  1.00  0.00     0.266 C 
ENDROOT
BRANCH   1   2
HETATM    2  C8  UNL     1      34.857  51.772  14.551  1.00  0.00     0.172 C 
HETATM    3  O1  UNL     1      35.588  52.962  14.825  1.00  0.00    -0.373 OA
HETATM    4  C7  UNL     1      35.519  53.188  13.434  1.00  0.00     0.164 C 
HETATM    5  C16 UNL     1      35.638  51.721  13.245  1.00  0.00     0.143 C 
BRANCH   4   6
HETATM    6  C6  UNL     1      36.578  54.101  12.911  1.00  0.00     0.148 C 
BRANCH   6   7
HETATM    7  N4  UNL     1      36.190  55.467  13.099  1.00  0.00    -0.413 N 
ATOM      8  H4  UNL     1      35.279  55.818  12.803  1.00  0.00     0.153 HD
BRANCH   7   9
HETATM    9  C4  UNL     1      37.167  56.314  13.732  1.00  0.00     0.103 C 
BRANCH   9  10
HETATM   10  C3  UNL     1      38.467  55.600  13.820  1.00  0.00     0.043 C 
BRANCH  10  11
HETATM   11  C2  UNL     1      39.259  55.873  15.076  1.00  0.00     0.132 C 
BRANCH  11  12
HETATM   12  N2  UNL     1      40.025  54.774  15.557  1.00  0.00    -0.149 NA
BRANCH  12  13
HETATM   13  N1  UNL     1      39.299  53.601  15.329  1.00  0.00    -0.153 NA
HETATM   14  C1  UNL     1      38.567  53.185  16.511  1.00  0.00     0.154 C 
ENDBRANCH  12  13
ENDBRANCH  11  12
ENDBRANCH  10  11
ENDBRANCH   9  10
BRANCH   9  15
HETATM   15  C5  UNL     1      36.654  56.831  15.056  1.00  0.00     0.254 C 
BRANCH  15  16
HETATM   16  N3  UNL     1      35.525  56.111  15.555  1.00  0.00    -0.077 N 
ATOM     17  H33 UNL     1      34.791  56.060  14.849  1.00  0.00     0.274 HD
ATOM     18  H32 UNL     1      35.743  55.119  15.648  1.00  0.00     0.274 HD
ATOM     19  H31 UNL     1      35.157  56.483  16.430  1.00  0.00     0.274 HD
ENDBRANCH  15  16
ENDBRANCH   9  15
ENDBRANCH   7   9
ENDBRANCH   6   7
ENDBRANCH   4   6
BRANCH   5  20
HETATM   20  N8  UNL     1      34.771  51.195  12.200  1.00  0.00    -0.378 N 
HETATM   21  C17 UNL     1      35.152  50.234  11.430  1.00  0.00     0.185 C 
HETATM   22  N9  UNL     1      34.302  49.732  10.419  1.00  0.00    -0.097 NA
ATOM     23  H8  UNL     1      33.842  51.597  12.073  1.00  0.00     0.160 HD
ENDBRANCH   5  20
ENDBRANCH   1   2
BRANCH   1  24
HETATM   24  N5  UNL     1      35.706  51.120  16.718  1.00  0.00    -0.064 N 
ATOM     25  H52 UNL     1      36.491  50.526  16.983  1.00  0.00     0.277 HD
ATOM     26  H51 UNL     1      36.201  51.997  16.559  1.00  0.00     0.277 HD
BRANCH  24  27
HETATM   27  C10 UNL     1      34.768  51.254  17.824  1.00  0.00     0.249 C 
HETATM   28  C11 UNL     1      35.202  52.401  18.682  1.00  0.00     0.247 C 
HETATM   29  C12 UNL     1      34.202  52.456  19.840  1.00  0.00     0.181 C 
HETATM   30  C13 UNL     1      34.477  51.235  20.678  1.00  0.00     0.182 C 
HETATM   31  C14 UNL     1      34.272  49.949  19.941  1.00  0.00     0.245 C 
HETATM   32  C15 UNL     1      34.435  49.987  18.484  1.00  0.00     0.184 C 
BRANCH  28  33
HETATM   33  N6  UNL     1      35.003  53.646  17.939  1.00  0.00    -0.070 N 
ATOM     34  H63 UNL     1      34.729  54.421  18.544  1.00  0.00     0.274 HD
ATOM     35  H62 UNL     1      35.879  54.038  17.594  1.00  0.00     0.274 HD
ATOM     36  H61 UNL     1      34.330  53.478  17.192  1.00  0.00     0.274 HD
ENDBRANCH  28  33
BRANCH  29  37
HETATM   37  O2  UNL     1      34.415  53.574  20.651  1.00  0.00    -0.391 OA
ATOM     38  H2  UNL     1      33.596  53.948  20.952  1.00  0.00     0.210 HD
ENDBRANCH  29  37
BRANCH  30  39
HETATM   39  O3  UNL     1      35.787  51.332  21.147  1.00  0.00    -0.391 OA
ATOM     40  H3  UNL     1      36.342  50.845  20.551  1.00  0.00     0.210 HD
ENDBRANCH  30  39
BRANCH  31  41
HETATM   41  N7  UNL     1      35.173  48.967  20.557  1.00  0.00    -0.070 N 
ATOM     42  H73 UNL     1      35.576  48.313  19.886  1.00  0.00     0.274 HD
ATOM     43  H72 UNL     1      36.050  49.372  20.883  1.00  0.00     0.274 HD
ATOM     44  H71 UNL     1      34.640  48.509  21.297  1.00  0.00     0.274 HD
ENDBRANCH  31  41
BRANCH  32  45
HETATM   45  O4  UNL     1      33.290  49.443  17.842  1.00  0.00    -0.391 OA
ATOM     46  H4  UNL     1      33.543  49.175  16.966  1.00  0.00     0.210 HD
ENDBRANCH  32  45
ENDBRANCH  24  27
ENDBRANCH   1  24
TORSDOF 18
ENDMDL
MODEL 5
REMARK VINA RESULT: -7.637760967      1.952      3.238
REMARK  18 active torsions:
REMARK  status: ('A' for Active; 'I' for Inactive)
REMARK    1  A    between atoms: N1_2  and  N2_3 
REMARK    2  A    between atoms: N2_3  and  C2_4 
REMARK    3  A    between atoms: C2_4  and  C3_5 
REMARK    4  A    between atoms: C3_5  and  C4_6 
REMARK    5  A    between atoms: C4_6  and  C5_7 
REMARK    6  A    between atoms: C4_6  and  N4_12 
REMARK    7  A    between atoms: C5_7  and  N3_8 
REMARK    8  A    between atoms: N4_12  and  C6_14 
REMARK    9  A    between atoms: C6_14  and  C7_15 
REMARK   10  A    between atoms: C8_17  and  C9_18 
REMARK   11  A    between atoms: C9_18  and  N5_19 
REMARK   12  A    between atoms: N5_19  and  C10_22 
REMARK   13  A    between atoms: C11_23  and  N6_24 
REMARK   14  A    between atoms: C12_28  and  O2_29 
REMARK   15  A    between atoms: C13_31  and  O3_32 
REMARK   16  A    between atoms: C14_34  and  N7_35 
REMARK   17  A    between atoms: C15_39  and  O4_40 
REMARK   18  A    between atoms: C16_42  and  N8_43 
ROOT
HETATM    1  C9  UNL     1      35.412  52.147  19.490  1.00  0.00     0.266 C 
ENDROOT
BRANCH   1   2
HETATM    2  C8  UNL     1      35.945  52.966  18.356  1.00  0.00     0.172 C 
HETATM    3  O1  UNL     1      37.322  53.306  18.472  1.00  0.00    -0.373 OA
HETATM    4  C7  UNL     1      37.318  53.321  17.062  1.00  0.00     0.164 C 
HETATM    5  C16 UNL     1      36.349  52.197  17.106  1.00  0.00     0.143 C 
BRANCH   4   6
HETATM    6  C6  UNL     1      38.665  53.127  16.446  1.00  0.00     0.148 C 
BRANCH   6   7
HETATM    7  N4  UNL     1      39.166  54.373  15.951  1.00  0.00    -0.413 N 
ATOM      8  H4  UNL     1      40.160  54.603  15.967  1.00  0.00     0.153 HD
BRANCH   7   9
HETATM    9  C4  UNL     1      38.179  55.282  15.430  1.00  0.00     0.103 C 
BRANCH   9  10
HETATM   10  C3  UNL     1      38.071  55.115  13.958  1.00  0.00     0.043 C 
BRANCH  10  11
HETATM   11  C2  UNL     1      36.814  54.423  13.487  1.00  0.00     0.132 C 
BRANCH  11  12
HETATM   12  N2  UNL     1      35.608  54.902  14.072  1.00  0.00    -0.149 NA
BRANCH  12  13
HETATM   13  N1  UNL     1      35.062  55.869  13.223  1.00  0.00    -0.153 NA
HETATM   14  C1  UNL     1      35.095  57.190  13.825  1.00  0.00     0.154 C 
ENDBRANCH  12  13
ENDBRANCH  11  12
ENDBRANCH  10  11
ENDBRANCH   9  10
BRANCH   9  15
HETATM   15  C5  UNL     1      38.464  56.699  15.873  1.00  0.00     0.254 C 
BRANCH  15  16
HETATM   16  N3  UNL     1      37.526  57.203  16.825  1.00  0.00    -0.077 N 
ATOM     17  H33 UNL     1      36.879  57.854  16.382  1.00  0.00     0.274 HD
ATOM     18  H32 UNL     1      36.870  56.473  17.105  1.00  0.00     0.274 HD
ATOM     19  H31 UNL     1      37.961  57.628  17.644  1.00  0.00     0.274 HD
ENDBRANCH  15  16
ENDBRANCH   9  15
ENDBRANCH   7   9
ENDBRANCH   6   7
ENDBRANCH   4   6
BRANCH   5  20
HETATM   20  N8  UNL     1      35.282  52.308  16.121  1.00  0.00    -0.378 N 
HETATM   21  C17 UNL     1      35.092  51.396  15.231  1.00  0.00     0.185 C 
HETATM   22  N9  UNL     1      34.054  51.513  14.279  1.00  0.00    -0.097 NA
ATOM     23  H8  UNL     1      34.673  53.126  16.135  1.00  0.00     0.160 HD
ENDBRANCH   5  20
ENDBRANCH   1   2
BRANCH   1  24
HETATM   24  N5  UNL     1      35.689  50.764  19.319  1.00  0.00    -0.064 N 
ATOM     25  H52 UNL     1      35.853  50.549  18.336  1.00  0.00     0.277 HD
ATOM     26  H51 UNL     1      36.606  50.532  19.700  1.00  0.00     0.277 HD
BRANCH  24  27
HETATM   27  C10 UNL     1      34.667  49.887  19.873  1.00  0.00     0.249 C 
HETATM   28  C11 UNL     1      33.400  50.084  19.100  1.00  0.00     0.247 C 
HETATM   29  C12 UNL     1      32.364  49.169  19.758  1.00  0.00     0.181 C 
HETATM   30  C13 UNL     1      32.080  49.775  21.107  1.00  0.00     0.182 C 
HETATM   31  C14 UNL     1      33.281  49.840  21.995  1.00  0.00     0.245 C 
HETATM   32  C15 UNL     1      34.591  49.905  21.337  1.00  0.00     0.184 C 
BRANCH  28  33
HETATM   33  N6  UNL     1      33.584  49.551  17.749  1.00  0.00    -0.070 N 
ATOM     34  H63 UNL     1      32.802  48.968  17.450  1.00  0.00     0.274 HD
ATOM     35  H62 UNL     1      33.506  50.272  17.032  1.00  0.00     0.274 HD
ATOM     36  H61 UNL     1      34.476  49.058  17.711  1.00  0.00     0.274 HD
ENDBRANCH  28  33
BRANCH  29  37
HETATM   37  O2  UNL     1      31.162  49.156  19.046  1.00  0.00    -0.391 OA
ATOM     38  H2  UNL     1      30.416  49.039  19.621  1.00  0.00     0.210 HD
ENDBRANCH  29  37
BRANCH  30  39
HETATM   39  O3  UNL     1      31.553  51.049  20.894  1.00  0.00    -0.391 OA
ATOM     40  H3  UNL     1      32.246  51.589  20.532  1.00  0.00     0.210 HD
ENDBRANCH  30  39
BRANCH  31  41
HETATM   41  N7  UNL     1      33.075  50.983  22.894  1.00  0.00    -0.070 N 
ATOM     42  H73 UNL     1      33.671  50.959  23.722  1.00  0.00     0.274 HD
ATOM     43  H72 UNL     1      33.423  51.864  22.513  1.00  0.00     0.274 HD
ATOM     44  H71 UNL     1      32.079  51.003  23.114  1.00  0.00     0.274 HD
ENDBRANCH  31  41
BRANCH  32  45
HETATM   45  O4  UNL     1      35.448  48.888  21.835  1.00  0.00    -0.391 OA
ATOM     46  H4  UNL     1      35.869  48.468  21.095  1.00  0.00     0.210 HD
ENDBRANCH  32  45
ENDBRANCH  24  27
ENDBRANCH   1  24
TORSDOF 18
ENDMDL
