MODEL 1
REMARK VINA RESULT: -5.475301844      0.000      0.000
REMARK  4 active torsions:
REMARK  status: ('A' for Active; 'I' for Inactive)
REMARK    1  A    between atoms: O1_2  and  N1_3 
REMARK    2  A    between atoms: C8_11  and  O3_12 
REMARK    3  A    between atoms: C9_14  and  C10_15 
REMARK    4  A    between atoms: C10_15  and  O4_16 
ROOT
HETATM    1  N1  UNL     1      17.075   6.426  28.024  1.00  0.00    -0.163 NA
HETATM    2  C2  UNL     1      18.328   6.767  27.430  1.00  0.00     0.127 C 
HETATM    3  C3  UNL     1      18.963   7.978  28.035  1.00  0.00     0.049 C 
HETATM    4  C4  UNL     1      18.522   8.079  29.490  1.00  0.00     0.134 C 
HETATM    5  O2  UNL     1      18.246   6.830  30.011  1.00  0.00    -0.358 OA
HETATM    6  C5  UNL     1      17.089   6.322  29.448  1.00  0.00     0.138 C 
HETATM    7  C6  UNL     1      16.978   4.869  29.928  1.00  0.00     0.066 C 
HETATM    8  C7  UNL     1      15.922   7.057  30.081  1.00  0.00     0.088 C 
HETATM    9  C8  UNL     1      16.161   8.523  30.230  1.00  0.00     0.131 C 
HETATM   10  C9  UNL     1      17.377   9.037  29.551  1.00  0.00     0.067 C 
ENDROOT
BRANCH  10  11
HETATM   11  C10 UNL     1      17.863  10.275  30.306  1.00  0.00     0.173 C 
BRANCH  11  12
HETATM   12  O4  UNL     1      18.960  10.011  31.094  1.00  0.00    -0.400 OA
ATOM     13  H4  UNL     1      19.697  10.576  30.890  1.00  0.00     0.209 HD
ENDBRANCH  11  12
ENDBRANCH  10  11
BRANCH   9  14
HETATM   14  O3  UNL     1      16.188   8.910  31.574  1.00  0.00    -0.395 OA
ATOM     15  H3  UNL     1      17.066   8.871  31.934  1.00  0.00     0.210 HD
ENDBRANCH   9  14
BRANCH   1  16
HETATM   16  O1  UNL     1      16.478   5.423  27.395  1.00  0.00    -0.306 OA
HETATM   17  C1  UNL     1      17.058   5.054  26.202  1.00  0.00     0.230 C 
ENDBRANCH   1  16
TORSDOF 4
ENDMDL
MODEL 2
REMARK VINA RESULT: -5.276815849      1.945      3.623
REMARK  4 active torsions:
REMARK  status: ('A' for Active; 'I' for Inactive)
REMARK    1  A    between atoms: O1_2  and  N1_3 
REMARK    2  A    between atoms: C8_11  and  O3_12 
REMARK    3  A    between atoms: C9_14  and  C10_15 
REMARK    4  A    between atoms: C10_15  and  O4_16 
ROOT
HETATM    1  N1  UNL     1      18.840   7.358  27.807  1.00  0.00    -0.163 NA
HETATM    2  C2  UNL     1      18.115   6.644  26.805  1.00  0.00     0.127 C 
HETATM    3  C3  UNL     1      17.129   5.669  27.366  1.00  0.00     0.049 C 
HETATM    4  C4  UNL     1      16.658   6.184  28.721  1.00  0.00     0.134 C 
HETATM    5  O2  UNL     1      16.717   7.562  28.774  1.00  0.00    -0.358 OA
HETATM    6  C5  UNL     1      18.035   7.983  28.807  1.00  0.00     0.138 C 
HETATM    7  C6  UNL     1      18.003   9.510  28.659  1.00  0.00     0.066 C 
HETATM    8  C7  UNL     1      18.557   7.714  30.205  1.00  0.00     0.088 C 
HETATM    9  C8  UNL     1      18.128   6.393  30.750  1.00  0.00     0.131 C 
HETATM   10  C9  UNL     1      17.463   5.493  29.773  1.00  0.00     0.067 C 
ENDROOT
BRANCH  10  11
HETATM   11  C10 UNL     1      16.512   4.571  30.537  1.00  0.00     0.173 C 
BRANCH  11  12
HETATM   12  O4  UNL     1      15.278   5.144  30.742  1.00  0.00    -0.400 OA
ATOM     13  H4  UNL     1      15.329   5.941  31.255  1.00  0.00     0.209 HD
ENDBRANCH  11  12
ENDBRANCH  10  11
BRANCH   9  14
HETATM   14  O3  UNL     1      17.306   6.536  31.873  1.00  0.00    -0.395 OA
ATOM     15  H3  UNL     1      16.853   5.728  32.083  1.00  0.00     0.210 HD
ENDBRANCH   9  14
BRANCH   1  16
HETATM   16  O1  UNL     1      19.786   8.128  27.288  1.00  0.00    -0.306 OA
HETATM   17  C1  UNL     1      20.165   7.804  26.005  1.00  0.00     0.230 C 
ENDBRANCH   1  16
TORSDOF 4
ENDMDL
MODEL 3
REMARK VINA RESULT: -5.215308841      2.055      3.932
REMARK  4 active torsions:
REMARK  status: ('A' for Active; 'I' for Inactive)
REMARK    1  A    between atoms: O1_2  and  N1_3 
REMARK    2  A    between atoms: C8_11  and  O3_12 
REMARK    3  A    between atoms: C9_14  and  C10_15 
REMARK    4  A    between atoms: C10_15  and  O4_16 
ROOT
HETATM    1  N1  UNL     1      16.676   9.384  28.372  1.00  0.00    -0.163 NA
HETATM    2  C2  UNL     1      15.414   9.569  29.014  1.00  0.00     0.127 C 
HETATM    3  C3  UNL     1      15.139   8.563  30.086  1.00  0.00     0.049 C 
HETATM    4  C4  UNL     1      16.470   8.111  30.676  1.00  0.00     0.134 C 
HETATM    5  O2  UNL     1      17.420   9.108  30.575  1.00  0.00    -0.358 OA
HETATM    6  C5  UNL     1      17.793   9.279  29.254  1.00  0.00     0.138 C 
HETATM    7  C6  UNL     1      18.686  10.526  29.216  1.00  0.00     0.066 C 
HETATM    8  C7  UNL     1      18.695   8.115  28.889  1.00  0.00     0.088 C 
HETATM    9  C8  UNL     1      18.211   6.806  29.418  1.00  0.00     0.131 C 
HETATM   10  C9  UNL     1      16.849   6.829  30.009  1.00  0.00     0.067 C 
ENDROOT
BRANCH  10  11
HETATM   11  C10 UNL     1      16.764   5.727  31.066  1.00  0.00     0.173 C 
BRANCH  11  12
HETATM   12  O4  UNL     1      16.970   6.205  32.340  1.00  0.00    -0.400 OA
ATOM     13  H4  UNL     1      17.826   5.974  32.680  1.00  0.00     0.209 HD
ENDBRANCH  11  12
ENDBRANCH  10  11
BRANCH   9  14
HETATM   14  O3  UNL     1      19.104   6.259  30.345  1.00  0.00    -0.395 OA
ATOM     15  H3  UNL     1      18.703   6.153  31.200  1.00  0.00     0.210 HD
ENDBRANCH   9  14
BRANCH   1  16
HETATM   16  O1  UNL     1      16.844  10.212  27.351  1.00  0.00    -0.306 OA
HETATM   17  C1  UNL     1      16.397   9.741  26.137  1.00  0.00     0.230 C 
ENDBRANCH   1  16
TORSDOF 4
ENDMDL
MODEL 4
REMARK VINA RESULT: -5.067004536      1.784      3.032
REMARK  4 active torsions:
REMARK  status: ('A' for Active; 'I' for Inactive)
REMARK    1  A    between atoms: O1_2  and  N1_3 
REMARK    2  A    between atoms: C8_11  and  O3_12 
REMARK    3  A    between atoms: C9_14  and  C10_15 
REMARK    4  A    between atoms: C10_15  and  O4_16 
ROOT
HETATM    1  N1  UNL     1      16.647   6.233  30.021  1.00  0.00    -0.163 NA
HETATM    2  C2  UNL     1      15.378   6.761  30.410  1.00  0.00     0.127 C 
HETATM    3  C3  UNL     1      15.328   8.256  30.400  1.00  0.00     0.049 C 
HETATM    4  C4  UNL     1      16.309   8.765  29.351  1.00  0.00     0.134 C 
HETATM    5  O2  UNL     1      16.466   7.845  28.333  1.00  0.00    -0.358 OA
HETATM    6  C5  UNL     1      17.162   6.740  28.791  1.00  0.00     0.138 C 
HETATM    7  C6  UNL     1      17.109   5.701  27.664  1.00  0.00     0.066 C 
HETATM    8  C7  UNL     1      18.619   7.146  28.910  1.00  0.00     0.088 C 
HETATM    9  C8  UNL     1      18.805   8.506  29.497  1.00  0.00     0.131 C 
HETATM   10  C9  UNL     1      17.577   9.127  30.054  1.00  0.00     0.067 C 
ENDROOT
BRANCH  10  11
HETATM   11  C10 UNL     1      17.723  10.647  29.967  1.00  0.00     0.173 C 
BRANCH  11  12
HETATM   12  O4  UNL     1      17.083  11.174  28.869  1.00  0.00    -0.400 OA
ATOM     13  H4  UNL     1      17.076  10.575  28.132  1.00  0.00     0.209 HD
ENDBRANCH  11  12
ENDBRANCH  10  11
BRANCH   9  14
HETATM   14  O3  UNL     1      19.391   9.389  28.584  1.00  0.00    -0.395 OA
ATOM     15  H3  UNL     1      20.031   9.954  29.002  1.00  0.00     0.210 HD
ENDBRANCH   9  14
BRANCH   1  16
HETATM   16  O1  UNL     1      16.702   4.915  30.151  1.00  0.00    -0.306 OA
HETATM   17  C1  UNL     1      15.697   4.360  30.910  1.00  0.00     0.230 C 
ENDBRANCH   1  16
TORSDOF 4
ENDMDL
MODEL 5
REMARK VINA RESULT: -5.021882866      2.230      3.451
REMARK  4 active torsions:
REMARK  status: ('A' for Active; 'I' for Inactive)
REMARK    1  A    between atoms: O1_2  and  N1_3 
REMARK    2  A    between atoms: C8_11  and  O3_12 
REMARK    3  A    between atoms: C9_14  and  C10_15 
REMARK    4  A    between atoms: C10_15  and  O4_16 
ROOT
HETATM    1  N1  UNL     1      18.046   8.302  26.424  1.00  0.00    -0.163 NA
HETATM    2  C2  UNL     1      17.684   6.972  26.050  1.00  0.00     0.127 C 
HETATM    3  C3  UNL     1      17.591   6.033  27.211  1.00  0.00     0.049 C 
HETATM    4  C4  UNL     1      17.200   6.832  28.449  1.00  0.00     0.134 C 
HETATM    5  O2  UNL     1      16.456   7.943  28.105  1.00  0.00    -0.358 OA
HETATM    6  C5  UNL     1      17.255   8.874  27.466  1.00  0.00     0.138 C 
HETATM    7  C6  UNL     1      16.311   9.968  26.947  1.00  0.00     0.066 C 
HETATM    8  C7  UNL     1      18.110   9.536  28.529  1.00  0.00     0.088 C 
HETATM    9  C8  UNL     1      18.653   8.573  29.531  1.00  0.00     0.131 C 
HETATM   10  C9  UNL     1      18.452   7.140  29.203  1.00  0.00     0.067 C 
ENDROOT
BRANCH  10  11
HETATM   11  C10 UNL     1      18.397   6.349  30.512  1.00  0.00     0.173 C 
BRANCH  11  12
HETATM   12  O4  UNL     1      19.582   6.404  31.208  1.00  0.00    -0.400 OA
ATOM     13  H4  UNL     1      19.464   6.709  32.100  1.00  0.00     0.209 HD
ENDBRANCH  11  12
ENDBRANCH  10  11
BRANCH   9  14
HETATM   14  O3  UNL     1      18.155   8.824  30.814  1.00  0.00    -0.395 OA
ATOM     15  H3  UNL     1      18.243   8.067  31.380  1.00  0.00     0.210 HD
ENDBRANCH   9  14
BRANCH   1  16
HETATM   16  O1  UNL     1      18.236   9.084  25.371  1.00  0.00    -0.306 OA
HETATM   17  C1  UNL     1      19.553   9.288  25.025  1.00  0.00     0.230 C 
ENDBRANCH   1  16
TORSDOF 4
ENDMDL
