MODEL 1
REMARK VINA RESULT: -5.979725801      0.000      0.000
REMARK  4 active torsions:
REMARK  status: ('A' for Active; 'I' for Inactive)
REMARK    1  A    between atoms: O1_2  and  C2_3 
REMARK    2  A    between atoms: C6_9  and  O4_10 
REMARK    3  A    between atoms: C6_9  and  C7_12 
REMARK    4  A    between atoms: C7_12  and  O5_14 
ROOT
HETATM    1  C2  UNL     1      17.519   6.906  26.899  1.00  0.00     0.288 C 
HETATM    2  O2  UNL     1      16.766   8.068  27.041  1.00  0.00    -0.358 OA
HETATM    3  C3  UNL     1      17.679   9.113  27.201  1.00  0.00     0.179 C 
HETATM    4  C4  UNL     1      18.673   8.520  28.162  1.00  0.00     0.066 C 
HETATM    5  C5  UNL     1      18.713   7.067  27.807  1.00  0.00     0.188 C 
HETATM    6  O3  UNL     1      18.646   6.328  28.948  1.00  0.00    -0.341 OA
HETATM    7  C6  UNL     1      18.301   7.119  30.006  1.00  0.00     0.205 C 
HETATM    8  C9  UNL     1      18.136   8.522  29.556  1.00  0.00     0.166 C 
HETATM    9  C10 UNL     1      18.938   9.436  30.392  1.00  0.00     0.070 C 
HETATM   10  N1  UNL     1      19.573  10.141  31.061  1.00  0.00    -0.197 NA
ENDROOT
BRANCH   7  11
HETATM   11  O4  UNL     1      19.343   7.063  30.959  1.00  0.00    -0.362 OA
ATOM     12  H4  UNL     1      19.775   7.910  30.977  1.00  0.00     0.213 HD
ENDBRANCH   7  11
BRANCH   7  13
HETATM   13  C7  UNL     1      17.087   6.529  30.667  1.00  0.00     0.177 C 
HETATM   14  C8  UNL     1      16.858   5.159  30.060  1.00  0.00     0.045 C 
BRANCH  13  15
HETATM   15  O5  UNL     1      17.182   6.479  32.047  1.00  0.00    -0.390 OA
ATOM     16  H5  UNL     1      16.904   5.648  32.414  1.00  0.00     0.210 HD
ENDBRANCH  13  15
ENDBRANCH   7  13
BRANCH   1  17
HETATM   17  O1  UNL     1      17.922   6.794  25.580  1.00  0.00    -0.363 OA
HETATM   18  C1  UNL     1      19.046   5.955  25.450  1.00  0.00     0.204 C 
ENDBRANCH   1  17
TORSDOF 4
ENDMDL
MODEL 2
REMARK VINA RESULT: -5.886505434      2.568      3.950
REMARK  4 active torsions:
REMARK  status: ('A' for Active; 'I' for Inactive)
REMARK    1  A    between atoms: O1_2  and  C2_3 
REMARK    2  A    between atoms: C6_9  and  O4_10 
REMARK    3  A    between atoms: C6_9  and  C7_12 
REMARK    4  A    between atoms: C7_12  and  O5_14 
ROOT
HETATM    1  C2  UNL     1      16.249   9.148  30.760  1.00  0.00     0.288 C 
HETATM    2  O2  UNL     1      17.592   9.310  31.088  1.00  0.00    -0.358 OA
HETATM    3  C3  UNL     1      18.224   9.785  29.937  1.00  0.00     0.179 C 
HETATM    4  C4  UNL     1      17.622   8.918  28.865  1.00  0.00     0.066 C 
HETATM    5  C5  UNL     1      16.222   8.670  29.329  1.00  0.00     0.188 C 
HETATM    6  O3  UNL     1      15.934   7.347  29.192  1.00  0.00    -0.341 OA
HETATM    7  C6  UNL     1      17.073   6.638  28.933  1.00  0.00     0.205 C 
HETATM    8  C9  UNL     1      18.236   7.556  28.871  1.00  0.00     0.166 C 
HETATM    9  C10 UNL     1      18.995   7.352  27.622  1.00  0.00     0.070 C 
HETATM   10  N1  UNL     1      19.581   7.177  26.635  1.00  0.00    -0.197 NA
ENDROOT
BRANCH   7  11
HETATM   11  O4  UNL     1      16.924   6.002  27.681  1.00  0.00    -0.362 OA
ATOM     12  H4  UNL     1      17.619   5.362  27.588  1.00  0.00     0.213 HD
ENDBRANCH   7  11
BRANCH   7  13
HETATM   13  C7  UNL     1      17.197   5.545  29.957  1.00  0.00     0.177 C 
HETATM   14  C8  UNL     1      18.321   5.926  30.898  1.00  0.00     0.045 C 
BRANCH  13  15
HETATM   15  O5  UNL     1      16.015   5.289  30.632  1.00  0.00    -0.390 OA
ATOM     16  H5  UNL     1      16.131   5.189  31.569  1.00  0.00     0.210 HD
ENDBRANCH  13  15
ENDBRANCH   7  13
BRANCH   1  17
HETATM   17  O1  UNL     1      15.610  10.369  30.878  1.00  0.00    -0.363 OA
HETATM   18  C1  UNL     1      14.513  10.468  29.999  1.00  0.00     0.204 C 
ENDBRANCH   1  17
TORSDOF 4
ENDMDL
MODEL 3
REMARK VINA RESULT: -5.781871896      2.100      3.783
REMARK  4 active torsions:
REMARK  status: ('A' for Active; 'I' for Inactive)
REMARK    1  A    between atoms: O1_2  and  C2_3 
REMARK    2  A    between atoms: C6_9  and  O4_10 
REMARK    3  A    between atoms: C6_9  and  C7_12 
REMARK    4  A    between atoms: C7_12  and  O5_14 
ROOT
HETATM    1  C2  UNL     1      16.178   6.087  29.739  1.00  0.00     0.288 C 
HETATM    2  O2  UNL     1      16.808   6.423  28.544  1.00  0.00    -0.358 OA
HETATM    3  C3  UNL     1      18.152   6.641  28.853  1.00  0.00     0.179 C 
HETATM    4  C4  UNL     1      18.057   7.449  30.119  1.00  0.00     0.066 C 
HETATM    5  C5  UNL     1      16.840   6.919  30.809  1.00  0.00     0.188 C 
HETATM    6  O3  UNL     1      16.084   7.964  31.245  1.00  0.00    -0.341 OA
HETATM    7  C6  UNL     1      16.528   9.133  30.695  1.00  0.00     0.205 C 
HETATM    8  C9  UNL     1      17.697   8.868  29.822  1.00  0.00     0.166 C 
HETATM    9  C10 UNL     1      18.825   9.749  30.181  1.00  0.00     0.070 C 
HETATM   10  N1  UNL     1      19.703  10.450  30.476  1.00  0.00    -0.197 NA
ENDROOT
BRANCH   7  11
HETATM   11  O4  UNL     1      16.924   9.993  31.743  1.00  0.00    -0.362 OA
ATOM     12  H4  UNL     1      17.865   9.914  31.853  1.00  0.00     0.213 HD
ENDBRANCH   7  11
BRANCH   7  13
HETATM   13  C7  UNL     1      15.373   9.803  30.004  1.00  0.00     0.177 C 
HETATM   14  C8  UNL     1      15.676  11.287  29.948  1.00  0.00     0.045 C 
BRANCH  13  15
HETATM   15  O5  UNL     1      15.103   9.278  28.752  1.00  0.00    -0.390 OA
ATOM     16  H5  UNL     1      15.313   8.354  28.678  1.00  0.00     0.210 HD
ENDBRANCH  13  15
ENDBRANCH   7  13
BRANCH   1  17
HETATM   17  O1  UNL     1      16.372   4.738  29.981  1.00  0.00    -0.363 OA
HETATM   18  C1  UNL     1      15.624   4.299  31.091  1.00  0.00     0.204 C 
ENDBRANCH   1  17
TORSDOF 4
ENDMDL
MODEL 4
REMARK VINA RESULT: -5.744028987      2.103      3.544
REMARK  4 active torsions:
REMARK  status: ('A' for Active; 'I' for Inactive)
REMARK    1  A    between atoms: O1_2  and  C2_3 
REMARK    2  A    between atoms: C6_9  and  O4_10 
REMARK    3  A    between atoms: C6_9  and  C7_12 
REMARK    4  A    between atoms: C7_12  and  O5_14 
ROOT
HETATM    1  C2  UNL     1      16.740   6.057  30.228  1.00  0.00     0.288 C 
HETATM    2  O2  UNL     1      16.174   6.257  28.972  1.00  0.00    -0.358 OA
HETATM    3  C3  UNL     1      17.209   6.115  28.046  1.00  0.00     0.179 C 
HETATM    4  C4  UNL     1      18.326   6.881  28.701  1.00  0.00     0.066 C 
HETATM    5  C5  UNL     1      18.121   6.660  30.166  1.00  0.00     0.188 C 
HETATM    6  O3  UNL     1      18.237   7.849  30.818  1.00  0.00    -0.341 OA
HETATM    7  C6  UNL     1      18.237   8.881  29.924  1.00  0.00     0.205 C 
HETATM    8  C9  UNL     1      18.130   8.353  28.543  1.00  0.00     0.166 C 
HETATM    9  C10 UNL     1      19.200   8.905  27.689  1.00  0.00     0.070 C 
HETATM   10  N1  UNL     1      20.048   9.350  27.032  1.00  0.00    -0.197 NA
ENDROOT
BRANCH   7  11
HETATM   11  O4  UNL     1      19.458   9.580  30.054  1.00  0.00    -0.362 OA
ATOM     12  H4  UNL     1      19.764   9.809  29.184  1.00  0.00     0.213 HD
ENDBRANCH   7  11
BRANCH   7  13
HETATM   13  C7  UNL     1      17.150   9.845  30.309  1.00  0.00     0.177 C 
HETATM   14  C8  UNL     1      16.073   9.766  29.246  1.00  0.00     0.045 C 
BRANCH  13  15
HETATM   15  O5  UNL     1      16.646   9.624  31.579  1.00  0.00    -0.390 OA
ATOM     16  H5  UNL     1      17.116  10.093  32.258  1.00  0.00     0.210 HD
ENDBRANCH  13  15
ENDBRANCH   7  13
BRANCH   1  17
HETATM   17  O1  UNL     1      16.812   4.697  30.474  1.00  0.00    -0.363 OA
HETATM   18  C1  UNL     1      15.640   4.219  31.092  1.00  0.00     0.204 C 
ENDBRANCH   1  17
TORSDOF 4
ENDMDL
MODEL 5
REMARK VINA RESULT: -5.706002318      2.025      4.382
REMARK  4 active torsions:
REMARK  status: ('A' for Active; 'I' for Inactive)
REMARK    1  A    between atoms: O1_2  and  C2_3 
REMARK    2  A    between atoms: C6_9  and  O4_10 
REMARK    3  A    between atoms: C6_9  and  C7_12 
REMARK    4  A    between atoms: C7_12  and  O5_14 
ROOT
HETATM    1  C2  UNL     1      17.820   6.802  30.349  1.00  0.00     0.288 C 
HETATM    2  O2  UNL     1      18.185   8.125  30.581  1.00  0.00    -0.358 OA
HETATM    3  C3  UNL     1      17.068   8.903  30.269  1.00  0.00     0.179 C 
HETATM    4  C4  UNL     1      16.595   8.275  28.986  1.00  0.00     0.066 C 
HETATM    5  C5  UNL     1      16.916   6.823  29.141  1.00  0.00     0.188 C 
HETATM    6  O3  UNL     1      17.505   6.372  28.000  1.00  0.00    -0.341 OA
HETATM    7  C6  UNL     1      17.851   7.422  27.198  1.00  0.00     0.205 C 
HETATM    8  C9  UNL     1      17.448   8.698  27.836  1.00  0.00     0.166 C 
HETATM    9  C10 UNL     1      16.650   9.518  26.904  1.00  0.00     0.070 C 
HETATM   10  N1  UNL     1      16.025  10.150  26.157  1.00  0.00    -0.197 NA
ENDROOT
BRANCH   7  11
HETATM   11  O4  UNL     1      17.164   7.287  25.971  1.00  0.00    -0.362 OA
ATOM     12  H4  UNL     1      16.603   8.045  25.859  1.00  0.00     0.213 HD
ENDBRANCH   7  11
BRANCH   7  13
HETATM   13  C7  UNL     1      19.316   7.318  26.882  1.00  0.00     0.177 C 
HETATM   14  C8  UNL     1      19.441   6.756  25.480  1.00  0.00     0.045 C 
BRANCH  13  15
HETATM   15  O5  UNL     1      19.995   8.516  27.026  1.00  0.00    -0.390 OA
ATOM     16  H5  UNL     1      20.131   8.765  27.933  1.00  0.00     0.210 HD
ENDBRANCH  13  15
ENDBRANCH   7  13
BRANCH   1  17
HETATM   17  O1  UNL     1      17.142   6.325  31.457  1.00  0.00    -0.363 OA
HETATM   18  C1  UNL     1      16.227   5.312  31.109  1.00  0.00     0.204 C 
ENDBRANCH   1  17
TORSDOF 4
ENDMDL
