MODEL 1
REMARK VINA RESULT: -6.667614893      0.000      0.000
REMARK  4 active torsions:
REMARK  status: ('A' for Active; 'I' for Inactive)
REMARK    1  A    between atoms: N1_7  and  C6_8 
REMARK    2  A    between atoms: C8_11  and  C9_12 
REMARK    3  A    between atoms: C9_12  and  O3_13 
REMARK    4  A    between atoms: C10_15  and  O4_16 
ROOT
HETATM    1  C6  UNL     1      17.374   6.862  26.325  1.00  0.00     0.382 C 
HETATM    2  O2  UNL     1      17.454   8.061  25.661  1.00  0.00    -0.343 OA
HETATM    3  C7  UNL     1      16.795   9.020  26.400  1.00  0.00     0.184 C 
HETATM    4  C8  UNL     1      17.227   9.043  27.828  1.00  0.00     0.088 C 
HETATM    5  C10 UNL     1      17.472   7.669  28.408  1.00  0.00     0.270 C 
HETATM    6  O5  UNL     1      18.170   6.926  27.482  1.00  0.00    -0.313 OA
ENDROOT
BRANCH   1   7
HETATM    7  N1  UNL     1      17.813   5.729  25.526  1.00  0.00    -0.275 N 
HETATM    8  C1  UNL     1      16.976   4.740  25.165  1.00  0.00     0.251 A 
HETATM    9  O1  UNL     1      15.775   4.841  25.558  1.00  0.00    -0.268 OA
HETATM   10  C2  UNL     1      17.359   3.654  24.408  1.00  0.00     0.075 A 
HETATM   11  C3  UNL     1      18.672   3.576  23.997  1.00  0.00     0.007 A 
HETATM   12  C4  UNL     1      19.545   4.575  24.355  1.00  0.00     0.018 A 
HETATM   13  C5  UNL     1      19.096   5.652  25.124  1.00  0.00     0.099 A 
ENDBRANCH   1   7
BRANCH   5  14
HETATM   14  O4  UNL     1      16.235   7.057  28.684  1.00  0.00    -0.371 OA
ATOM     15  H4  UNL     1      16.383   6.278  29.208  1.00  0.00     0.212 HD
ENDBRANCH   5  14
BRANCH   4  16
HETATM   16  C9  UNL     1      16.181   9.704  28.714  1.00  0.00     0.175 C 
BRANCH  16  17
HETATM   17  O3  UNL     1      14.915   9.594  28.142  1.00  0.00    -0.400 OA
ATOM     18  H3  UNL     1      14.274  10.069  28.658  1.00  0.00     0.209 HD
ENDBRANCH  16  17
ENDBRANCH   4  16
TORSDOF 4
ENDMDL
MODEL 2
REMARK VINA RESULT: -6.193812718      1.925      5.339
REMARK  4 active torsions:
REMARK  status: ('A' for Active; 'I' for Inactive)
REMARK    1  A    between atoms: N1_7  and  C6_8 
REMARK    2  A    between atoms: C8_11  and  C9_12 
REMARK    3  A    between atoms: C9_12  and  O3_13 
REMARK    4  A    between atoms: C10_15  and  O4_16 
ROOT
HETATM    1  C6  UNL     1      17.585   5.898  26.986  1.00  0.00     0.382 C 
HETATM    2  O2  UNL     1      18.583   6.519  26.277  1.00  0.00    -0.343 OA
HETATM    3  C7  UNL     1      19.056   5.644  25.322  1.00  0.00     0.184 C 
HETATM    4  C8  UNL     1      17.964   5.038  24.505  1.00  0.00     0.088 C 
HETATM    5  C10 UNL     1      16.728   4.698  25.306  1.00  0.00     0.270 C 
HETATM    6  O5  UNL     1      16.460   5.747  26.156  1.00  0.00    -0.313 OA
ENDROOT
BRANCH   1   7
HETATM    7  N1  UNL     1      17.184   6.629  28.178  1.00  0.00    -0.275 N 
HETATM    8  C1  UNL     1      16.749   6.006  29.287  1.00  0.00     0.251 A 
HETATM    9  O1  UNL     1      16.702   4.739  29.246  1.00  0.00    -0.268 OA
HETATM   10  C2  UNL     1      16.362   6.668  30.432  1.00  0.00     0.075 A 
HETATM   11  C3  UNL     1      16.425   8.044  30.444  1.00  0.00     0.007 A 
HETATM   12  C4  UNL     1      16.867   8.702  29.320  1.00  0.00     0.018 A 
HETATM   13  C5  UNL     1      17.246   7.974  28.189  1.00  0.00     0.099 A 
ENDBRANCH   1   7
BRANCH   5  14
HETATM   14  O4  UNL     1      16.965   3.525  26.046  1.00  0.00    -0.371 OA
ATOM     15  H4  UNL     1      17.878   3.500  26.307  1.00  0.00     0.212 HD
ENDBRANCH   5  14
BRANCH   4  16
HETATM   16  C9  UNL     1      18.417   3.745  23.843  1.00  0.00     0.175 C 
BRANCH  16  17
HETATM   17  O3  UNL     1      19.458   3.165  24.565  1.00  0.00    -0.400 OA
ATOM     18  H3  UNL     1      20.293   3.346  24.150  1.00  0.00     0.209 HD
ENDBRANCH  16  17
ENDBRANCH   4  16
TORSDOF 4
ENDMDL
MODEL 3
REMARK VINA RESULT: -6.177239974      1.453      2.562
REMARK  4 active torsions:
REMARK  status: ('A' for Active; 'I' for Inactive)
REMARK    1  A    between atoms: N1_7  and  C6_8 
REMARK    2  A    between atoms: C8_11  and  C9_12 
REMARK    3  A    between atoms: C9_12  and  O3_13 
REMARK    4  A    between atoms: C10_15  and  O4_16 
ROOT
HETATM    1  C6  UNL     1      17.670   6.416  27.138  1.00  0.00     0.382 C 
HETATM    2  O2  UNL     1      16.851   5.851  28.084  1.00  0.00    -0.343 OA
HETATM    3  C7  UNL     1      16.880   6.634  29.219  1.00  0.00     0.184 C 
HETATM    4  C8  UNL     1      16.633   8.076  28.929  1.00  0.00     0.088 C 
HETATM    5  C10 UNL     1      17.286   8.558  27.654  1.00  0.00     0.270 C 
HETATM    6  O5  UNL     1      17.083   7.608  26.678  1.00  0.00    -0.313 OA
ENDROOT
BRANCH   1   7
HETATM    7  N1  UNL     1      17.915   5.551  25.995  1.00  0.00    -0.275 N 
HETATM    8  C1  UNL     1      18.962   5.733  25.171  1.00  0.00     0.251 A 
HETATM    9  O1  UNL     1      19.733   6.703  25.438  1.00  0.00    -0.268 OA
HETATM   10  C2  UNL     1      19.222   4.931  24.081  1.00  0.00     0.075 A 
HETATM   11  C3  UNL     1      18.365   3.886  23.819  1.00  0.00     0.007 A 
HETATM   12  C4  UNL     1      17.287   3.682  24.649  1.00  0.00     0.018 A 
HETATM   13  C5  UNL     1      17.077   4.528  25.740  1.00  0.00     0.099 A 
ENDBRANCH   1   7
BRANCH   5  14
HETATM   14  O4  UNL     1      18.664   8.733  27.878  1.00  0.00    -0.371 OA
ATOM     15  H4  UNL     1      18.881   8.420  28.747  1.00  0.00     0.212 HD
ENDBRANCH   5  14
BRANCH   4  16
HETATM   16  C9  UNL     1      17.162   8.965  30.045  1.00  0.00     0.175 C 
BRANCH  16  17
HETATM   17  O3  UNL     1      18.259   8.372  30.665  1.00  0.00    -0.400 OA
ATOM     18  H3  UNL     1      18.072   8.197  31.580  1.00  0.00     0.209 HD
ENDBRANCH  16  17
ENDBRANCH   4  16
TORSDOF 4
ENDMDL
MODEL 4
REMARK VINA RESULT: -6.103688041      1.303      2.023
REMARK  4 active torsions:
REMARK  status: ('A' for Active; 'I' for Inactive)
REMARK    1  A    between atoms: N1_7  and  C6_8 
REMARK    2  A    between atoms: C8_11  and  C9_12 
REMARK    3  A    between atoms: C9_12  and  O3_13 
REMARK    4  A    between atoms: C10_15  and  O4_16 
ROOT
HETATM    1  C6  UNL     1      17.693   6.298  26.926  1.00  0.00     0.382 C 
HETATM    2  O2  UNL     1      16.906   5.675  27.862  1.00  0.00    -0.343 OA
HETATM    3  C7  UNL     1      16.951   6.403  29.033  1.00  0.00     0.184 C 
HETATM    4  C8  UNL     1      16.675   7.853  28.819  1.00  0.00     0.088 C 
HETATM    5  C10 UNL     1      17.288   8.406  27.553  1.00  0.00     0.270 C 
HETATM    6  O5  UNL     1      17.076   7.500  26.538  1.00  0.00    -0.313 OA
ENDROOT
BRANCH   1   7
HETATM    7  N1  UNL     1      17.922   5.493  25.737  1.00  0.00    -0.275 N 
HETATM    8  C1  UNL     1      16.960   4.726  25.195  1.00  0.00     0.251 A 
HETATM    9  O1  UNL     1      15.832   4.737  25.774  1.00  0.00    -0.268 OA
HETATM   10  C2  UNL     1      17.144   3.952  24.070  1.00  0.00     0.075 A 
HETATM   11  C3  UNL     1      18.381   3.964  23.465  1.00  0.00     0.007 A 
HETATM   12  C4  UNL     1      19.380   4.740  24.002  1.00  0.00     0.018 A 
HETATM   13  C5  UNL     1      19.132   5.504  25.145  1.00  0.00     0.099 A 
ENDBRANCH   1   7
BRANCH   5  14
HETATM   14  O4  UNL     1      18.669   8.593  27.752  1.00  0.00    -0.371 OA
ATOM     15  H4  UNL     1      18.840   9.513  27.908  1.00  0.00     0.212 HD
ENDBRANCH   5  14
BRANCH   4  16
HETATM   16  C9  UNL     1      17.217   8.697  29.964  1.00  0.00     0.175 C 
BRANCH  16  17
HETATM   17  O3  UNL     1      18.271   8.041  30.597  1.00  0.00    -0.400 OA
ATOM     18  H3  UNL     1      19.035   8.604  30.641  1.00  0.00     0.209 HD
ENDBRANCH  16  17
ENDBRANCH   4  16
TORSDOF 4
ENDMDL
MODEL 5
REMARK VINA RESULT: -5.835614417      2.883      4.237
REMARK  4 active torsions:
REMARK  status: ('A' for Active; 'I' for Inactive)
REMARK    1  A    between atoms: N1_7  and  C6_8 
REMARK    2  A    between atoms: C8_11  and  C9_12 
REMARK    3  A    between atoms: C9_12  and  O3_13 
REMARK    4  A    between atoms: C10_15  and  O4_16 
ROOT
HETATM    1  C6  UNL     1      18.123   7.621  27.749  1.00  0.00     0.382 C 
HETATM    2  O2  UNL     1      17.200   6.656  27.428  1.00  0.00    -0.343 OA
HETATM    3  C7  UNL     1      17.052   5.809  28.506  1.00  0.00     0.184 C 
HETATM    4  C8  UNL     1      16.803   6.541  29.782  1.00  0.00     0.088 C 
HETATM    5  C10 UNL     1      17.608   7.814  29.917  1.00  0.00     0.270 C 
HETATM    6  O5  UNL     1      17.568   8.481  28.713  1.00  0.00    -0.313 OA
ENDROOT
BRANCH   1   7
HETATM    7  N1  UNL     1      18.546   8.417  26.609  1.00  0.00    -0.275 N 
HETATM    8  C1  UNL     1      19.690   8.170  25.948  1.00  0.00     0.251 A 
HETATM    9  O1  UNL     1      20.392   7.201  26.369  1.00  0.00    -0.268 OA
HETATM   10  C2  UNL     1      20.119   8.905  24.864  1.00  0.00     0.075 A 
HETATM   11  C3  UNL     1      19.334   9.950  24.431  1.00  0.00     0.007 A 
HETATM   12  C4  UNL     1      18.159  10.221  25.093  1.00  0.00     0.018 A 
HETATM   13  C5  UNL     1      17.777   9.439  26.185  1.00  0.00     0.099 A 
ENDBRANCH   1   7
BRANCH   5  14
HETATM   14  O4  UNL     1      18.937   7.487  30.243  1.00  0.00    -0.371 OA
ATOM     15  H4  UNL     1      19.252   6.823  29.642  1.00  0.00     0.212 HD
ENDBRANCH   5  14
BRANCH   4  16
HETATM   16  C9  UNL     1      17.149   5.684  30.991  1.00  0.00     0.175 C 
BRANCH  16  17
HETATM   17  O3  UNL     1      16.991   6.412  32.168  1.00  0.00    -0.400 OA
ATOM     18  H3  UNL     1      17.237   5.887  32.921  1.00  0.00     0.209 HD
ENDBRANCH  16  17
ENDBRANCH   4  16
TORSDOF 4
ENDMDL
