MODEL 1
REMARK VINA RESULT: -5.341661872      0.000      0.000
REMARK  5 active torsions:
REMARK  status: ('A' for Active; 'I' for Inactive)
REMARK    1  A    between atoms: S1_3  and  N2_4 
REMARK    2  A    between atoms: N2_4  and  N4_9 
REMARK    3  A    between atoms: N3_5  and  O1_7 
REMARK    4  A    between atoms: C3_11  and  C4_12 
REMARK    5  A    between atoms: C4_12  and  O2_13 
ROOT
HETATM    1  N1  UNL     1      15.910   4.790  25.515  1.00  0.00    -0.182 NA
HETATM    2  C1  UNL     1      16.863   5.432  25.648  1.00  0.00     0.159 C 
HETATM    3  S1  UNL     1      18.330   6.416  25.883  1.00  0.00     0.112 SA
ENDROOT
BRANCH   3   4
HETATM    4  N2  UNL     1      18.299   7.052  27.514  1.00  0.00    -0.126 N 
HETATM    5  N3  UNL     1      19.234   7.820  27.857  1.00  0.00    -0.181 N 
ATOM      6  H3  UNL     1      19.945   8.016  27.153  1.00  0.00     0.218 HD
BRANCH   5   7
HETATM    7  O1  UNL     1      19.392   8.410  29.060  1.00  0.00    -0.272 OA
ATOM      8  H1  UNL     1      20.171   8.393  29.602  1.00  0.00     0.246 HD
ENDBRANCH   5   7
BRANCH   4   9
HETATM    9  N4  UNL     1      17.303   6.745  28.413  1.00  0.00    -0.236 N 
HETATM   10  C2  UNL     1      17.047   5.433  28.965  1.00  0.00     0.167 C 
HETATM   11  C3  UNL     1      16.630   5.597  30.396  1.00  0.00     0.041 C 
HETATM   12  C5  UNL     1      15.482   6.587  30.436  1.00  0.00     0.107 C 
HETATM   13  S2  UNL     1      16.061   7.783  29.165  1.00  0.00    -0.033 SA
BRANCH  11  14
HETATM   14  C4  UNL     1      17.775   6.107  31.256  1.00  0.00     0.171 C 
BRANCH  14  15
HETATM   15  O2  UNL     1      18.989   6.012  30.615  1.00  0.00    -0.400 OA
ATOM     16  H2  UNL     1      19.715   5.976  31.227  1.00  0.00     0.209 HD
ENDBRANCH  14  15
ENDBRANCH  11  14
ENDBRANCH   4   9
ENDBRANCH   3   4
TORSDOF 5
ENDMDL
MODEL 2
REMARK VINA RESULT: -5.143480941      2.493      2.685
REMARK  5 active torsions:
REMARK  status: ('A' for Active; 'I' for Inactive)
REMARK    1  A    between atoms: S1_3  and  N2_4 
REMARK    2  A    between atoms: N2_4  and  N4_9 
REMARK    3  A    between atoms: N3_5  and  O1_7 
REMARK    4  A    between atoms: C3_11  and  C4_12 
REMARK    5  A    between atoms: C4_12  and  O2_13 
ROOT
HETATM    1  N1  UNL     1      15.964   4.453  25.494  1.00  0.00    -0.182 NA
HETATM    2  C1  UNL     1      16.775   5.262  25.661  1.00  0.00     0.159 C 
HETATM    3  S1  UNL     1      18.006   6.520  25.939  1.00  0.00     0.112 SA
ENDROOT
BRANCH   3   4
HETATM    4  N2  UNL     1      17.191   7.952  26.532  1.00  0.00    -0.126 N 
HETATM    5  N3  UNL     1      16.335   8.487  25.784  1.00  0.00    -0.181 N 
ATOM      6  H3  UNL     1      16.177   8.042  24.880  1.00  0.00     0.218 HD
BRANCH   5   7
HETATM    7  O1  UNL     1      15.603   9.588  26.054  1.00  0.00    -0.272 OA
ATOM      8  H1  UNL     1      15.267  10.215  25.425  1.00  0.00     0.246 HD
ENDBRANCH   5   7
BRANCH   4   9
HETATM    9  N4  UNL     1      17.454   8.498  27.768  1.00  0.00    -0.236 N 
HETATM   10  C2  UNL     1      16.732   8.203  28.986  1.00  0.00     0.167 C 
HETATM   11  C3  UNL     1      17.711   8.185  30.122  1.00  0.00     0.041 C 
HETATM   12  C5  UNL     1      18.486   9.488  30.090  1.00  0.00     0.107 C 
HETATM   13  S2  UNL     1      18.692   9.681  28.273  1.00  0.00    -0.033 SA
BRANCH  11  14
HETATM   14  C4  UNL     1      18.675   7.015  30.010  1.00  0.00     0.171 C 
BRANCH  14  15
HETATM   15  O2  UNL     1      19.469   6.888  31.126  1.00  0.00    -0.400 OA
ATOM     16  H2  UNL     1      20.251   7.425  31.073  1.00  0.00     0.209 HD
ENDBRANCH  14  15
ENDBRANCH  11  14
ENDBRANCH   4   9
ENDBRANCH   3   4
TORSDOF 5
ENDMDL
MODEL 3
REMARK VINA RESULT: -5.137687498      1.989      2.073
REMARK  5 active torsions:
REMARK  status: ('A' for Active; 'I' for Inactive)
REMARK    1  A    between atoms: S1_3  and  N2_4 
REMARK    2  A    between atoms: N2_4  and  N4_9 
REMARK    3  A    between atoms: N3_5  and  O1_7 
REMARK    4  A    between atoms: C3_11  and  C4_12 
REMARK    5  A    between atoms: C4_12  and  O2_13 
ROOT
HETATM    1  N1  UNL     1      15.885   4.787  25.461  1.00  0.00    -0.182 NA
HETATM    2  C1  UNL     1      17.003   5.069  25.358  1.00  0.00     0.159 C 
HETATM    3  S1  UNL     1      18.722   5.518  25.228  1.00  0.00     0.112 SA
ENDROOT
BRANCH   3   4
HETATM    4  N2  UNL     1      18.986   6.944  26.209  1.00  0.00    -0.126 N 
HETATM    5  N3  UNL     1      20.083   7.544  26.080  1.00  0.00    -0.181 N 
ATOM      6  H3  UNL     1      20.742   7.152  25.408  1.00  0.00     0.218 HD
BRANCH   5   7
HETATM    7  O1  UNL     1      20.477   8.653  26.740  1.00  0.00    -0.272 OA
ATOM      8  H1  UNL     1      20.770   9.470  26.353  1.00  0.00     0.246 HD
ENDBRANCH   5   7
BRANCH   4   9
HETATM    9  N4  UNL     1      18.048   7.418  27.098  1.00  0.00    -0.236 N 
HETATM   10  C2  UNL     1      17.694   6.797  28.355  1.00  0.00     0.167 C 
HETATM   11  C3  UNL     1      17.432   7.881  29.358  1.00  0.00     0.041 C 
HETATM   12  C5  UNL     1      16.414   8.833  28.760  1.00  0.00     0.107 C 
HETATM   13  S2  UNL     1      17.007   8.867  27.020  1.00  0.00    -0.033 SA
BRANCH  11  14
HETATM   14  C4  UNL     1      18.701   8.641  29.703  1.00  0.00     0.171 C 
BRANCH  14  15
HETATM   15  O2  UNL     1      19.474   7.971  30.624  1.00  0.00    -0.400 OA
ATOM     16  H2  UNL     1      20.229   7.555  30.224  1.00  0.00     0.209 HD
ENDBRANCH  14  15
ENDBRANCH  11  14
ENDBRANCH   4   9
ENDBRANCH   3   4
TORSDOF 5
ENDMDL
MODEL 4
REMARK VINA RESULT: -5.098433455      3.446      4.743
REMARK  5 active torsions:
REMARK  status: ('A' for Active; 'I' for Inactive)
REMARK    1  A    between atoms: S1_3  and  N2_4 
REMARK    2  A    between atoms: N2_4  and  N4_9 
REMARK    3  A    between atoms: N3_5  and  O1_7 
REMARK    4  A    between atoms: C3_11  and  C4_12 
REMARK    5  A    between atoms: C4_12  and  O2_13 
ROOT
HETATM    1  N1  UNL     1      15.114   4.442  31.105  1.00  0.00    -0.182 NA
HETATM    2  C1  UNL     1      16.025   4.978  30.634  1.00  0.00     0.159 C 
HETATM    3  S1  UNL     1      17.412   5.832  29.911  1.00  0.00     0.112 SA
ENDROOT
BRANCH   3   4
HETATM    4  N2  UNL     1      16.808   7.271  29.117  1.00  0.00    -0.126 N 
HETATM    5  N3  UNL     1      15.649   7.656  29.413  1.00  0.00    -0.181 N 
ATOM      6  H3  UNL     1      15.143   7.097  30.100  1.00  0.00     0.218 HD
BRANCH   5   7
HETATM    7  O1  UNL     1      15.006   8.733  28.916  1.00  0.00    -0.272 OA
ATOM      8  H1  UNL     1      14.195   9.108  29.238  1.00  0.00     0.246 HD
ENDBRANCH   5   7
BRANCH   4   9
HETATM    9  N4  UNL     1      17.549   7.979  28.198  1.00  0.00    -0.236 N 
HETATM   10  C2  UNL     1      17.570   7.738  26.772  1.00  0.00     0.167 C 
HETATM   11  C3  UNL     1      17.666   9.060  26.072  1.00  0.00     0.041 C 
HETATM   12  C5  UNL     1      18.851   9.809  26.652  1.00  0.00     0.107 C 
HETATM   13  S2  UNL     1      18.670   9.350  28.423  1.00  0.00    -0.033 SA
BRANCH  11  14
HETATM   14  C4  UNL     1      16.403   9.884  26.256  1.00  0.00     0.171 C 
BRANCH  14  15
HETATM   15  O2  UNL     1      15.280   9.216  25.822  1.00  0.00    -0.400 OA
ATOM     16  H2  UNL     1      14.597   9.812  25.535  1.00  0.00     0.209 HD
ENDBRANCH  14  15
ENDBRANCH  11  14
ENDBRANCH   4   9
ENDBRANCH   3   4
TORSDOF 5
ENDMDL
MODEL 5
REMARK VINA RESULT: -5.058209637      3.259      4.944
REMARK  5 active torsions:
REMARK  status: ('A' for Active; 'I' for Inactive)
REMARK    1  A    between atoms: S1_3  and  N2_4 
REMARK    2  A    between atoms: N2_4  and  N4_9 
REMARK    3  A    between atoms: N3_5  and  O1_7 
REMARK    4  A    between atoms: C3_11  and  C4_12 
REMARK    5  A    between atoms: C4_12  and  O2_13 
ROOT
HETATM    1  N1  UNL     1      19.351   9.098  30.363  1.00  0.00    -0.182 NA
HETATM    2  C1  UNL     1      18.288   9.354  29.983  1.00  0.00     0.159 C 
HETATM    3  S1  UNL     1      16.654   9.722  29.378  1.00  0.00     0.112 SA
ENDROOT
BRANCH   3   4
HETATM    4  N2  UNL     1      16.530   9.108  27.742  1.00  0.00    -0.126 N 
HETATM    5  N3  UNL     1      15.610   9.562  27.018  1.00  0.00    -0.181 N 
ATOM      6  H3  UNL     1      14.999  10.261  27.440  1.00  0.00     0.218 HD
BRANCH   5   7
HETATM    7  O1  UNL     1      15.347   9.221  25.739  1.00  0.00    -0.272 OA
ATOM      8  H1  UNL     1      15.839   9.482  24.970  1.00  0.00     0.246 HD
ENDBRANCH   5   7
BRANCH   4   9
HETATM    9  N4  UNL     1      17.394   8.163  27.237  1.00  0.00    -0.236 N 
HETATM   10  C2  UNL     1      17.435   6.770  27.625  1.00  0.00     0.167 C 
HETATM   11  C3  UNL     1      17.735   5.950  26.407  1.00  0.00     0.041 C 
HETATM   12  C5  UNL     1      18.988   6.513  25.763  1.00  0.00     0.107 C 
HETATM   13  S2  UNL     1      18.681   8.309  26.008  1.00  0.00    -0.033 SA
BRANCH  11  14
HETATM   14  C4  UNL     1      16.589   5.988  25.410  1.00  0.00     0.171 C 
BRANCH  14  15
HETATM   15  O2  UNL     1      15.842   4.833  25.433  1.00  0.00    -0.400 OA
ATOM     16  H2  UNL     1      16.212   4.178  26.014  1.00  0.00     0.209 HD
ENDBRANCH  14  15
ENDBRANCH  11  14
ENDBRANCH   4   9
ENDBRANCH   3   4
TORSDOF 5
ENDMDL
