MODEL 1
REMARK VINA RESULT: -5.733181372      0.000      0.000
REMARK  2 active torsions:
REMARK  status: ('A' for Active; 'I' for Inactive)
REMARK    1  A    between atoms: N1_2  and  C2_4 
REMARK    2  A    between atoms: C6_9  and  O2_10 
ROOT
HETATM    1  C2  UNL     1      17.393   7.134  29.570  1.00  0.00     0.123 C 
HETATM    2  C3  UNL     1      17.134   7.674  28.195  1.00  0.00     0.195 C 
HETATM    3  O1  UNL     1      17.895   7.157  27.198  1.00  0.00    -0.380 OA
HETATM    4  C4  UNL     1      17.843   5.794  27.033  1.00  0.00     0.173 C 
HETATM    5  C5  UNL     1      18.081   5.375  25.600  1.00  0.00     0.098 C 
HETATM    6  C6  UNL     1      16.814   4.996  24.884  1.00  0.00     0.285 C 
HETATM    7  O3  UNL     1      15.960   4.215  25.611  1.00  0.00    -0.251 OA
HETATM    8  N2  UNL     1      16.382   3.937  26.862  1.00  0.00    -0.063 NA
HETATM    9  C8  UNL     1      16.609   5.168  27.628  1.00  0.00     0.270 C 
HETATM   10  O4  UNL     1      16.867   4.839  28.927  1.00  0.00    -0.363 OA
HETATM   11  C9  UNL     1      16.771   5.816  29.864  1.00  0.00     0.197 C 
ENDROOT
BRANCH   1  12
HETATM   12  N1  UNL     1      18.764   7.159  29.969  1.00  0.00    -0.417 N 
HETATM   13  C1  UNL     1      19.085   6.364  31.113  1.00  0.00     0.140 C 
ATOM     14  H1  UNL     1      19.466   7.707  29.472  1.00  0.00     0.153 HD
ENDBRANCH   1  12
BRANCH   6  15
HETATM   15  O2  UNL     1      17.199   4.284  23.749  1.00  0.00    -0.364 OA
HETATM   16  C7  UNL     1      18.545   3.893  23.808  1.00  0.00     0.204 C 
ENDBRANCH   6  15
TORSDOF 2
ENDMDL
MODEL 2
REMARK VINA RESULT: -5.664561680      3.597      5.207
REMARK  2 active torsions:
REMARK  status: ('A' for Active; 'I' for Inactive)
REMARK    1  A    between atoms: N1_2  and  C2_4 
REMARK    2  A    between atoms: C6_9  and  O2_10 
ROOT
HETATM    1  C2  UNL     1      15.779  10.733  29.669  1.00  0.00     0.123 C 
HETATM    2  C3  UNL     1      16.374   9.930  30.787  1.00  0.00     0.195 C 
HETATM    3  O1  UNL     1      15.753   8.759  31.077  1.00  0.00    -0.380 OA
HETATM    4  C4  UNL     1      15.637   7.857  30.048  1.00  0.00     0.173 C 
HETATM    5  C5  UNL     1      15.622   6.425  30.532  1.00  0.00     0.098 C 
HETATM    6  C6  UNL     1      16.934   5.722  30.321  1.00  0.00     0.285 C 
HETATM    7  O3  UNL     1      17.510   5.944  29.101  1.00  0.00    -0.251 OA
HETATM    8  N2  UNL     1      16.818   6.781  28.299  1.00  0.00    -0.063 NA
HETATM    9  C8  UNL     1      16.629   8.088  28.938  1.00  0.00     0.270 C 
HETATM   10  O4  UNL     1      16.080   8.948  28.032  1.00  0.00    -0.363 OA
HETATM   11  C9  UNL     1      16.134  10.278  28.299  1.00  0.00     0.197 C 
ENDROOT
BRANCH   1  12
HETATM   12  N1  UNL     1      14.375  10.967  29.787  1.00  0.00    -0.417 N 
HETATM   13  C1  UNL     1      13.985  11.829  30.859  1.00  0.00     0.140 C 
ATOM     14  H1  UNL     1      13.697  10.547  29.151  1.00  0.00     0.153 HD
ENDBRANCH   1  12
BRANCH   6  15
HETATM   15  O2  UNL     1      16.677   4.357  30.441  1.00  0.00    -0.364 OA
HETATM   16  C7  UNL     1      15.461   4.110  31.098  1.00  0.00     0.204 C 
ENDBRANCH   6  15
TORSDOF 2
ENDMDL
MODEL 3
REMARK VINA RESULT: -5.624383748      3.072      3.731
REMARK  2 active torsions:
REMARK  status: ('A' for Active; 'I' for Inactive)
REMARK    1  A    between atoms: N1_2  and  C2_4 
REMARK    2  A    between atoms: C6_9  and  O2_10 
ROOT
HETATM    1  C2  UNL     1      16.740   6.108  30.962  1.00  0.00     0.123 C 
HETATM    2  C3  UNL     1      18.139   6.577  30.694  1.00  0.00     0.195 C 
HETATM    3  O1  UNL     1      18.620   6.339  29.448  1.00  0.00    -0.380 OA
HETATM    4  C4  UNL     1      17.893   6.854  28.403  1.00  0.00     0.173 C 
HETATM    5  C5  UNL     1      18.756   7.187  27.206  1.00  0.00     0.098 C 
HETATM    6  C6  UNL     1      19.029   8.660  27.073  1.00  0.00     0.285 C 
HETATM    7  O3  UNL     1      17.942   9.462  27.280  1.00  0.00    -0.251 OA
HETATM    8  N2  UNL     1      16.809   8.800  27.596  1.00  0.00    -0.063 NA
HETATM    9  C8  UNL     1      16.992   7.991  28.807  1.00  0.00     0.270 C 
HETATM   10  O4  UNL     1      15.784   7.480  29.184  1.00  0.00    -0.363 OA
HETATM   11  C9  UNL     1      15.662   6.991  30.444  1.00  0.00     0.197 C 
ENDROOT
BRANCH   1  12
HETATM   12  N1  UNL     1      16.496   4.742  30.621  1.00  0.00    -0.417 N 
HETATM   13  C1  UNL     1      15.290   4.184  31.146  1.00  0.00     0.140 C 
ATOM     14  H1  UNL     1      17.140   4.202  30.042  1.00  0.00     0.153 HD
ENDBRANCH   1  12
BRANCH   6  15
HETATM   15  O2  UNL     1      19.482   8.863  25.771  1.00  0.00    -0.364 OA
HETATM   16  C7  UNL     1      19.947   7.674  25.188  1.00  0.00     0.204 C 
ENDBRANCH   6  15
TORSDOF 2
ENDMDL
MODEL 4
REMARK VINA RESULT: -5.589811215      3.038      4.750
REMARK  2 active torsions:
REMARK  status: ('A' for Active; 'I' for Inactive)
REMARK    1  A    between atoms: N1_2  and  C2_4 
REMARK    2  A    between atoms: C6_9  and  O2_10 
ROOT
HETATM    1  C2  UNL     1      17.183   5.450  30.080  1.00  0.00     0.123 C 
HETATM    2  C3  UNL     1      17.114   5.827  28.629  1.00  0.00     0.195 C 
HETATM    3  O1  UNL     1      16.554   7.031  28.352  1.00  0.00    -0.380 OA
HETATM    4  C4  UNL     1      17.129   8.125  28.951  1.00  0.00     0.173 C 
HETATM    5  C5  UNL     1      16.980   9.383  28.124  1.00  0.00     0.098 C 
HETATM    6  C6  UNL     1      18.242   9.757  27.397  1.00  0.00     0.285 C 
HETATM    7  O3  UNL     1      19.382   9.653  28.144  1.00  0.00    -0.251 OA
HETATM    8  N2  UNL     1      19.190   9.204  29.402  1.00  0.00    -0.063 NA
HETATM    9  C8  UNL     1      18.547   7.885  29.398  1.00  0.00     0.270 C 
HETATM   10  O4  UNL     1      18.528   7.398  30.673  1.00  0.00    -0.363 OA
HETATM   11  C9  UNL     1      18.293   6.072  30.847  1.00  0.00     0.197 C 
ENDROOT
BRANCH   1  12
HETATM   12  N1  UNL     1      15.944   5.560  30.781  1.00  0.00    -0.417 N 
HETATM   13  C1  UNL     1      15.348   4.321  31.174  1.00  0.00     0.140 C 
ATOM     14  H1  UNL     1      15.513   6.461  30.988  1.00  0.00     0.153 HD
ENDBRANCH   1  12
BRANCH   6  15
HETATM   15  O2  UNL     1      18.094  11.087  27.007  1.00  0.00    -0.364 OA
HETATM   16  C7  UNL     1      17.688  11.198  25.668  1.00  0.00     0.204 C 
ENDBRANCH   6  15
TORSDOF 2
ENDMDL
MODEL 5
REMARK VINA RESULT: -5.453126411      3.043      5.077
REMARK  2 active torsions:
REMARK  status: ('A' for Active; 'I' for Inactive)
REMARK    1  A    between atoms: N1_2  and  C2_4 
REMARK    2  A    between atoms: C6_9  and  O2_10 
ROOT
HETATM    1  C2  UNL     1      18.622   8.905  26.379  1.00  0.00     0.123 C 
HETATM    2  C3  UNL     1      17.305   8.227  26.621  1.00  0.00     0.195 C 
HETATM    3  O1  UNL     1      17.359   7.026  27.247  1.00  0.00    -0.380 OA
HETATM    4  C4  UNL     1      17.973   7.003  28.476  1.00  0.00     0.173 C 
HETATM    5  C5  UNL     1      17.413   5.932  29.384  1.00  0.00     0.098 C 
HETATM    6  C6  UNL     1      16.481   6.480  30.430  1.00  0.00     0.285 C 
HETATM    7  O3  UNL     1      16.917   7.624  31.037  1.00  0.00    -0.251 OA
HETATM    8  N2  UNL     1      18.098   8.089  30.578  1.00  0.00    -0.063 NA
HETATM    9  C8  UNL     1      18.035   8.355  29.137  1.00  0.00     0.270 C 
HETATM   10  O4  UNL     1      19.186   8.979  28.752  1.00  0.00    -0.363 OA
HETATM   11  C9  UNL     1      19.200   9.612  27.551  1.00  0.00     0.197 C 
ENDROOT
BRANCH   1  12
HETATM   12  N1  UNL     1      19.600   8.087  25.735  1.00  0.00    -0.417 N 
HETATM   13  C1  UNL     1      20.943   8.574  25.796  1.00  0.00     0.140 C 
ATOM     14  H1  UNL     1      19.358   7.215  25.264  1.00  0.00     0.153 HD
ENDBRANCH   1  12
BRANCH   6  15
HETATM   15  O2  UNL     1      16.351   5.490  31.402  1.00  0.00    -0.364 OA
HETATM   16  C7  UNL     1      15.477   4.470  30.996  1.00  0.00     0.204 C 
ENDBRANCH   6  15
TORSDOF 2
ENDMDL
