MODEL 1
REMARK VINA RESULT: -11.519215994      0.000      0.000
REMARK  0 active torsions:
REMARK  status: ('A' for Active; 'I' for Inactive)
ROOT
HETATM    1  C1  UNL     1      37.316  25.420  64.222  1.00  0.00     0.001 A 
HETATM    2  C2  UNL     1      37.802  24.595  63.231  1.00  0.00     0.001 A 
HETATM    3  C3  UNL     1      38.960  23.899  63.500  1.00  0.00     0.014 A 
HETATM    4  C4  UNL     1      39.612  24.017  64.710  1.00  0.00     0.003 A 
HETATM    5  C5  UNL     1      40.790  23.308  64.985  1.00  0.00     0.072 A 
HETATM    6  C6  UNL     1      41.432  23.438  66.201  1.00  0.00     0.075 A 
HETATM    7  C7  UNL     1      40.904  24.278  67.163  1.00  0.00     0.034 A 
HETATM    8  C8  UNL     1      39.744  24.980  66.902  1.00  0.00     0.014 A 
HETATM    9  C9  UNL     1      39.112  24.847  65.691  1.00  0.00    -0.024 A 
HETATM   10  C10 UNL     1      37.937  25.565  65.442  1.00  0.00     0.012 A 
HETATM   11  N1  UNL     1      42.512  22.866  66.614  1.00  0.00    -0.297 N 
ATOM     12  H1  UNL     1      42.799  23.117  67.560  1.00  0.00     0.187 HD
HETATM   13  N2  UNL     1      43.350  21.955  65.966  1.00  0.00    -0.283 N 
ATOM     14  H2  UNL     1      44.163  21.629  66.490  1.00  0.00     0.188 HD
HETATM   15  C11 UNL     1      43.188  21.429  64.637  1.00  0.00     0.148 A 
HETATM   16  N3  UNL     1      44.024  20.551  64.053  1.00  0.00    -0.339 N 
ATOM     17  H3  UNL     1      44.864  20.156  64.475  1.00  0.00     0.167 HD
HETATM   18  C12 UNL     1      43.560  20.284  62.812  1.00  0.00     0.046 A 
HETATM   19  C13 UNL     1      43.989  19.479  61.777  1.00  0.00     0.030 A 
HETATM   20  C14 UNL     1      43.323  19.372  60.573  1.00  0.00     0.002 A 
HETATM   21  C15 UNL     1      42.175  20.115  60.411  1.00  0.00     0.001 A 
HETATM   22  C16 UNL     1      41.713  20.930  61.418  1.00  0.00     0.016 A 
HETATM   23  C17 UNL     1      42.405  21.000  62.588  1.00  0.00     0.021 A 
HETATM   24  C18 UNL     1      42.169  21.733  63.759  1.00  0.00     0.091 A 
HETATM   25  N4  UNL     1      41.073  22.611  63.957  1.00  0.00    -0.350 N 
ATOM     26  H4  UNL     1      40.426  22.695  63.173  1.00  0.00     0.166 HD
ENDROOT
TORSDOF 0
ENDMDL
MODEL 2
REMARK VINA RESULT: -11.483762807      2.989      4.654
REMARK  0 active torsions:
REMARK  status: ('A' for Active; 'I' for Inactive)
ROOT
HETATM    1  C1  UNL     1      38.752  23.774  63.377  1.00  0.00     0.001 A 
HETATM    2  C2  UNL     1      39.942  23.096  63.519  1.00  0.00     0.001 A 
HETATM    3  C3  UNL     1      40.829  23.566  64.462  1.00  0.00     0.014 A 
HETATM    4  C4  UNL     1      40.545  24.672  65.237  1.00  0.00     0.003 A 
HETATM    5  C5  UNL     1      41.447  25.151  66.196  1.00  0.00     0.072 A 
HETATM    6  C6  UNL     1      41.148  26.260  66.964  1.00  0.00     0.075 A 
HETATM    7  C7  UNL     1      39.940  26.906  66.784  1.00  0.00     0.034 A 
HETATM    8  C8  UNL     1      39.044  26.441  65.841  1.00  0.00     0.014 A 
HETATM    9  C9  UNL     1      39.349  25.340  65.082  1.00  0.00    -0.024 A 
HETATM   10  C10 UNL     1      38.431  24.881  64.130  1.00  0.00     0.012 A 
HETATM   11  N1  UNL     1      41.856  26.827  67.881  1.00  0.00    -0.297 N 
ATOM     12  H1  UNL     1      41.424  27.642  68.317  1.00  0.00     0.187 HD
HETATM   13  N2  UNL     1      43.123  26.498  68.370  1.00  0.00    -0.283 N 
ATOM     14  H2  UNL     1      43.497  27.096  69.108  1.00  0.00     0.188 HD
HETATM   15  C11 UNL     1      43.956  25.407  67.942  1.00  0.00     0.148 A 
HETATM   16  N3  UNL     1      45.173  25.128  68.443  1.00  0.00    -0.339 N 
ATOM     17  H3  UNL     1      45.648  25.650  69.179  1.00  0.00     0.167 HD
HETATM   18  C12 UNL     1      45.657  24.040  67.804  1.00  0.00     0.046 A 
HETATM   19  C13 UNL     1      46.826  23.314  67.893  1.00  0.00     0.030 A 
HETATM   20  C14 UNL     1      47.094  22.210  67.110  1.00  0.00     0.002 A 
HETATM   21  C15 UNL     1      46.136  21.826  66.198  1.00  0.00     0.001 A 
HETATM   22  C16 UNL     1      44.956  22.523  66.078  1.00  0.00     0.016 A 
HETATM   23  C17 UNL     1      44.739  23.606  66.874  1.00  0.00     0.021 A 
HETATM   24  C18 UNL     1      43.650  24.483  66.964  1.00  0.00     0.091 A 
HETATM   25  N4  UNL     1      42.474  24.398  66.175  1.00  0.00    -0.350 N 
ATOM     26  H4  UNL     1      42.448  23.632  65.502  1.00  0.00     0.166 HD
ENDROOT
TORSDOF 0
ENDMDL
MODEL 3
REMARK VINA RESULT: -10.724008514      1.285      1.604
REMARK  0 active torsions:
REMARK  status: ('A' for Active; 'I' for Inactive)
ROOT
HETATM    1  C1  UNL     1      38.067  26.303  65.993  1.00  0.00     0.001 A 
HETATM    2  C2  UNL     1      38.081  25.224  65.136  1.00  0.00     0.001 A 
HETATM    3  C3  UNL     1      39.229  24.464  65.095  1.00  0.00     0.014 A 
HETATM    4  C4  UNL     1      40.326  24.766  65.876  1.00  0.00     0.003 A 
HETATM    5  C5  UNL     1      41.494  23.993  65.835  1.00  0.00     0.072 A 
HETATM    6  C6  UNL     1      42.585  24.308  66.623  1.00  0.00     0.075 A 
HETATM    7  C7  UNL     1      42.521  25.400  67.466  1.00  0.00     0.034 A 
HETATM    8  C8  UNL     1      41.374  26.168  67.514  1.00  0.00     0.014 A 
HETATM    9  C9  UNL     1      40.295  25.849  66.728  1.00  0.00    -0.024 A 
HETATM   10  C10 UNL     1      39.140  26.636  66.788  1.00  0.00     0.012 A 
HETATM   11  N1  UNL     1      43.725  23.710  66.707  1.00  0.00    -0.297 N 
ATOM     12  H1  UNL     1      44.383  24.127  67.366  1.00  0.00     0.187 HD
HETATM   13  N2  UNL     1      44.198  22.580  66.037  1.00  0.00    -0.283 N 
ATOM     14  H2  UNL     1      45.147  22.279  66.263  1.00  0.00     0.188 HD
HETATM   15  C11 UNL     1      43.489  21.796  65.062  1.00  0.00     0.148 A 
HETATM   16  N3  UNL     1      43.987  20.712  64.440  1.00  0.00    -0.339 N 
ATOM     17  H3  UNL     1      44.917  20.317  64.582  1.00  0.00     0.167 HD
HETATM   18  C12 UNL     1      43.047  20.235  63.595  1.00  0.00     0.046 A 
HETATM   19  C13 UNL     1      42.990  19.173  62.718  1.00  0.00     0.030 A 
HETATM   20  C14 UNL     1      41.884  18.886  61.944  1.00  0.00     0.002 A 
HETATM   21  C15 UNL     1      40.789  19.712  62.065  1.00  0.00     0.001 A 
HETATM   22  C16 UNL     1      40.804  20.783  62.928  1.00  0.00     0.016 A 
HETATM   23  C17 UNL     1      41.919  21.024  63.671  1.00  0.00     0.021 A 
HETATM   24  C18 UNL     1      42.206  22.023  64.610  1.00  0.00     0.091 A 
HETATM   25  N4  UNL     1      41.311  23.054  64.994  1.00  0.00    -0.350 N 
ATOM     26  H4  UNL     1      40.400  23.042  64.535  1.00  0.00     0.166 HD
ENDROOT
TORSDOF 0
ENDMDL
MODEL 4
REMARK VINA RESULT: -10.703543731      2.994      6.230
REMARK  0 active torsions:
REMARK  status: ('A' for Active; 'I' for Inactive)
ROOT
HETATM    1  C1  UNL     1      45.348  21.263  66.564  1.00  0.00     0.001 A 
HETATM    2  C2  UNL     1      44.203  21.265  65.798  1.00  0.00     0.001 A 
HETATM    3  C3  UNL     1      43.392  22.375  65.876  1.00  0.00     0.014 A 
HETATM    4  C4  UNL     1      43.705  23.447  66.687  1.00  0.00     0.003 A 
HETATM    5  C5  UNL     1      42.880  24.577  66.766  1.00  0.00     0.072 A 
HETATM    6  C6  UNL     1      43.208  25.641  67.584  1.00  0.00     0.075 A 
HETATM    7  C7  UNL     1      44.368  25.592  68.333  1.00  0.00     0.034 A 
HETATM    8  C8  UNL     1      45.187  24.483  68.261  1.00  0.00     0.014 A 
HETATM    9  C9  UNL     1      44.855  23.429  67.448  1.00  0.00    -0.024 A 
HETATM   10  C10 UNL     1      45.696  22.312  67.386  1.00  0.00     0.012 A 
HETATM   11  N1  UNL     1      42.568  26.746  67.773  1.00  0.00    -0.297 N 
ATOM     12  H1  UNL     1      43.008  27.391  68.429  1.00  0.00     0.187 HD
HETATM   13  N2  UNL     1      41.367  27.195  67.219  1.00  0.00    -0.283 N 
ATOM     14  H2  UNL     1      41.043  28.115  67.518  1.00  0.00     0.188 HD
HETATM   15  C11 UNL     1      40.540  26.497  66.272  1.00  0.00     0.148 A 
HETATM   16  N3  UNL     1      39.388  26.970  65.765  1.00  0.00    -0.339 N 
ATOM     17  H3  UNL     1      38.964  27.871  65.986  1.00  0.00     0.167 HD
HETATM   18  C12 UNL     1      38.887  26.048  64.913  1.00  0.00     0.046 A 
HETATM   19  C13 UNL     1      37.760  25.982  64.121  1.00  0.00     0.030 A 
HETATM   20  C14 UNL     1      37.463  24.902  63.315  1.00  0.00     0.002 A 
HETATM   21  C15 UNL     1      38.344  23.844  63.314  1.00  0.00     0.001 A 
HETATM   22  C16 UNL     1      39.479  23.870  64.090  1.00  0.00     0.016 A 
HETATM   23  C17 UNL     1      39.730  24.959  64.867  1.00  0.00     0.021 A 
HETATM   24  C18 UNL     1      40.787  25.249  65.739  1.00  0.00     0.091 A 
HETATM   25  N4  UNL     1      41.886  24.388  65.994  1.00  0.00    -0.350 N 
ATOM     26  H4  UNL     1      41.878  23.500  65.491  1.00  0.00     0.166 HD
ENDROOT
TORSDOF 0
ENDMDL
MODEL 5
REMARK VINA RESULT: -10.601026421      2.226      4.334
REMARK  0 active torsions:
REMARK  status: ('A' for Active; 'I' for Inactive)
ROOT
HETATM    1  C1  UNL     1      38.562  26.425  66.430  1.00  0.00     0.001 A 
HETATM    2  C2  UNL     1      39.688  26.160  67.177  1.00  0.00     0.001 A 
HETATM    3  C3  UNL     1      40.536  25.177  66.716  1.00  0.00     0.014 A 
HETATM    4  C4  UNL     1      40.275  24.482  65.553  1.00  0.00     0.003 A 
HETATM    5  C5  UNL     1      41.138  23.483  65.082  1.00  0.00     0.072 A 
HETATM    6  C6  UNL     1      40.863  22.795  63.916  1.00  0.00     0.075 A 
HETATM    7  C7  UNL     1      39.720  23.098  63.202  1.00  0.00     0.034 A 
HETATM    8  C8  UNL     1      38.863  24.081  63.657  1.00  0.00     0.014 A 
HETATM    9  C9  UNL     1      39.143  24.760  64.817  1.00  0.00    -0.024 A 
HETATM   10  C10 UNL     1      38.266  25.753  65.265  1.00  0.00     0.012 A 
HETATM   11  N1  UNL     1      41.542  21.857  63.348  1.00  0.00    -0.297 N 
ATOM     12  H1  UNL     1      41.138  21.496  62.483  1.00  0.00     0.187 HD
HETATM   13  N2  UNL     1      42.744  21.259  63.732  1.00  0.00    -0.283 N 
ATOM     14  H2  UNL     1      43.105  20.524  63.122  1.00  0.00     0.188 HD
HETATM   15  C11 UNL     1      43.528  21.569  64.898  1.00  0.00     0.148 A 
HETATM   16  N3  UNL     1      44.683  20.965  65.229  1.00  0.00    -0.339 N 
ATOM     17  H3  UNL     1      45.140  20.222  64.700  1.00  0.00     0.167 HD
HETATM   18  C12 UNL     1      45.134  21.509  66.380  1.00  0.00     0.046 A 
HETATM   19  C13 UNL     1      46.240  21.298  67.177  1.00  0.00     0.030 A 
HETATM   20  C14 UNL     1      46.486  22.003  68.337  1.00  0.00     0.002 A 
HETATM   21  C15 UNL     1      45.570  22.964  68.705  1.00  0.00     0.001 A 
HETATM   22  C16 UNL     1      44.454  23.206  67.940  1.00  0.00     0.016 A 
HETATM   23  C17 UNL     1      44.257  22.484  66.802  1.00  0.00     0.021 A 
HETATM   24  C18 UNL     1      43.229  22.520  65.851  1.00  0.00     0.091 A 
HETATM   25  N4  UNL     1      42.109  23.389  65.902  1.00  0.00    -0.350 N 
ATOM     26  H4  UNL     1      42.077  24.023  66.700  1.00  0.00     0.166 HD
ENDROOT
TORSDOF 0
ENDMDL
