MODEL 1
REMARK VINA RESULT: -11.388819547      0.000      0.000
REMARK  0 active torsions:
REMARK  status: ('A' for Active; 'I' for Inactive)
ROOT
HETATM    1  O1  UNL     1      38.268  25.920  63.698  1.00  0.00    -0.267 OA
HETATM    2  C1  UNL     1      39.268  25.587  64.424  1.00  0.00     0.257 A 
HETATM    3  N1  UNL     1      39.688  26.393  65.395  1.00  0.00    -0.322 N 
ATOM      4  H1  UNL     1      39.214  27.280  65.564  1.00  0.00     0.169 HD
HETATM    5  C2  UNL     1      40.736  26.038  66.151  1.00  0.00     0.046 A 
HETATM    6  C3  UNL     1      41.171  26.887  67.167  1.00  0.00     0.030 A 
HETATM    7  C4  UNL     1      42.238  26.559  67.960  1.00  0.00     0.002 A 
HETATM    8  C5  UNL     1      42.856  25.376  67.722  1.00  0.00     0.001 A 
HETATM    9  C6  UNL     1      42.463  24.475  66.711  1.00  0.00     0.014 A 
HETATM   10  C7  UNL     1      41.405  24.814  65.932  1.00  0.00     0.004 A 
HETATM   11  C8  UNL     1      40.964  23.977  64.920  1.00  0.00     0.020 A 
HETATM   12  C9  UNL     1      39.877  24.384  64.163  1.00  0.00     0.045 A 
HETATM   13  C10 UNL     1      39.423  23.567  63.152  1.00  0.00     0.019 A 
HETATM   14  C11 UNL     1      40.043  22.372  62.905  1.00  0.00     0.018 A 
HETATM   15  C12 UNL     1      41.127  21.975  63.668  1.00  0.00     0.030 A 
HETATM   16  C13 UNL     1      41.686  20.755  63.346  1.00  0.00     0.114 A 
HETATM   17  S1  UNL     1      41.093  19.827  62.124  1.00  0.00    -0.059 SA
HETATM   18  N2  UNL     1      42.736  20.369  64.083  1.00  0.00    -0.343 N 
ATOM     19  H2  UNL     1      43.181  19.474  63.880  1.00  0.00     0.167 HD
HETATM   20  C14 UNL     1      43.218  21.120  65.074  1.00  0.00     0.182 A 
HETATM   21  N3  UNL     1      42.634  22.296  65.342  1.00  0.00    -0.351 N 
ATOM     22  H3  UNL     1      43.020  22.853  66.104  1.00  0.00     0.166 HD
HETATM   23  C15 UNL     1      41.600  22.786  64.692  1.00  0.00     0.058 A 
ENDROOT
TORSDOF 0
ENDMDL
MODEL 2
REMARK VINA RESULT: -10.572456817      0.944      1.052
REMARK  0 active torsions:
REMARK  status: ('A' for Active; 'I' for Inactive)
ROOT
HETATM    1  O1  UNL     1      38.050  24.457  63.041  1.00  0.00    -0.267 OA
HETATM    2  C1  UNL     1      39.005  24.500  63.892  1.00  0.00     0.257 A 
HETATM    3  N1  UNL     1      39.062  25.480  64.788  1.00  0.00    -0.322 N 
ATOM      4  H1  UNL     1      38.342  26.204  64.800  1.00  0.00     0.169 HD
HETATM    5  C2  UNL     1      40.065  25.518  65.676  1.00  0.00     0.046 A 
HETATM    6  C3  UNL     1      40.117  26.549  66.612  1.00  0.00     0.030 A 
HETATM    7  C4  UNL     1      41.127  26.621  67.535  1.00  0.00     0.002 A 
HETATM    8  C5  UNL     1      42.074  25.651  67.505  1.00  0.00     0.001 A 
HETATM    9  C6  UNL     1      42.076  24.584  66.584  1.00  0.00     0.014 A 
HETATM   10  C7  UNL     1      41.070  24.526  65.675  1.00  0.00     0.004 A 
HETATM   11  C8  UNL     1      41.008  23.505  64.740  1.00  0.00     0.020 A 
HETATM   12  C9  UNL     1      39.953  23.507  63.841  1.00  0.00     0.045 A 
HETATM   13  C10 UNL     1      39.873  22.501  62.904  1.00  0.00     0.019 A 
HETATM   14  C11 UNL     1      40.826  21.520  62.867  1.00  0.00     0.018 A 
HETATM   15  C12 UNL     1      41.874  21.528  63.770  1.00  0.00     0.030 A 
HETATM   16  C13 UNL     1      42.786  20.498  63.656  1.00  0.00     0.114 A 
HETATM   17  S1  UNL     1      42.631  19.327  62.512  1.00  0.00    -0.059 SA
HETATM   18  N2  UNL     1      43.803  20.505  64.530  1.00  0.00    -0.343 N 
ATOM     19  H2  UNL     1      44.500  19.762  64.483  1.00  0.00     0.167 HD
HETATM   20  C14 UNL     1      43.930  21.453  65.458  1.00  0.00     0.182 A 
HETATM   21  N3  UNL     1      43.014  22.429  65.521  1.00  0.00    -0.351 N 
ATOM     22  H3  UNL     1      43.132  23.143  66.239  1.00  0.00     0.166 HD
HETATM   23  C15 UNL     1      41.972  22.534  64.722  1.00  0.00     0.058 A 
ENDROOT
TORSDOF 0
ENDMDL
MODEL 3
REMARK VINA RESULT: -10.508566455      2.471      4.392
REMARK  0 active torsions:
REMARK  status: ('A' for Active; 'I' for Inactive)
ROOT
HETATM    1  O1  UNL     1      43.145  21.411  64.691  1.00  0.00    -0.267 OA
HETATM    2  C1  UNL     1      42.976  22.492  65.355  1.00  0.00     0.257 A 
HETATM    3  N1  UNL     1      43.902  22.902  66.217  1.00  0.00    -0.322 N 
ATOM      4  H1  UNL     1      44.752  22.354  66.352  1.00  0.00     0.169 HD
HETATM    5  C2  UNL     1      43.717  24.035  66.909  1.00  0.00     0.046 A 
HETATM    6  C3  UNL     1      44.692  24.458  67.810  1.00  0.00     0.030 A 
HETATM    7  C4  UNL     1      44.539  25.609  68.534  1.00  0.00     0.002 A 
HETATM    8  C5  UNL     1      43.403  26.325  68.342  1.00  0.00     0.001 A 
HETATM    9  C6  UNL     1      42.382  25.950  67.446  1.00  0.00     0.014 A 
HETATM   10  C7  UNL     1      42.547  24.805  66.735  1.00  0.00     0.004 A 
HETATM   11  C8  UNL     1      41.584  24.376  65.836  1.00  0.00     0.020 A 
HETATM   12  C9  UNL     1      41.817  23.198  65.144  1.00  0.00     0.045 A 
HETATM   13  C10 UNL     1      40.872  22.754  64.246  1.00  0.00     0.019 A 
HETATM   14  C11 UNL     1      39.723  23.470  64.048  1.00  0.00     0.018 A 
HETATM   15  C12 UNL     1      39.501  24.645  64.745  1.00  0.00     0.030 A 
HETATM   16  C13 UNL     1      38.315  25.298  64.479  1.00  0.00     0.114 A 
HETATM   17  S1  UNL     1      37.229  24.711  63.392  1.00  0.00    -0.059 SA
HETATM   18  N2  UNL     1      38.099  26.436  65.153  1.00  0.00    -0.343 N 
ATOM     19  H2  UNL     1      37.235  26.952  64.988  1.00  0.00     0.167 HD
HETATM   20  C14 UNL     1      38.978  26.913  66.034  1.00  0.00     0.182 A 
HETATM   21  N3  UNL     1      40.114  26.235  66.252  1.00  0.00    -0.351 N 
ATOM     22  H3  UNL     1      40.771  26.620  66.930  1.00  0.00     0.166 HD
HETATM   23  C15 UNL     1      40.442  25.109  65.655  1.00  0.00     0.058 A 
ENDROOT
TORSDOF 0
ENDMDL
MODEL 4
REMARK VINA RESULT: -10.251838143      1.988      3.661
REMARK  0 active torsions:
REMARK  status: ('A' for Active; 'I' for Inactive)
ROOT
HETATM    1  O1  UNL     1      41.567  25.985  67.919  1.00  0.00    -0.267 OA
HETATM    2  C1  UNL     1      40.952  25.479  66.917  1.00  0.00     0.257 A 
HETATM    3  N1  UNL     1      39.791  25.989  66.516  1.00  0.00    -0.322 N 
ATOM      4  H1  UNL     1      39.387  26.787  67.007  1.00  0.00     0.169 HD
HETATM    5  C2  UNL     1      39.153  25.454  65.466  1.00  0.00     0.046 A 
HETATM    6  C3  UNL     1      37.937  25.995  65.051  1.00  0.00     0.030 A 
HETATM    7  C4  UNL     1      37.256  25.475  63.983  1.00  0.00     0.002 A 
HETATM    8  C5  UNL     1      37.808  24.416  63.341  1.00  0.00     0.001 A 
HETATM    9  C6  UNL     1      39.034  23.826  63.713  1.00  0.00     0.014 A 
HETATM   10  C7  UNL     1      39.698  24.351  64.774  1.00  0.00     0.004 A 
HETATM   11  C8  UNL     1      40.908  23.822  65.194  1.00  0.00     0.020 A 
HETATM   12  C9  UNL     1      41.532  24.407  66.284  1.00  0.00     0.045 A 
HETATM   13  C10 UNL     1      42.735  23.896  66.718  1.00  0.00     0.019 A 
HETATM   14  C11 UNL     1      43.297  22.826  66.076  1.00  0.00     0.018 A 
HETATM   15  C12 UNL     1      42.665  22.251  64.988  1.00  0.00     0.030 A 
HETATM   16  C13 UNL     1      43.308  21.177  64.406  1.00  0.00     0.114 A 
HETATM   17  S1  UNL     1      44.746  20.617  64.975  1.00  0.00    -0.059 SA
HETATM   18  N2  UNL     1      42.697  20.619  63.352  1.00  0.00    -0.343 N 
ATOM     19  H2  UNL     1      43.137  19.823  62.890  1.00  0.00     0.167 HD
HETATM   20  C14 UNL     1      41.532  21.072  62.889  1.00  0.00     0.182 A 
HETATM   21  N3  UNL     1      40.954  22.117  63.495  1.00  0.00    -0.351 N 
ATOM     22  H3  UNL     1      40.063  22.446  63.124  1.00  0.00     0.166 HD
HETATM   23  C15 UNL     1      41.452  22.751  64.536  1.00  0.00     0.058 A 
ENDROOT
TORSDOF 0
ENDMDL
MODEL 5
REMARK VINA RESULT: -10.246742479      2.825      4.935
REMARK  0 active torsions:
REMARK  status: ('A' for Active; 'I' for Inactive)
ROOT
HETATM    1  O1  UNL     1      41.362  21.179  63.273  1.00  0.00    -0.267 OA
HETATM    2  C1  UNL     1      40.856  22.258  63.738  1.00  0.00     0.257 A 
HETATM    3  N1  UNL     1      39.688  22.702  63.283  1.00  0.00    -0.322 N 
ATOM      4  H1  UNL     1      39.191  22.181  62.559  1.00  0.00     0.169 HD
HETATM    5  C2  UNL     1      39.164  23.833  63.775  1.00  0.00     0.046 A 
HETATM    6  C3  UNL     1      37.939  24.291  63.292  1.00  0.00     0.030 A 
HETATM    7  C4  UNL     1      37.373  25.443  63.770  1.00  0.00     0.002 A 
HETATM    8  C5  UNL     1      38.047  26.121  64.732  1.00  0.00     0.001 A 
HETATM    9  C6  UNL     1      39.287  25.709  65.260  1.00  0.00     0.014 A 
HETATM   10  C7  UNL     1      39.837  24.566  64.776  1.00  0.00     0.004 A 
HETATM   11  C8  UNL     1      41.054  24.101  65.249  1.00  0.00     0.020 A 
HETATM   12  C9  UNL     1      41.557  22.928  64.711  1.00  0.00     0.045 A 
HETATM   13  C10 UNL     1      42.765  22.449  65.167  1.00  0.00     0.019 A 
HETATM   14  C11 UNL     1      43.451  23.129  66.136  1.00  0.00     0.018 A 
HETATM   15  C12 UNL     1      42.938  24.299  66.667  1.00  0.00     0.030 A 
HETATM   16  C13 UNL     1      43.700  24.915  67.639  1.00  0.00     0.114 A 
HETATM   17  S1  UNL     1      45.136  24.287  68.138  1.00  0.00    -0.059 SA
HETATM   18  N2  UNL     1      43.205  26.049  68.153  1.00  0.00    -0.343 N 
ATOM     19  H2  UNL     1      43.735  26.537  68.875  1.00  0.00     0.167 HD
HETATM   20  C14 UNL     1      42.041  26.558  67.750  1.00  0.00     0.182 A 
HETATM   21  N3  UNL     1      41.344  25.917  66.801  1.00  0.00    -0.351 N 
ATOM     22  H3  UNL     1      40.457  26.326  66.509  1.00  0.00     0.166 HD
HETATM   23  C15 UNL     1      41.722  24.799  66.219  1.00  0.00     0.058 A 
ENDROOT
TORSDOF 0
ENDMDL
