MODEL 1
REMARK VINA RESULT: -8.001246878      0.000      0.000
REMARK  8 active torsions:
REMARK  status: ('A' for Active; 'I' for Inactive)
REMARK    1  A    between atoms: C2_2  and  C4_4 
REMARK    2  A    between atoms: C2_2  and  C20_25 
REMARK    3  A    between atoms: C5_5  and  C7_8 
REMARK       I    between atoms: C7_8  and  N2_10 
REMARK    4  A    between atoms: N2_10  and  C8_12 
REMARK    5  A    between atoms: C8_12  and  C9_13 
REMARK    6  A    between atoms: N3_17  and  C13_18 
REMARK    7  A    between atoms: C13_18  and  C14_19 
REMARK    8  A    between atoms: C20_25  and  O2_26 
ROOT
HETATM    1  C4  UNL     1      56.983  23.434  35.297  1.00  0.00     0.012 C 
HETATM    2  C5  UNL     1      57.188  24.472  34.540  1.00  0.00     0.109 C 
HETATM    3  C6  UNL     1      57.635  25.721  35.070  1.00  0.00     0.105 C 
HETATM    4  N1  UNL     1      58.007  26.760  35.483  1.00  0.00    -0.191 NA
ENDROOT
BRANCH   2   5
HETATM    5  C7  UNL     1      56.963  24.396  33.107  1.00  0.00     0.262 C 
HETATM    6  O1  UNL     1      55.920  23.763  32.720  1.00  0.00    -0.267 OA
HETATM    7  N2  UNL     1      57.840  24.984  32.159  1.00  0.00    -0.354 N 
ATOM      8  H2  UNL     1      58.670  25.484  32.479  1.00  0.00     0.162 HD
BRANCH   7   9
HETATM    9  C8  UNL     1      57.568  24.878  30.750  1.00  0.00     0.148 C 
BRANCH   9  10
HETATM   10  C9  UNL     1      58.368  23.728  30.120  1.00  0.00     0.106 C 
HETATM   11  C10 UNL     1      59.653  24.364  29.621  1.00  0.00     0.032 C 
HETATM   12  C11 UNL     1      59.525  24.437  28.120  1.00  0.00     0.047 C 
HETATM   13  C12 UNL     1      58.201  23.772  27.801  1.00  0.00     0.063 C 
HETATM   14  N3  UNL     1      57.648  23.291  28.988  1.00  0.00    -0.367 N 
BRANCH  14  15
HETATM   15  C13 UNL     1      56.880  22.131  29.045  1.00  0.00     0.068 C 
BRANCH  15  16
HETATM   16  C14 UNL     1      57.018  21.142  27.927  1.00  0.00     0.024 C 
HETATM   17  C15 UNL     1      58.200  20.215  28.127  1.00  0.00     0.010 C 
HETATM   18  C16 UNL     1      57.778  18.814  28.457  1.00  0.00     0.001 C 
HETATM   19  C17 UNL     1      56.837  18.176  27.501  1.00  0.00     0.000 C 
HETATM   20  C18 UNL     1      55.983  19.174  26.789  1.00  0.00     0.001 C 
HETATM   21  C19 UNL     1      55.746  20.340  27.731  1.00  0.00     0.010 C 
ENDBRANCH  15  16
ENDBRANCH  14  15
ENDBRANCH   9  10
ENDBRANCH   7   9
ENDBRANCH   2   5
BRANCH   1  22
HETATM   22  C2  UNL     1      57.147  23.304  36.743  1.00  0.00    -0.007 C 
HETATM   23  C1  UNL     1      56.779  21.858  37.128  1.00  0.00     0.021 C 
HETATM   24  C3  UNL     1      58.559  23.499  37.210  1.00  0.00     0.021 C 
BRANCH  22  25
HETATM   25  C20 UNL     1      56.184  24.168  37.525  1.00  0.00     0.176 C 
BRANCH  25  26
HETATM   26  O2  UNL     1      56.762  25.240  38.158  1.00  0.00    -0.400 OA
ATOM     27  H2  UNL     1      57.291  25.015  38.914  1.00  0.00     0.209 HD
ENDBRANCH  25  26
ENDBRANCH  22  25
ENDBRANCH   1  22
TORSDOF 8
ENDMDL
MODEL 2
REMARK VINA RESULT: -7.941084994      0.460      1.077
REMARK  8 active torsions:
REMARK  status: ('A' for Active; 'I' for Inactive)
REMARK    1  A    between atoms: C2_2  and  C4_4 
REMARK    2  A    between atoms: C2_2  and  C20_25 
REMARK    3  A    between atoms: C5_5  and  C7_8 
REMARK       I    between atoms: C7_8  and  N2_10 
REMARK    4  A    between atoms: N2_10  and  C8_12 
REMARK    5  A    between atoms: C8_12  and  C9_13 
REMARK    6  A    between atoms: N3_17  and  C13_18 
REMARK    7  A    between atoms: C13_18  and  C14_19 
REMARK    8  A    between atoms: C20_25  and  O2_26 
ROOT
HETATM    1  C4  UNL     1      56.962  23.413  35.276  1.00  0.00     0.012 C 
HETATM    2  C5  UNL     1      57.153  24.425  34.483  1.00  0.00     0.109 C 
HETATM    3  C6  UNL     1      57.627  25.685  34.962  1.00  0.00     0.105 C 
HETATM    4  N1  UNL     1      58.021  26.731  35.334  1.00  0.00    -0.191 NA
ENDROOT
BRANCH   2   5
HETATM    5  C7  UNL     1      56.884  24.310  33.060  1.00  0.00     0.262 C 
HETATM    6  O1  UNL     1      55.871  23.606  32.721  1.00  0.00    -0.267 OA
HETATM    7  N2  UNL     1      57.690  24.934  32.073  1.00  0.00    -0.354 N 
ATOM      8  H2  UNL     1      58.497  25.491  32.355  1.00  0.00     0.162 HD
BRANCH   7   9
HETATM    9  C8  UNL     1      57.377  24.787  30.676  1.00  0.00     0.148 C 
BRANCH   9  10
HETATM   10  C9  UNL     1      58.178  23.634  30.052  1.00  0.00     0.106 C 
HETATM   11  C10 UNL     1      59.631  24.061  30.150  1.00  0.00     0.032 C 
HETATM   12  C11 UNL     1      60.046  24.447  28.752  1.00  0.00     0.047 C 
HETATM   13  C12 UNL     1      58.837  24.158  27.885  1.00  0.00     0.063 C 
HETATM   14  N3  UNL     1      57.844  23.589  28.682  1.00  0.00    -0.367 N 
BRANCH  14  15
HETATM   15  C13 UNL     1      56.950  22.634  28.204  1.00  0.00     0.068 C 
BRANCH  15  16
HETATM   16  C14 UNL     1      57.098  21.225  28.695  1.00  0.00     0.024 C 
HETATM   17  C15 UNL     1      55.883  20.378  28.376  1.00  0.00     0.010 C 
HETATM   18  C16 UNL     1      56.162  19.356  27.314  1.00  0.00     0.001 C 
HETATM   19  C17 UNL     1      57.312  18.451  27.568  1.00  0.00     0.000 C 
HETATM   20  C18 UNL     1      58.354  19.083  28.434  1.00  0.00     0.001 C 
HETATM   21  C19 UNL     1      58.354  20.573  28.150  1.00  0.00     0.010 C 
ENDBRANCH  15  16
ENDBRANCH  14  15
ENDBRANCH   9  10
ENDBRANCH   7   9
ENDBRANCH   2   5
BRANCH   1  22
HETATM   22  C2  UNL     1      57.168  23.323  36.720  1.00  0.00    -0.007 C 
HETATM   23  C1  UNL     1      56.809  21.890  37.157  1.00  0.00     0.021 C 
HETATM   24  C3  UNL     1      58.593  23.528  37.140  1.00  0.00     0.021 C 
BRANCH  22  25
HETATM   25  C20 UNL     1      56.229  24.211  37.505  1.00  0.00     0.176 C 
BRANCH  25  26
HETATM   26  O2  UNL     1      56.817  25.326  38.048  1.00  0.00    -0.400 OA
ATOM     27  H2  UNL     1      56.224  26.054  38.197  1.00  0.00     0.209 HD
ENDBRANCH  25  26
ENDBRANCH  22  25
ENDBRANCH   1  22
TORSDOF 8
ENDMDL
MODEL 3
REMARK VINA RESULT: -7.760625731      3.975      9.106
REMARK  8 active torsions:
REMARK  status: ('A' for Active; 'I' for Inactive)
REMARK    1  A    between atoms: C2_2  and  C4_4 
REMARK    2  A    between atoms: C2_2  and  C20_25 
REMARK    3  A    between atoms: C5_5  and  C7_8 
REMARK       I    between atoms: C7_8  and  N2_10 
REMARK    4  A    between atoms: N2_10  and  C8_12 
REMARK    5  A    between atoms: C8_12  and  C9_13 
REMARK    6  A    between atoms: N3_17  and  C13_18 
REMARK    7  A    between atoms: C13_18  and  C14_19 
REMARK    8  A    between atoms: C20_25  and  O2_26 
ROOT
HETATM    1  C4  UNL     1      57.486  25.209  33.827  1.00  0.00     0.012 C 
HETATM    2  C5  UNL     1      57.358  24.618  34.978  1.00  0.00     0.109 C 
HETATM    3  C6  UNL     1      57.245  23.198  35.093  1.00  0.00     0.105 C 
HETATM    4  N1  UNL     1      57.154  22.030  35.212  1.00  0.00    -0.191 NA
ENDROOT
BRANCH   2   5
HETATM    5  C7  UNL     1      57.324  25.392  36.206  1.00  0.00     0.262 C 
HETATM    6  O1  UNL     1      57.940  26.514  36.198  1.00  0.00    -0.267 OA
HETATM    7  N2  UNL     1      56.649  24.951  37.374  1.00  0.00    -0.354 N 
ATOM      8  H2  UNL     1      56.163  24.054  37.370  1.00  0.00     0.162 HD
BRANCH   7   9
HETATM    9  C8  UNL     1      56.646  25.760  38.564  1.00  0.00     0.148 C 
BRANCH   9  10
HETATM   10  C9  UNL     1      55.647  25.216  39.596  1.00  0.00     0.106 C 
HETATM   11  C10 UNL     1      55.146  26.436  40.347  1.00  0.00     0.032 C 
HETATM   12  C11 UNL     1      55.809  26.392  41.701  1.00  0.00     0.047 C 
HETATM   13  C12 UNL     1      56.611  25.106  41.709  1.00  0.00     0.063 C 
HETATM   14  N3  UNL     1      56.380  24.430  40.510  1.00  0.00    -0.367 N 
BRANCH  14  15
HETATM   15  C13 UNL     1      56.361  23.041  40.422  1.00  0.00     0.068 C 
BRANCH  15  16
HETATM   16  C14 UNL     1      55.367  22.409  39.494  1.00  0.00     0.024 C 
HETATM   17  C15 UNL     1      56.010  21.393  38.573  1.00  0.00     0.010 C 
HETATM   18  C16 UNL     1      55.622  19.985  38.914  1.00  0.00     0.001 C 
HETATM   19  C17 UNL     1      54.164  19.709  38.973  1.00  0.00     0.000 C 
HETATM   20  C18 UNL     1      53.368  20.921  39.335  1.00  0.00     0.001 C 
HETATM   21  C19 UNL     1      54.217  21.778  40.255  1.00  0.00     0.010 C 
ENDBRANCH  15  16
ENDBRANCH  14  15
ENDBRANCH   9  10
ENDBRANCH   7   9
ENDBRANCH   2   5
BRANCH   1  22
HETATM   22  C2  UNL     1      57.541  24.621  32.491  1.00  0.00    -0.007 C 
HETATM   23  C1  UNL     1      58.770  23.694  32.437  1.00  0.00     0.021 C 
HETATM   24  C3  UNL     1      56.364  23.750  32.166  1.00  0.00     0.021 C 
BRANCH  22  25
HETATM   25  C20 UNL     1      57.784  25.646  31.405  1.00  0.00     0.176 C 
BRANCH  25  26
HETATM   26  O2  UNL     1      57.040  26.792  31.524  1.00  0.00    -0.400 OA
ATOM     27  H2  UNL     1      56.225  26.789  31.035  1.00  0.00     0.209 HD
ENDBRANCH  25  26
ENDBRANCH  22  25
ENDBRANCH   1  22
TORSDOF 8
ENDMDL
MODEL 4
REMARK VINA RESULT: -7.657125789      4.280      7.848
REMARK  8 active torsions:
REMARK  status: ('A' for Active; 'I' for Inactive)
REMARK    1  A    between atoms: C2_2  and  C4_4 
REMARK    2  A    between atoms: C2_2  and  C20_25 
REMARK    3  A    between atoms: C5_5  and  C7_8 
REMARK       I    between atoms: C7_8  and  N2_10 
REMARK    4  A    between atoms: N2_10  and  C8_12 
REMARK    5  A    between atoms: C8_12  and  C9_13 
REMARK    6  A    between atoms: N3_17  and  C13_18 
REMARK    7  A    between atoms: C13_18  and  C14_19 
REMARK    8  A    between atoms: C20_25  and  O2_26 
ROOT
HETATM    1  C4  UNL     1      54.888  24.589  42.324  1.00  0.00     0.012 C 
HETATM    2  C5  UNL     1      55.345  25.732  41.907  1.00  0.00     0.109 C 
HETATM    3  C6  UNL     1      55.167  26.938  42.653  1.00  0.00     0.105 C 
HETATM    4  N1  UNL     1      55.037  27.944  43.253  1.00  0.00    -0.191 NA
ENDROOT
BRANCH   2   5
HETATM    5  C7  UNL     1      56.062  25.826  40.647  1.00  0.00     0.262 C 
HETATM    6  O1  UNL     1      57.140  26.515  40.647  1.00  0.00    -0.267 OA
HETATM    7  N2  UNL     1      55.611  25.195  39.459  1.00  0.00    -0.354 N 
ATOM      8  H2  UNL     1      54.749  24.650  39.470  1.00  0.00     0.162 HD
BRANCH   7   9
HETATM    9  C8  UNL     1      56.362  25.320  38.237  1.00  0.00     0.148 C 
BRANCH   9  10
HETATM   10  C9  UNL     1      56.065  24.150  37.287  1.00  0.00     0.106 C 
HETATM   11  C10 UNL     1      55.370  23.109  38.144  1.00  0.00     0.032 C 
HETATM   12  C11 UNL     1      56.383  22.016  38.374  1.00  0.00     0.047 C 
HETATM   13  C12 UNL     1      57.605  22.432  37.579  1.00  0.00     0.063 C 
HETATM   14  N3  UNL     1      57.307  23.610  36.892  1.00  0.00    -0.367 N 
BRANCH  14  15
HETATM   15  C13 UNL     1      57.841  23.907  35.641  1.00  0.00     0.068 C 
BRANCH  15  16
HETATM   16  C14 UNL     1      56.887  24.182  34.518  1.00  0.00     0.024 C 
HETATM   17  C15 UNL     1      57.449  25.174  33.520  1.00  0.00     0.010 C 
HETATM   18  C16 UNL     1      57.800  24.533  32.211  1.00  0.00     0.001 C 
HETATM   19  C17 UNL     1      56.713  23.767  31.549  1.00  0.00     0.000 C 
HETATM   20  C18 UNL     1      55.728  23.216  32.528  1.00  0.00     0.001 C 
HETATM   21  C19 UNL     1      56.471  22.905  33.813  1.00  0.00     0.010 C 
ENDBRANCH  15  16
ENDBRANCH  14  15
ENDBRANCH   9  10
ENDBRANCH   7   9
ENDBRANCH   2   5
BRANCH   1  22
HETATM   22  C2  UNL     1      54.149  24.284  43.547  1.00  0.00    -0.007 C 
HETATM   23  C1  UNL     1      53.759  22.794  43.501  1.00  0.00     0.021 C 
HETATM   24  C3  UNL     1      54.958  24.450  44.799  1.00  0.00     0.021 C 
BRANCH  22  25
HETATM   25  C20 UNL     1      52.833  25.024  43.640  1.00  0.00     0.176 C 
BRANCH  25  26
HETATM   26  O2  UNL     1      52.059  24.960  42.508  1.00  0.00    -0.400 OA
ATOM     27  H2  UNL     1      51.687  24.104  42.331  1.00  0.00     0.209 HD
ENDBRANCH  25  26
ENDBRANCH  22  25
ENDBRANCH   1  22
TORSDOF 8
ENDMDL
MODEL 5
REMARK VINA RESULT: -7.648552224      2.811      9.403
REMARK  8 active torsions:
REMARK  status: ('A' for Active; 'I' for Inactive)
REMARK    1  A    between atoms: C2_2  and  C4_4 
REMARK    2  A    between atoms: C2_2  and  C20_25 
REMARK    3  A    between atoms: C5_5  and  C7_8 
REMARK       I    between atoms: C7_8  and  N2_10 
REMARK    4  A    between atoms: N2_10  and  C8_12 
REMARK    5  A    between atoms: C8_12  and  C9_13 
REMARK    6  A    between atoms: N3_17  and  C13_18 
REMARK    7  A    between atoms: C13_18  and  C14_19 
REMARK    8  A    between atoms: C20_25  and  O2_26 
ROOT
HETATM    1  C4  UNL     1      58.841  24.765  30.466  1.00  0.00     0.012 C 
HETATM    2  C5  UNL     1      57.777  24.630  31.203  1.00  0.00     0.109 C 
HETATM    3  C6  UNL     1      56.729  23.721  30.862  1.00  0.00     0.105 C 
HETATM    4  N1  UNL     1      55.854  22.975  30.603  1.00  0.00    -0.191 NA
ENDROOT
BRANCH   2   5
HETATM    5  C7  UNL     1      57.614  25.414  32.415  1.00  0.00     0.262 C 
HETATM    6  O1  UNL     1      57.434  26.672  32.268  1.00  0.00    -0.267 OA
HETATM    7  N2  UNL     1      57.650  24.839  33.712  1.00  0.00    -0.354 N 
ATOM      8  H2  UNL     1      57.796  23.835  33.817  1.00  0.00     0.162 HD
BRANCH   7   9
HETATM    9  C8  UNL     1      57.482  25.663  34.879  1.00  0.00     0.148 C 
BRANCH   9  10
HETATM   10  C9  UNL     1      57.889  24.904  36.151  1.00  0.00     0.106 C 
HETATM   11  C10 UNL     1      58.196  23.491  35.690  1.00  0.00     0.032 C 
HETATM   12  C11 UNL     1      57.038  22.642  36.151  1.00  0.00     0.047 C 
HETATM   13  C12 UNL     1      56.140  23.584  36.928  1.00  0.00     0.063 C 
HETATM   14  N3  UNL     1      56.749  24.838  36.980  1.00  0.00    -0.367 N 
BRANCH  14  15
HETATM   15  C13 UNL     1      56.618  25.694  38.070  1.00  0.00     0.068 C 
BRANCH  15  16
HETATM   16  C14 UNL     1      56.044  25.135  39.337  1.00  0.00     0.024 C 
HETATM   17  C15 UNL     1      57.118  24.598  40.262  1.00  0.00     0.010 C 
HETATM   18  C16 UNL     1      57.303  25.453  41.480  1.00  0.00     0.001 C 
HETATM   19  C17 UNL     1      56.080  25.717  42.282  1.00  0.00     0.000 C 
HETATM   20  C18 UNL     1      54.837  25.674  41.455  1.00  0.00     0.001 C 
HETATM   21  C19 UNL     1      55.187  26.156  40.060  1.00  0.00     0.010 C 
ENDBRANCH  15  16
ENDBRANCH  14  15
ENDBRANCH   9  10
ENDBRANCH   7   9
ENDBRANCH   2   5
BRANCH   1  22
HETATM   22  C2  UNL     1      59.193  24.081  29.224  1.00  0.00    -0.007 C 
HETATM   23  C1  UNL     1      60.603  24.547  28.815  1.00  0.00     0.021 C 
HETATM   24  C3  UNL     1      59.285  22.590  29.361  1.00  0.00     0.021 C 
BRANCH  22  25
HETATM   25  C20 UNL     1      58.305  24.473  28.064  1.00  0.00     0.176 C 
BRANCH  25  26
HETATM   26  O2  UNL     1      57.384  23.523  27.702  1.00  0.00    -0.400 OA
ATOM     27  H2  UNL     1      57.392  23.294  26.780  1.00  0.00     0.209 HD
ENDBRANCH  25  26
ENDBRANCH  22  25
ENDBRANCH   1  22
TORSDOF 8
ENDMDL
