MODEL 1
REMARK VINA RESULT: -7.519687233      0.000      0.000
REMARK  13 active torsions:
REMARK  status: ('A' for Active; 'I' for Inactive)
REMARK    1  A    between atoms: C2_2  and  C3_3 
REMARK    2  A    between atoms: C3_3  and  N1_4 
REMARK    3  A    between atoms: N1_4  and  C4_6 
REMARK    4  A    between atoms: C4_6  and  O1_7 
REMARK    5  A    between atoms: C4_6  and  N2_9 
REMARK    6  A    between atoms: N2_9  and  C5_11 
REMARK    7  A    between atoms: C5_11  and  O2_12 
REMARK    8  A    between atoms: C5_11  and  C6_14 
REMARK    9  A    between atoms: C6_14  and  O3_15 
REMARK   10  A    between atoms: O3_15  and  C7_16 
REMARK   11  A    between atoms: C7_16  and  C8_18 
REMARK   12  A    between atoms: C8_18  and  C9_19 
REMARK   13  A    between atoms: C11_21  and  C12_22 
ROOT
HETATM    1  C6  UNL     1      58.391  24.614  32.063  1.00  0.00     0.262 C 
ENDROOT
BRANCH   1   2
HETATM    2  C5  UNL     1      57.668  25.411  31.097  1.00  0.00     0.143 C 
BRANCH   2   3
HETATM    3  N2  UNL     1      57.434  25.190  29.751  1.00  0.00    -0.305 N 
ATOM      4  H2  UNL     1      57.659  25.971  29.134  1.00  0.00     0.171 HD
BRANCH   3   5
HETATM    5  C4  UNL     1      56.932  24.047  29.117  1.00  0.00     0.218 C 
BRANCH   5   6
HETATM    6  N1  UNL     1      56.730  22.776  29.669  1.00  0.00    -0.353 N 
ATOM      7  H1  UNL     1      56.236  22.654  30.553  1.00  0.00     0.163 HD
BRANCH   6   8
HETATM    8  C3  UNL     1      57.263  21.615  28.917  1.00  0.00     0.149 C 
BRANCH   8   9
HETATM    9  C2  UNL     1      56.142  20.733  28.567  1.00  0.00    -0.018 C 
HETATM   10  C1  UNL     1      56.314  19.458  28.247  1.00  0.00     0.008 C 
ENDBRANCH   8   9
ENDBRANCH   6   8
ENDBRANCH   5   6
BRANCH   5  11
HETATM   11  O1  UNL     1      56.610  24.169  27.857  1.00  0.00    -0.332 OA
ATOM     12  H1  UNL     1      56.927  24.957  27.430  1.00  0.00     0.220 HD
ENDBRANCH   5  11
ENDBRANCH   3   5
ENDBRANCH   2   3
BRANCH   2  13
HETATM   13  O2  UNL     1      57.151  26.515  31.557  1.00  0.00    -0.348 OA
ATOM     14  H2  UNL     1      57.675  27.290  31.390  1.00  0.00     0.219 HD
ENDBRANCH   2  13
ENDBRANCH   1   2
BRANCH   1  15
HETATM   15  O3  UNL     1      57.669  23.468  32.511  1.00  0.00    -0.313 OA
BRANCH  15  16
HETATM   16  C7  UNL     1      56.450  23.493  33.139  1.00  0.00     0.259 C 
HETATM   17  O4  UNL     1      55.460  22.980  32.566  1.00  0.00    -0.265 OA
BRANCH  16  18
HETATM   18  C8  UNL     1      56.254  24.111  34.481  1.00  0.00     0.121 C 
BRANCH  18  19
HETATM   19  C9  UNL     1      56.834  23.265  35.584  1.00  0.00    -0.020 A 
HETATM   20  C10 UNL     1      57.315  21.908  35.164  1.00  0.00     0.017 C 
HETATM   21  C11 UNL     1      56.202  23.302  36.951  1.00  0.00     0.026 A 
HETATM   22  C16 UNL     1      57.481  23.994  36.703  1.00  0.00    -0.032 A 
HETATM   23  C17 UNL     1      58.790  23.433  37.178  1.00  0.00     0.016 C 
HETATM   24  C18 UNL     1      57.410  25.502  36.684  1.00  0.00     0.016 C 
BRANCH  21  25
HETATM   25  C12 UNL     1      56.275  22.092  37.810  1.00  0.00    -0.019 C 
HETATM   26  C13 UNL     1      55.316  21.751  38.648  1.00  0.00    -0.091 C 
HETATM   27  C14 UNL     1      55.437  20.535  39.482  1.00  0.00     0.042 C 
HETATM   28  C15 UNL     1      54.098  22.588  38.766  1.00  0.00     0.042 C 
ENDBRANCH  21  25
ENDBRANCH  18  19
ENDBRANCH  16  18
ENDBRANCH  15  16
ENDBRANCH   1  15
TORSDOF 13
ENDMDL
MODEL 2
REMARK VINA RESULT: -7.096091005      1.336      2.052
REMARK  13 active torsions:
REMARK  status: ('A' for Active; 'I' for Inactive)
REMARK    1  A    between atoms: C2_2  and  C3_3 
REMARK    2  A    between atoms: C3_3  and  N1_4 
REMARK    3  A    between atoms: N1_4  and  C4_6 
REMARK    4  A    between atoms: C4_6  and  O1_7 
REMARK    5  A    between atoms: C4_6  and  N2_9 
REMARK    6  A    between atoms: N2_9  and  C5_11 
REMARK    7  A    between atoms: C5_11  and  O2_12 
REMARK    8  A    between atoms: C5_11  and  C6_14 
REMARK    9  A    between atoms: C6_14  and  O3_15 
REMARK   10  A    between atoms: O3_15  and  C7_16 
REMARK   11  A    between atoms: C7_16  and  C8_18 
REMARK   12  A    between atoms: C8_18  and  C9_19 
REMARK   13  A    between atoms: C11_21  and  C12_22 
ROOT
HETATM    1  C6  UNL     1      58.435  24.410  32.254  1.00  0.00     0.262 C 
ENDROOT
BRANCH   1   2
HETATM    2  C5  UNL     1      57.695  25.273  31.361  1.00  0.00     0.143 C 
BRANCH   2   3
HETATM    3  N2  UNL     1      57.458  25.163  30.002  1.00  0.00    -0.305 N 
ATOM      4  H2  UNL     1      57.682  25.992  29.450  1.00  0.00     0.171 HD
BRANCH   3   5
HETATM    5  C4  UNL     1      56.956  24.076  29.278  1.00  0.00     0.218 C 
BRANCH   5   6
HETATM    6  N1  UNL     1      56.795  22.754  29.712  1.00  0.00    -0.353 N 
ATOM      7  H1  UNL     1      56.358  22.539  30.608  1.00  0.00     0.163 HD
BRANCH   6   8
HETATM    8  C3  UNL     1      57.285  21.679  28.816  1.00  0.00     0.149 C 
BRANCH   8   9
HETATM    9  C2  UNL     1      56.146  20.833  28.436  1.00  0.00    -0.018 C 
HETATM   10  C1  UNL     1      56.251  19.518  28.303  1.00  0.00     0.008 C 
ENDBRANCH   8   9
ENDBRANCH   6   8
ENDBRANCH   5   6
BRANCH   5  11
HETATM   11  O1  UNL     1      56.589  24.310  28.047  1.00  0.00    -0.332 OA
ATOM     12  H1  UNL     1      55.738  23.963  27.802  1.00  0.00     0.220 HD
ENDBRANCH   5  11
ENDBRANCH   3   5
ENDBRANCH   2   3
BRANCH   2  13
HETATM   13  O2  UNL     1      57.162  26.327  31.914  1.00  0.00    -0.348 OA
ATOM     14  H2  UNL     1      57.536  27.150  31.625  1.00  0.00     0.219 HD
ENDBRANCH   2  13
ENDBRANCH   1   2
BRANCH   1  15
HETATM   15  O3  UNL     1      57.667  23.319  32.758  1.00  0.00    -0.313 OA
BRANCH  15  16
HETATM   16  C7  UNL     1      56.819  23.376  33.834  1.00  0.00     0.259 C 
HETATM   17  O4  UNL     1      55.854  24.175  33.807  1.00  0.00    -0.265 OA
BRANCH  16  18
HETATM   18  C8  UNL     1      57.000  22.521  35.041  1.00  0.00     0.121 C 
BRANCH  18  19
HETATM   19  C9  UNL     1      57.578  23.290  36.199  1.00  0.00    -0.020 A 
HETATM   20  C10 UNL     1      58.783  24.123  35.876  1.00  0.00     0.017 C 
HETATM   21  C11 UNL     1      57.616  22.651  37.564  1.00  0.00     0.026 A 
HETATM   22  C16 UNL     1      56.625  23.702  37.259  1.00  0.00    -0.032 A 
HETATM   23  C17 UNL     1      56.780  25.105  37.768  1.00  0.00     0.016 C 
HETATM   24  C18 UNL     1      55.197  23.230  37.133  1.00  0.00     0.016 C 
BRANCH  21  25
HETATM   25  C12 UNL     1      58.698  23.032  38.507  1.00  0.00    -0.019 C 
HETATM   26  C13 UNL     1      58.725  22.635  39.763  1.00  0.00    -0.091 C 
HETATM   27  C14 UNL     1      59.826  23.042  40.664  1.00  0.00     0.042 C 
HETATM   28  C15 UNL     1      57.643  21.768  40.293  1.00  0.00     0.042 C 
ENDBRANCH  21  25
ENDBRANCH  18  19
ENDBRANCH  16  18
ENDBRANCH  15  16
ENDBRANCH   1  15
TORSDOF 13
ENDMDL
MODEL 3
REMARK VINA RESULT: -7.078775123      2.242      3.008
REMARK  13 active torsions:
REMARK  status: ('A' for Active; 'I' for Inactive)
REMARK    1  A    between atoms: C2_2  and  C3_3 
REMARK    2  A    between atoms: C3_3  and  N1_4 
REMARK    3  A    between atoms: N1_4  and  C4_6 
REMARK    4  A    between atoms: C4_6  and  O1_7 
REMARK    5  A    between atoms: C4_6  and  N2_9 
REMARK    6  A    between atoms: N2_9  and  C5_11 
REMARK    7  A    between atoms: C5_11  and  O2_12 
REMARK    8  A    between atoms: C5_11  and  C6_14 
REMARK    9  A    between atoms: C6_14  and  O3_15 
REMARK   10  A    between atoms: O3_15  and  C7_16 
REMARK   11  A    between atoms: C7_16  and  C8_18 
REMARK   12  A    between atoms: C8_18  and  C9_19 
REMARK   13  A    between atoms: C11_21  and  C12_22 
ROOT
HETATM    1  C6  UNL     1      56.637  23.342  33.662  1.00  0.00     0.262 C 
ENDROOT
BRANCH   1   2
HETATM    2  C5  UNL     1      56.092  23.635  32.356  1.00  0.00     0.143 C 
BRANCH   2   3
HETATM    3  N2  UNL     1      56.707  24.135  31.221  1.00  0.00    -0.305 N 
ATOM      4  H2  UNL     1      56.473  23.659  30.350  1.00  0.00     0.171 HD
BRANCH   3   5
HETATM    5  C4  UNL     1      57.606  25.202  31.101  1.00  0.00     0.218 C 
BRANCH   5   6
HETATM    6  N1  UNL     1      58.909  25.175  30.588  1.00  0.00    -0.353 N 
ATOM      7  H1  UNL     1      59.669  25.678  31.045  1.00  0.00     0.163 HD
BRANCH   6   8
HETATM    8  C3  UNL     1      59.138  24.387  29.353  1.00  0.00     0.149 C 
BRANCH   8   9
HETATM    9  C2  UNL     1      60.284  23.496  29.576  1.00  0.00    -0.018 C 
HETATM   10  C1  UNL     1      60.371  22.701  30.634  1.00  0.00     0.008 C 
ENDBRANCH   8   9
ENDBRANCH   6   8
ENDBRANCH   5   6
BRANCH   5  11
HETATM   11  O1  UNL     1      57.190  26.368  31.514  1.00  0.00    -0.332 OA
ATOM     12  H1  UNL     1      56.259  26.529  31.413  1.00  0.00     0.220 HD
ENDBRANCH   5  11
ENDBRANCH   3   5
ENDBRANCH   2   3
BRANCH   2  13
HETATM   13  O2  UNL     1      54.819  23.395  32.213  1.00  0.00    -0.348 OA
ATOM     14  H2  UNL     1      54.578  22.484  32.332  1.00  0.00     0.219 HD
ENDBRANCH   2  13
ENDBRANCH   1   2
BRANCH   1  15
HETATM   15  O3  UNL     1      56.348  24.342  34.638  1.00  0.00    -0.313 OA
BRANCH  15  16
HETATM   16  C7  UNL     1      57.259  25.218  35.170  1.00  0.00     0.259 C 
HETATM   17  O4  UNL     1      58.087  25.772  34.409  1.00  0.00    -0.265 OA
BRANCH  16  18
HETATM   18  C8  UNL     1      57.305  25.539  36.625  1.00  0.00     0.121 C 
BRANCH  18  19
HETATM   19  C9  UNL     1      57.343  24.299  37.478  1.00  0.00    -0.020 A 
HETATM   20  C10 UNL     1      58.465  23.349  37.176  1.00  0.00     0.017 C 
HETATM   21  C11 UNL     1      56.050  23.626  37.861  1.00  0.00     0.026 A 
HETATM   22  C16 UNL     1      56.797  24.426  38.851  1.00  0.00    -0.032 A 
HETATM   23  C17 UNL     1      57.606  23.782  39.939  1.00  0.00     0.016 C 
HETATM   24  C18 UNL     1      56.165  25.744  39.230  1.00  0.00     0.016 C 
BRANCH  21  25
HETATM   25  C12 UNL     1      56.042  22.158  38.085  1.00  0.00    -0.019 C 
HETATM   26  C13 UNL     1      55.011  21.519  38.600  1.00  0.00    -0.091 C 
HETATM   27  C14 UNL     1      55.052  20.054  38.803  1.00  0.00     0.042 C 
HETATM   28  C15 UNL     1      53.788  22.266  38.984  1.00  0.00     0.042 C 
ENDBRANCH  21  25
ENDBRANCH  18  19
ENDBRANCH  16  18
ENDBRANCH  15  16
ENDBRANCH   1  15
TORSDOF 13
ENDMDL
MODEL 4
REMARK VINA RESULT: -7.019387946      1.581      2.721
REMARK  13 active torsions:
REMARK  status: ('A' for Active; 'I' for Inactive)
REMARK    1  A    between atoms: C2_2  and  C3_3 
REMARK    2  A    between atoms: C3_3  and  N1_4 
REMARK    3  A    between atoms: N1_4  and  C4_6 
REMARK    4  A    between atoms: C4_6  and  O1_7 
REMARK    5  A    between atoms: C4_6  and  N2_9 
REMARK    6  A    between atoms: N2_9  and  C5_11 
REMARK    7  A    between atoms: C5_11  and  O2_12 
REMARK    8  A    between atoms: C5_11  and  C6_14 
REMARK    9  A    between atoms: C6_14  and  O3_15 
REMARK   10  A    between atoms: O3_15  and  C7_16 
REMARK   11  A    between atoms: C7_16  and  C8_18 
REMARK   12  A    between atoms: C8_18  and  C9_19 
REMARK   13  A    between atoms: C11_21  and  C12_22 
ROOT
HETATM    1  C6  UNL     1      56.501  23.203  34.156  1.00  0.00     0.262 C 
ENDROOT
BRANCH   1   2
HETATM    2  C5  UNL     1      56.580  23.418  32.729  1.00  0.00     0.143 C 
BRANCH   2   3
HETATM    3  N2  UNL     1      57.555  24.044  31.970  1.00  0.00    -0.305 N 
ATOM      4  H2  UNL     1      58.488  23.634  32.031  1.00  0.00     0.171 HD
BRANCH   3   5
HETATM    5  C4  UNL     1      57.441  25.159  31.132  1.00  0.00     0.218 C 
BRANCH   5   6
HETATM    6  N1  UNL     1      57.429  25.185  29.732  1.00  0.00    -0.353 N 
ATOM      7  H1  UNL     1      57.185  26.033  29.220  1.00  0.00     0.163 HD
BRANCH   6   8
HETATM    8  C3  UNL     1      57.786  23.933  29.025  1.00  0.00     0.149 C 
BRANCH   8   9
HETATM    9  C2  UNL     1      56.547  23.229  28.669  1.00  0.00    -0.018 C 
HETATM   10  C1  UNL     1      56.434  21.909  28.740  1.00  0.00     0.008 C 
ENDBRANCH   8   9
ENDBRANCH   6   8
ENDBRANCH   5   6
BRANCH   5  11
HETATM   11  O1  UNL     1      57.333  26.323  31.715  1.00  0.00    -0.332 OA
ATOM     12  H1  UNL     1      56.862  26.323  32.541  1.00  0.00     0.220 HD
ENDBRANCH   5  11
ENDBRANCH   3   5
ENDBRANCH   2   3
BRANCH   2  13
HETATM   13  O2  UNL     1      55.580  22.952  32.035  1.00  0.00    -0.348 OA
ATOM     14  H2  UNL     1      55.206  22.151  32.380  1.00  0.00     0.219 HD
ENDBRANCH   2  13
ENDBRANCH   1   2
BRANCH   1  15
HETATM   15  O3  UNL     1      56.256  24.396  34.899  1.00  0.00    -0.313 OA
BRANCH  15  16
HETATM   16  C7  UNL     1      57.222  25.221  35.416  1.00  0.00     0.259 C 
HETATM   17  O4  UNL     1      58.050  25.751  34.638  1.00  0.00    -0.265 OA
BRANCH  16  18
HETATM   18  C8  UNL     1      57.326  25.514  36.873  1.00  0.00     0.121 C 
BRANCH  18  19
HETATM   19  C9  UNL     1      57.315  24.260  37.706  1.00  0.00    -0.020 A 
HETATM   20  C10 UNL     1      58.401  23.274  37.393  1.00  0.00     0.017 C 
HETATM   21  C11 UNL     1      55.996  23.630  38.074  1.00  0.00     0.026 A 
HETATM   22  C16 UNL     1      56.768  24.385  39.080  1.00  0.00    -0.032 A 
HETATM   23  C17 UNL     1      57.549  23.693  40.159  1.00  0.00     0.016 C 
HETATM   24  C18 UNL     1      56.186  25.720  39.478  1.00  0.00     0.016 C 
BRANCH  21  25
HETATM   25  C12 UNL     1      55.931  22.160  38.274  1.00  0.00    -0.019 C 
HETATM   26  C13 UNL     1      54.842  21.542  38.684  1.00  0.00    -0.091 C 
HETATM   27  C14 UNL     1      54.829  20.073  38.867  1.00  0.00     0.042 C 
HETATM   28  C15 UNL     1      53.609  22.315  38.969  1.00  0.00     0.042 C 
ENDBRANCH  21  25
ENDBRANCH  18  19
ENDBRANCH  16  18
ENDBRANCH  15  16
ENDBRANCH   1  15
TORSDOF 13
ENDMDL
MODEL 5
REMARK VINA RESULT: -7.014560179      1.492      1.940
REMARK  13 active torsions:
REMARK  status: ('A' for Active; 'I' for Inactive)
REMARK    1  A    between atoms: C2_2  and  C3_3 
REMARK    2  A    between atoms: C3_3  and  N1_4 
REMARK    3  A    between atoms: N1_4  and  C4_6 
REMARK    4  A    between atoms: C4_6  and  O1_7 
REMARK    5  A    between atoms: C4_6  and  N2_9 
REMARK    6  A    between atoms: N2_9  and  C5_11 
REMARK    7  A    between atoms: C5_11  and  O2_12 
REMARK    8  A    between atoms: C5_11  and  C6_14 
REMARK    9  A    between atoms: C6_14  and  O3_15 
REMARK   10  A    between atoms: O3_15  and  C7_16 
REMARK   11  A    between atoms: C7_16  and  C8_18 
REMARK   12  A    between atoms: C8_18  and  C9_19 
REMARK   13  A    between atoms: C11_21  and  C12_22 
ROOT
HETATM    1  C6  UNL     1      58.253  25.950  33.247  1.00  0.00     0.262 C 
ENDROOT
BRANCH   1   2
HETATM    2  C5  UNL     1      57.660  25.646  31.964  1.00  0.00     0.143 C 
BRANCH   2   3
HETATM    3  N2  UNL     1      57.604  24.453  31.265  1.00  0.00    -0.305 N 
ATOM      4  H2  UNL     1      58.496  24.119  30.897  1.00  0.00     0.171 HD
BRANCH   3   5
HETATM    5  C4  UNL     1      56.498  23.640  30.991  1.00  0.00     0.218 C 
BRANCH   5   6
HETATM    6  N1  UNL     1      56.331  22.744  29.928  1.00  0.00    -0.353 N 
ATOM      7  H1  UNL     1      55.433  22.292  29.751  1.00  0.00     0.163 HD
BRANCH   6   8
HETATM    8  C3  UNL     1      57.509  22.478  29.070  1.00  0.00     0.149 C 
BRANCH   8   9
HETATM    9  C2  UNL     1      57.286  21.219  28.348  1.00  0.00    -0.018 C 
HETATM   10  C1  UNL     1      56.135  20.563  28.402  1.00  0.00     0.008 C 
ENDBRANCH   8   9
ENDBRANCH   6   8
ENDBRANCH   5   6
BRANCH   5  11
HETATM   11  O1  UNL     1      55.493  23.719  31.822  1.00  0.00    -0.332 OA
ATOM     12  H1  UNL     1      55.598  24.341  32.532  1.00  0.00     0.220 HD
ENDBRANCH   5  11
ENDBRANCH   3   5
ENDBRANCH   2   3
BRANCH   2  13
HETATM   13  O2  UNL     1      57.085  26.648  31.361  1.00  0.00    -0.348 OA
ATOM     14  H2  UNL     1      56.337  27.005  31.824  1.00  0.00     0.219 HD
ENDBRANCH   2  13
ENDBRANCH   1   2
BRANCH   1  15
HETATM   15  O3  UNL     1      58.155  24.882  34.188  1.00  0.00    -0.313 OA
BRANCH  15  16
HETATM   16  C7  UNL     1      57.103  24.670  35.041  1.00  0.00     0.259 C 
HETATM   17  O4  UNL     1      56.085  24.074  34.615  1.00  0.00    -0.265 OA
BRANCH  16  18
HETATM   18  C8  UNL     1      57.120  25.122  36.461  1.00  0.00     0.121 C 
BRANCH  18  19
HETATM   19  C9  UNL     1      57.073  23.966  37.424  1.00  0.00    -0.020 A 
HETATM   20  C10 UNL     1      58.091  22.890  37.184  1.00  0.00     0.017 C 
HETATM   21  C11 UNL     1      55.737  23.456  37.901  1.00  0.00     0.026 A 
HETATM   22  C16 UNL     1      56.587  24.267  38.793  1.00  0.00    -0.032 A 
HETATM   23  C17 UNL     1      57.370  23.650  39.915  1.00  0.00     0.016 C 
HETATM   24  C18 UNL     1      56.094  25.669  39.064  1.00  0.00     0.016 C 
BRANCH  21  25
HETATM   25  C12 UNL     1      55.600  22.022  38.261  1.00  0.00    -0.019 C 
HETATM   26  C13 UNL     1      54.496  21.515  38.772  1.00  0.00    -0.091 C 
HETATM   27  C14 UNL     1      54.410  20.078  39.114  1.00  0.00     0.042 C 
HETATM   28  C15 UNL     1      53.319  22.385  39.013  1.00  0.00     0.042 C 
ENDBRANCH  21  25
ENDBRANCH  18  19
ENDBRANCH  16  18
ENDBRANCH  15  16
ENDBRANCH   1  15
TORSDOF 13
ENDMDL
