MODEL 1
REMARK VINA RESULT: -6.874326803      0.000      0.000
REMARK  8 active torsions:
REMARK  status: ('A' for Active; 'I' for Inactive)
REMARK    1  A    between atoms: C2_2  and  N1_4 
REMARK    2  A    between atoms: N1_4  and  S1_6 
REMARK    3  A    between atoms: S1_6  and  N2_9 
REMARK    4  A    between atoms: N2_9  and  N3_11 
REMARK    5  A    between atoms: C4_12  and  O3_13 
REMARK    6  A    between atoms: C5_15  and  C6_16 
REMARK    7  A    between atoms: N4_21  and  N5_22 
REMARK    8  A    between atoms: C9_25  and  N6_26 
ROOT
HETATM    1  N3  UNL     1      16.721  45.714 -53.984  1.00  0.00    -0.050 N 
HETATM    2  C4  UNL     1      15.561  45.532 -53.298  1.00  0.00     0.200 A 
HETATM    3  C5  UNL     1      15.542  45.315 -51.945  1.00  0.00     0.133 A 
HETATM    4  C8  UNL     1      16.750  45.287 -51.287  1.00  0.00     0.300 A 
HETATM    5  O5  UNL     1      16.799  45.094 -50.056  1.00  0.00    -0.264 OA
HETATM    6  N4  UNL     1      17.901  45.468 -51.974  1.00  0.00    -0.052 N 
HETATM    7  C9  UNL     1      17.887  45.679 -53.301  1.00  0.00     0.724 A 
ENDROOT
BRANCH   1   8
HETATM    8  N2  UNL     1      16.653  45.929 -55.361  1.00  0.00    -0.186 N 
ATOM      9  H2  UNL     1      16.577  45.127 -55.986  1.00  0.00     0.203 HD
BRANCH   8  10
HETATM   10  S1  UNL     1      16.694  47.512 -56.030  1.00  0.00     0.337 S 
HETATM   11  O1  UNL     1      15.905  47.525 -57.304  1.00  0.00    -0.181 OA
HETATM   12  O2  UNL     1      18.117  47.898 -56.405  1.00  0.00    -0.181 OA
BRANCH  10  13
HETATM   13  N1  UNL     1      16.137  48.701 -54.904  1.00  0.00    -0.272 N 
ATOM     14  H1  UNL     1      15.287  49.225 -55.112  1.00  0.00     0.180 HD
BRANCH  13  15
HETATM   15  C2  UNL     1      16.835  48.965 -53.695  1.00  0.00     0.008 C 
HETATM   16  C1  UNL     1      18.106  49.337 -53.784  1.00  0.00     0.038 C 
HETATM   17  C3  UNL     1      16.176  48.832 -52.383  1.00  0.00     0.068 C 
ENDBRANCH  13  15
ENDBRANCH  10  13
ENDBRANCH   8  10
ENDBRANCH   1   8
BRANCH   2  18
HETATM   18  O3  UNL     1      14.368  45.569 -54.002  1.00  0.00    -0.344 OA
ATOM     19  H3  UNL     1      13.555  45.516 -53.513  1.00  0.00     0.219 HD
ENDBRANCH   2  18
BRANCH   7  20
HETATM   20  N6  UNL     1      18.992  45.853 -53.955  1.00  0.00    -0.231 N 
ATOM     21  H62 UNL     1      19.009  45.799 -54.973  1.00  0.00     0.174 HD
ATOM     22  H61 UNL     1      19.845  46.045 -53.429  1.00  0.00     0.174 HD
ENDBRANCH   7  20
BRANCH   3  23
HETATM   23  C6  UNL     1      14.253  45.125 -51.253  1.00  0.00     0.165 C 
HETATM   24  C7  UNL     1      13.656  46.169 -50.410  1.00  0.00     0.097 C 
HETATM   25  O4  UNL     1      13.637  44.033 -51.382  1.00  0.00    -0.292 OA
ENDBRANCH   3  23
BRANCH   6  26
HETATM   26  N5  UNL     1      19.103  45.437 -51.300  1.00  0.00    -0.321 N 
ATOM     27  H52 UNL     1      19.169  44.952 -50.405  1.00  0.00     0.178 HD
ATOM     28  H51 UNL     1      19.917  45.900 -51.706  1.00  0.00     0.178 HD
ENDBRANCH   6  26
TORSDOF 8
ENDMDL
MODEL 2
REMARK VINA RESULT: -6.577669173      2.787      5.109
REMARK  8 active torsions:
REMARK  status: ('A' for Active; 'I' for Inactive)
REMARK    1  A    between atoms: C2_2  and  N1_4 
REMARK    2  A    between atoms: N1_4  and  S1_6 
REMARK    3  A    between atoms: S1_6  and  N2_9 
REMARK    4  A    between atoms: N2_9  and  N3_11 
REMARK    5  A    between atoms: C4_12  and  O3_13 
REMARK    6  A    between atoms: C5_15  and  C6_16 
REMARK    7  A    between atoms: N4_21  and  N5_22 
REMARK    8  A    between atoms: C9_25  and  N6_26 
ROOT
HETATM    1  N3  UNL     1      15.909  45.493 -52.127  1.00  0.00    -0.050 N 
HETATM    2  C4  UNL     1      15.760  45.913 -53.411  1.00  0.00     0.200 A 
HETATM    3  C5  UNL     1      16.834  46.221 -54.205  1.00  0.00     0.133 A 
HETATM    4  C8  UNL     1      18.089  46.092 -53.657  1.00  0.00     0.300 A 
HETATM    5  O5  UNL     1      19.107  46.357 -54.328  1.00  0.00    -0.264 OA
HETATM    6  N4  UNL     1      18.232  45.675 -52.379  1.00  0.00    -0.052 N 
HETATM    7  C9  UNL     1      17.158  45.379 -51.625  1.00  0.00     0.724 A 
ENDROOT
BRANCH   1   8
HETATM    8  N2  UNL     1      14.763  45.200 -51.386  1.00  0.00    -0.186 N 
ATOM      9  H2  UNL     1      14.383  44.254 -51.411  1.00  0.00     0.203 HD
BRANCH   8  10
HETATM   10  S1  UNL     1      13.977  46.395 -50.432  1.00  0.00     0.337 S 
HETATM   11  O1  UNL     1      12.494  46.279 -50.628  1.00  0.00    -0.181 OA
HETATM   12  O2  UNL     1      14.361  47.791 -50.899  1.00  0.00    -0.181 OA
BRANCH  10  13
HETATM   13  N1  UNL     1      14.425  46.286 -48.765  1.00  0.00    -0.272 N 
ATOM     14  H1  UNL     1      15.307  45.840 -48.514  1.00  0.00     0.180 HD
BRANCH  13  15
HETATM   15  C2  UNL     1      13.593  46.804 -47.737  1.00  0.00     0.008 C 
HETATM   16  C1  UNL     1      12.896  45.938 -47.011  1.00  0.00     0.038 C 
HETATM   17  C3  UNL     1      13.504  48.253 -47.479  1.00  0.00     0.068 C 
ENDBRANCH  13  15
ENDBRANCH  10  13
ENDBRANCH   8  10
ENDBRANCH   1   8
BRANCH   2  18
HETATM   18  O3  UNL     1      14.477  46.028 -53.922  1.00  0.00    -0.344 OA
ATOM     19  H3  UNL     1      14.018  46.852 -53.808  1.00  0.00     0.219 HD
ENDBRANCH   2  18
BRANCH   7  20
HETATM   20  N6  UNL     1      17.299  44.980 -50.400  1.00  0.00    -0.231 N 
ATOM     21  H62 UNL     1      16.523  45.038 -49.741  1.00  0.00     0.174 HD
ATOM     22  H61 UNL     1      18.204  44.606 -50.111  1.00  0.00     0.174 HD
ENDBRANCH   7  20
BRANCH   3  23
HETATM   23  C6  UNL     1      16.614  46.671 -55.593  1.00  0.00     0.165 C 
HETATM   24  C7  UNL     1      16.493  48.091 -55.945  1.00  0.00     0.097 C 
HETATM   25  O4  UNL     1      16.524  45.815 -56.514  1.00  0.00    -0.292 OA
ENDBRANCH   3  23
BRANCH   6  26
HETATM   26  N5  UNL     1      19.496  45.551 -51.844  1.00  0.00    -0.321 N 
ATOM     27  H52 UNL     1      20.056  44.725 -52.056  1.00  0.00     0.178 HD
ATOM     28  H51 UNL     1      19.859  46.289 -51.240  1.00  0.00     0.178 HD
ENDBRANCH   6  26
TORSDOF 8
ENDMDL
MODEL 3
REMARK VINA RESULT: -6.524172265      2.757      4.696
REMARK  8 active torsions:
REMARK  status: ('A' for Active; 'I' for Inactive)
REMARK    1  A    between atoms: C2_2  and  N1_4 
REMARK    2  A    between atoms: N1_4  and  S1_6 
REMARK    3  A    between atoms: S1_6  and  N2_9 
REMARK    4  A    between atoms: N2_9  and  N3_11 
REMARK    5  A    between atoms: C4_12  and  O3_13 
REMARK    6  A    between atoms: C5_15  and  C6_16 
REMARK    7  A    between atoms: N4_21  and  N5_22 
REMARK    8  A    between atoms: C9_25  and  N6_26 
ROOT
HETATM    1  N3  UNL     1      15.848  45.540 -52.191  1.00  0.00    -0.050 N 
HETATM    2  C4  UNL     1      15.859  45.884 -53.506  1.00  0.00     0.200 A 
HETATM    3  C5  UNL     1      17.023  46.136 -54.183  1.00  0.00     0.133 A 
HETATM    4  C8  UNL     1      18.203  46.029 -53.483  1.00  0.00     0.300 A 
HETATM    5  O5  UNL     1      19.297  46.244 -54.043  1.00  0.00    -0.264 OA
HETATM    6  N4  UNL     1      18.187  45.687 -52.175  1.00  0.00    -0.052 N 
HETATM    7  C9  UNL     1      17.028  45.446 -51.539  1.00  0.00     0.724 A 
ENDROOT
BRANCH   1   8
HETATM    8  N2  UNL     1      14.618  45.302 -51.575  1.00  0.00    -0.186 N 
ATOM      9  H2  UNL     1      14.144  44.414 -51.740  1.00  0.00     0.203 HD
BRANCH   8  10
HETATM   10  S1  UNL     1      13.884  46.467 -50.546  1.00  0.00     0.337 S 
HETATM   11  O1  UNL     1      14.172  46.109 -49.119  1.00  0.00    -0.181 OA
HETATM   12  O2  UNL     1      12.371  46.436 -50.697  1.00  0.00    -0.181 OA
BRANCH  10  13
HETATM   13  N1  UNL     1      14.391  48.075 -50.931  1.00  0.00    -0.272 N 
ATOM     14  H1  UNL     1      14.871  48.249 -51.814  1.00  0.00     0.180 HD
BRANCH  13  15
HETATM   15  C2  UNL     1      14.154  49.161 -50.045  1.00  0.00     0.008 C 
HETATM   16  C1  UNL     1      15.175  49.604 -49.323  1.00  0.00     0.038 C 
HETATM   17  C3  UNL     1      12.820  49.778 -49.928  1.00  0.00     0.068 C 
ENDBRANCH  13  15
ENDBRANCH  10  13
ENDBRANCH   8  10
ENDBRANCH   1   8
BRANCH   2  18
HETATM   18  O3  UNL     1      14.647  45.980 -54.171  1.00  0.00    -0.344 OA
ATOM     19  H3  UNL     1      14.542  45.505 -54.987  1.00  0.00     0.219 HD
ENDBRANCH   2  18
BRANCH   7  20
HETATM   20  N6  UNL     1      17.018  45.118 -50.285  1.00  0.00    -0.231 N 
ATOM     21  H62 UNL     1      17.079  44.140 -50.002  1.00  0.00     0.174 HD
ATOM     22  H61 UNL     1      16.947  45.860 -49.587  1.00  0.00     0.174 HD
ENDBRANCH   7  20
BRANCH   3  23
HETATM   23  C6  UNL     1      16.975  46.504 -55.611  1.00  0.00     0.165 C 
HETATM   24  C7  UNL     1      16.679  47.872 -56.057  1.00  0.00     0.097 C 
HETATM   25  O4  UNL     1      17.193  45.622 -56.485  1.00  0.00    -0.292 OA
ENDBRANCH   3  23
BRANCH   6  26
HETATM   26  N5  UNL     1      19.378  45.583 -51.488  1.00  0.00    -0.321 N 
ATOM     27  H52 UNL     1      20.237  45.935 -51.910  1.00  0.00     0.178 HD
ATOM     28  H51 UNL     1      19.386  45.156 -50.562  1.00  0.00     0.178 HD
ENDBRANCH   6  26
TORSDOF 8
ENDMDL
MODEL 4
REMARK VINA RESULT: -6.491186742      1.741      2.079
REMARK  8 active torsions:
REMARK  status: ('A' for Active; 'I' for Inactive)
REMARK    1  A    between atoms: C2_2  and  N1_4 
REMARK    2  A    between atoms: N1_4  and  S1_6 
REMARK    3  A    between atoms: S1_6  and  N2_9 
REMARK    4  A    between atoms: N2_9  and  N3_11 
REMARK    5  A    between atoms: C4_12  and  O3_13 
REMARK    6  A    between atoms: C5_15  and  C6_16 
REMARK    7  A    between atoms: N4_21  and  N5_22 
REMARK    8  A    between atoms: C9_25  and  N6_26 
ROOT
HETATM    1  N3  UNL     1      17.554  45.721 -53.552  1.00  0.00    -0.050 N 
HETATM    2  C4  UNL     1      16.256  45.522 -53.202  1.00  0.00     0.200 A 
HETATM    3  C5  UNL     1      15.854  45.477 -51.892  1.00  0.00     0.133 A 
HETATM    4  C8  UNL     1      16.817  45.642 -50.924  1.00  0.00     0.300 A 
HETATM    5  O5  UNL     1      16.515  45.611 -49.714  1.00  0.00    -0.264 OA
HETATM    6  N4  UNL     1      18.107  45.839 -51.277  1.00  0.00    -0.052 N 
HETATM    7  C9  UNL     1      18.470  45.878 -52.571  1.00  0.00     0.724 A 
ENDROOT
BRANCH   1   8
HETATM    8  N2  UNL     1      17.880  45.752 -54.908  1.00  0.00    -0.186 N 
ATOM      9  H2  UNL     1      18.213  44.901 -55.360  1.00  0.00     0.203 HD
BRANCH   8  10
HETATM   10  S1  UNL     1      17.735  47.192 -55.837  1.00  0.00     0.337 S 
HETATM   11  O1  UNL     1      18.842  47.235 -56.847  1.00  0.00    -0.181 OA
HETATM   12  O2  UNL     1      17.915  48.418 -54.954  1.00  0.00    -0.181 OA
BRANCH  10  13
HETATM   13  N1  UNL     1      16.175  47.331 -56.570  1.00  0.00    -0.272 N 
ATOM     14  H1  UNL     1      15.607  46.493 -56.696  1.00  0.00     0.180 HD
BRANCH  13  15
HETATM   15  C2  UNL     1      15.666  48.584 -57.003  1.00  0.00     0.008 C 
HETATM   16  C1  UNL     1      15.154  49.394 -56.083  1.00  0.00     0.038 C 
HETATM   17  C3  UNL     1      15.702  48.979 -58.423  1.00  0.00     0.068 C 
ENDBRANCH  13  15
ENDBRANCH  10  13
ENDBRANCH   8  10
ENDBRANCH   1   8
BRANCH   2  18
HETATM   18  O3  UNL     1      15.320  45.362 -54.210  1.00  0.00    -0.344 OA
ATOM     19  H3  UNL     1      15.330  45.974 -54.937  1.00  0.00     0.219 HD
ENDBRANCH   2  18
BRANCH   7  20
HETATM   20  N6  UNL     1      19.709  46.067 -52.905  1.00  0.00    -0.231 N 
ATOM     21  H62 UNL     1      19.963  46.256 -53.875  1.00  0.00     0.174 HD
ATOM     22  H61 UNL     1      20.422  46.024 -52.177  1.00  0.00     0.174 HD
ENDBRANCH   7  20
BRANCH   3  23
HETATM   23  C6  UNL     1      14.430  45.260 -51.571  1.00  0.00     0.165 C 
HETATM   24  C7  UNL     1      13.553  46.350 -51.124  1.00  0.00     0.097 C 
HETATM   25  O4  UNL     1      13.942  44.103 -51.680  1.00  0.00    -0.292 OA
ENDBRANCH   3  23
BRANCH   6  26
HETATM   26  N5  UNL     1      19.061  46.002 -50.295  1.00  0.00    -0.321 N 
ATOM     27  H52 UNL     1      19.951  45.510 -50.368  1.00  0.00     0.178 HD
ATOM     28  H51 UNL     1      18.864  46.615 -49.504  1.00  0.00     0.178 HD
ENDBRANCH   6  26
TORSDOF 8
ENDMDL
MODEL 5
REMARK VINA RESULT: -6.468108033      1.770      2.996
REMARK  8 active torsions:
REMARK  status: ('A' for Active; 'I' for Inactive)
REMARK    1  A    between atoms: C2_2  and  N1_4 
REMARK    2  A    between atoms: N1_4  and  S1_6 
REMARK    3  A    between atoms: S1_6  and  N2_9 
REMARK    4  A    between atoms: N2_9  and  N3_11 
REMARK    5  A    between atoms: C4_12  and  O3_13 
REMARK    6  A    between atoms: C5_15  and  C6_16 
REMARK    7  A    between atoms: N4_21  and  N5_22 
REMARK    8  A    between atoms: C9_25  and  N6_26 
ROOT
HETATM    1  N3  UNL     1      16.898  45.623 -53.559  1.00  0.00    -0.050 N 
HETATM    2  C4  UNL     1      17.514  45.618 -52.347  1.00  0.00     0.200 A 
HETATM    3  C5  UNL     1      16.809  45.597 -51.172  1.00  0.00     0.133 A 
HETATM    4  C8  UNL     1      15.435  45.579 -51.254  1.00  0.00     0.300 A 
HETATM    5  O5  UNL     1      14.737  45.559 -50.221  1.00  0.00    -0.264 OA
HETATM    6  N4  UNL     1      14.827  45.584 -52.462  1.00  0.00    -0.052 N 
HETATM    7  C9  UNL     1      15.548  45.605 -53.597  1.00  0.00     0.724 A 
ENDROOT
BRANCH   1   8
HETATM    8  N2  UNL     1      17.690  45.646 -54.707  1.00  0.00    -0.186 N 
ATOM      9  H2  UNL     1      17.899  44.770 -55.185  1.00  0.00     0.203 HD
BRANCH   8  10
HETATM   10  S1  UNL     1      18.322  47.116 -55.337  1.00  0.00     0.337 S 
HETATM   11  O1  UNL     1      18.425  47.004 -56.828  1.00  0.00    -0.181 OA
HETATM   12  O2  UNL     1      19.737  47.351 -54.828  1.00  0.00    -0.181 OA
BRANCH  10  13
HETATM   13  N1  UNL     1      17.383  48.483 -54.847  1.00  0.00    -0.272 N 
ATOM     14  H1  UNL     1      16.702  48.879 -55.495  1.00  0.00     0.180 HD
BRANCH  13  15
HETATM   15  C2  UNL     1      17.537  49.067 -53.561  1.00  0.00     0.008 C 
HETATM   16  C1  UNL     1      16.537  48.935 -52.698  1.00  0.00     0.038 C 
HETATM   17  C3  UNL     1      18.764  49.798 -53.192  1.00  0.00     0.068 C 
ENDBRANCH  13  15
ENDBRANCH  10  13
ENDBRANCH   8  10
ENDBRANCH   1   8
BRANCH   2  18
HETATM   18  O3  UNL     1      18.899  45.636 -52.312  1.00  0.00    -0.344 OA
ATOM     19  H3  UNL     1      19.370  45.661 -53.137  1.00  0.00     0.219 HD
ENDBRANCH   2  18
BRANCH   7  20
HETATM   20  N6  UNL     1      14.961  45.610 -54.752  1.00  0.00    -0.231 N 
ATOM     21  H62 UNL     1      14.798  44.738 -55.257  1.00  0.00     0.174 HD
ATOM     22  H61 UNL     1      14.664  46.504 -55.145  1.00  0.00     0.174 HD
ENDBRANCH   7  20
BRANCH   3  23
HETATM   23  C6  UNL     1      17.530  45.592 -49.885  1.00  0.00     0.165 C 
HETATM   24  C7  UNL     1      17.769  46.821 -49.117  1.00  0.00     0.097 C 
HETATM   25  O4  UNL     1      17.959  44.501 -49.421  1.00  0.00    -0.292 OA
ENDBRANCH   3  23
BRANCH   6  26
HETATM   26  N5  UNL     1      13.451  45.566 -52.527  1.00  0.00    -0.321 N 
ATOM     27  H52 UNL     1      12.918  46.370 -52.194  1.00  0.00     0.178 HD
ATOM     28  H51 UNL     1      12.978  44.747 -52.909  1.00  0.00     0.178 HD
ENDBRANCH   6  26
TORSDOF 8
ENDMDL
