MODEL 1
REMARK VINA RESULT: -7.184613929      0.000      0.000
REMARK  7 active torsions:
REMARK  status: ('A' for Active; 'I' for Inactive)
REMARK    1  A    between atoms: O1_2  and  C2_3 
REMARK    2  A    between atoms: C3_6  and  N2_7 
REMARK    3  A    between atoms: N2_7  and  C4_9 
REMARK    4  A    between atoms: C5_12  and  N4_13 
REMARK    5  A    between atoms: N4_13  and  C6_15 
REMARK    6  A    between atoms: C6_15  and  C7_16 
REMARK    7  A    between atoms: C7_16  and  O2_17 
ROOT
HETATM    1  C4  UNL     1      12.890  46.179 -46.690  1.00  0.00     0.713 A 
HETATM    2  N3  UNL     1      11.714  46.531 -46.154  1.00  0.00    -0.021 N 
ATOM      3  H3  UNL     1      10.848  46.294 -46.638  1.00  0.00     0.203 HD
HETATM    4  C5  UNL     1      11.663  47.191 -44.987  1.00  0.00     0.707 A 
HETATM    5  N5  UNL     1      12.794  47.524 -44.315  1.00  0.00    -0.021 N 
ATOM      6  H5  UNL     1      12.753  48.026 -43.428  1.00  0.00     0.203 HD
HETATM    7  C8  UNL     1      13.963  47.172 -44.853  1.00  0.00     0.720 A 
HETATM    8  N6  UNL     1      15.059  47.470 -44.246  1.00  0.00    -0.125 N 
ATOM      9  H6  UNL     1      15.029  47.972 -43.360  1.00  0.00     0.197 HD
HETATM   10  C9  UNL     1      16.280  47.107 -44.798  1.00  0.00     0.196 C 
HETATM   11  N7  UNL     1      17.309  46.806 -45.245  1.00  0.00    -0.171 NA
HETATM   12  N8  UNL     1      14.005  46.513 -46.016  1.00  0.00    -0.020 N 
ATOM     13  H8  UNL     1      14.912  46.255 -46.405  1.00  0.00     0.203 HD
ENDROOT
BRANCH   4  14
HETATM   14  N4  UNL     1      10.506  47.532 -44.468  1.00  0.00    -0.223 N 
ATOM     15  H4  UNL     1      10.375  47.615 -43.460  1.00  0.00     0.177 HD
BRANCH  14  16
HETATM   16  C6  UNL     1       9.425  47.785 -45.396  1.00  0.00     0.164 C 
BRANCH  16  17
HETATM   17  C7  UNL     1       9.409  49.284 -45.652  1.00  0.00     0.184 C 
BRANCH  17  18
HETATM   18  O2  UNL     1       8.333  49.646 -46.477  1.00  0.00    -0.399 OA
ATOM     19  H2  UNL     1       7.515  49.643 -45.993  1.00  0.00     0.209 HD
ENDBRANCH  17  18
ENDBRANCH  16  17
ENDBRANCH  14  16
ENDBRANCH   4  14
BRANCH   1  20
HETATM   20  N2  UNL     1      12.996  45.477 -47.924  1.00  0.00    -0.175 N 
ATOM     21  H2  UNL     1      12.773  44.482 -47.949  1.00  0.00     0.186 HD
BRANCH  20  22
HETATM   22  C3  UNL     1      13.369  46.069 -49.017  1.00  0.00     0.127 A 
HETATM   23  N1  UNL     1      13.433  47.406 -49.094  1.00  0.00    -0.308 N 
HETATM   24  C2  UNL     1      13.812  48.065 -50.199  1.00  0.00     0.225 A 
ATOM     25  H1  UNL     1      13.181  47.950 -48.269  1.00  0.00     0.171 HD
HETATM   26  N10 UNL     1      14.139  47.322 -51.275  1.00  0.00    -0.310 N 
HETATM   27  C11 UNL     1      14.093  45.980 -51.255  1.00  0.00     0.122 A 
ATOM     28  H10 UNL     1      14.430  47.794 -52.131  1.00  0.00     0.170 HD
HETATM   29  C10 UNL     1      13.702  45.301 -50.112  1.00  0.00     0.094 A 
HETATM   30  N9  UNL     1      14.446  45.222 -52.408  1.00  0.00    -0.083 NA
BRANCH  24  31
HETATM   31  O1  UNL     1      13.867  49.460 -50.244  1.00  0.00    -0.327 OA
HETATM   32  C1  UNL     1      12.677  50.191 -50.214  1.00  0.00     0.213 C 
ENDBRANCH  24  31
ENDBRANCH  20  22
ENDBRANCH   1  20
TORSDOF 7
ENDMDL
MODEL 2
REMARK VINA RESULT: -7.113649723      1.370      2.133
REMARK  7 active torsions:
REMARK  status: ('A' for Active; 'I' for Inactive)
REMARK    1  A    between atoms: O1_2  and  C2_3 
REMARK    2  A    between atoms: C3_6  and  N2_7 
REMARK    3  A    between atoms: N2_7  and  C4_9 
REMARK    4  A    between atoms: C5_12  and  N4_13 
REMARK    5  A    between atoms: N4_13  and  C6_15 
REMARK    6  A    between atoms: C6_15  and  C7_16 
REMARK    7  A    between atoms: C7_16  and  O2_17 
ROOT
HETATM    1  C4  UNL     1      12.897  46.181 -46.736  1.00  0.00     0.713 A 
HETATM    2  N3  UNL     1      11.725  46.520 -46.182  1.00  0.00    -0.021 N 
ATOM      3  H3  UNL     1      10.854  46.281 -46.657  1.00  0.00     0.203 HD
HETATM    4  C5  UNL     1      11.685  47.171 -45.009  1.00  0.00     0.707 A 
HETATM    5  N5  UNL     1      12.822  47.506 -44.349  1.00  0.00    -0.021 N 
ATOM      6  H5  UNL     1      12.788  48.000 -43.458  1.00  0.00     0.203 HD
HETATM    7  C8  UNL     1      13.986  47.167 -44.905  1.00  0.00     0.720 A 
HETATM    8  N6  UNL     1      15.087  47.467 -44.310  1.00  0.00    -0.125 N 
ATOM      9  H6  UNL     1      15.066  47.962 -43.419  1.00  0.00     0.197 HD
HETATM   10  C9  UNL     1      16.304  47.117 -44.881  1.00  0.00     0.196 C 
HETATM   11  N7  UNL     1      17.329  46.827 -45.343  1.00  0.00    -0.171 NA
HETATM   12  N8  UNL     1      14.017  46.517 -46.074  1.00  0.00    -0.020 N 
ATOM     13  H8  UNL     1      14.921  46.269 -46.476  1.00  0.00     0.203 HD
ENDROOT
BRANCH   4  14
HETATM   14  N4  UNL     1      10.531  47.500 -44.473  1.00  0.00    -0.223 N 
ATOM     15  H4  UNL     1      10.410  47.564 -43.462  1.00  0.00     0.177 HD
BRANCH  14  16
HETATM   16  C6  UNL     1       9.440  47.766 -45.385  1.00  0.00     0.164 C 
BRANCH  16  17
HETATM   17  C7  UNL     1       9.435  49.267 -45.633  1.00  0.00     0.184 C 
BRANCH  17  18
HETATM   18  O2  UNL     1       8.369  49.638 -46.468  1.00  0.00    -0.399 OA
ATOM     19  H2  UNL     1       8.475  50.527 -46.784  1.00  0.00     0.209 HD
ENDBRANCH  17  18
ENDBRANCH  16  17
ENDBRANCH  14  16
ENDBRANCH   4  14
BRANCH   1  20
HETATM   20  N2  UNL     1      12.991  45.490 -47.977  1.00  0.00    -0.175 N 
ATOM     21  H2  UNL     1      12.692  44.516 -48.026  1.00  0.00     0.186 HD
BRANCH  20  22
HETATM   22  C3  UNL     1      13.448  46.065 -49.047  1.00  0.00     0.127 A 
HETATM   23  N1  UNL     1      13.772  45.349 -50.134  1.00  0.00    -0.308 N 
HETATM   24  C2  UNL     1      14.247  45.895 -51.263  1.00  0.00     0.225 A 
ATOM     25  H1  UNL     1      13.650  44.337 -50.099  1.00  0.00     0.171 HD
HETATM   26  N10 UNL     1      14.400  47.234 -51.281  1.00  0.00    -0.310 N 
HETATM   27  C11 UNL     1      14.092  48.001 -50.223  1.00  0.00     0.122 A 
ATOM     28  H10 UNL     1      14.760  47.679 -52.125  1.00  0.00     0.170 HD
HETATM   29  C10 UNL     1      13.600  47.435 -49.057  1.00  0.00     0.094 A 
HETATM   30  N9  UNL     1      14.263  49.413 -50.272  1.00  0.00    -0.083 NA
BRANCH  24  31
HETATM   31  O1  UNL     1      14.575  45.117 -52.377  1.00  0.00    -0.327 OA
HETATM   32  C1  UNL     1      14.955  45.750 -53.562  1.00  0.00     0.213 C 
ENDBRANCH  24  31
ENDBRANCH  20  22
ENDBRANCH   1  20
TORSDOF 7
ENDMDL
MODEL 3
REMARK VINA RESULT: -7.044122655      4.994      7.705
REMARK  7 active torsions:
REMARK  status: ('A' for Active; 'I' for Inactive)
REMARK    1  A    between atoms: O1_2  and  C2_3 
REMARK    2  A    between atoms: C3_6  and  N2_7 
REMARK    3  A    between atoms: N2_7  and  C4_9 
REMARK    4  A    between atoms: C5_12  and  N4_13 
REMARK    5  A    between atoms: N4_13  and  C6_15 
REMARK    6  A    between atoms: C6_15  and  C7_16 
REMARK    7  A    between atoms: C7_16  and  O2_17 
ROOT
HETATM    1  C4  UNL     1      16.868  46.415 -51.435  1.00  0.00     0.713 A 
HETATM    2  N3  UNL     1      15.832  46.167 -50.623  1.00  0.00    -0.021 N 
ATOM      3  H3  UNL     1      15.943  46.278 -49.615  1.00  0.00     0.203 HD
HETATM    4  C5  UNL     1      14.650  45.774 -51.122  1.00  0.00     0.707 A 
HETATM    5  N5  UNL     1      14.466  45.615 -52.457  1.00  0.00    -0.021 N 
ATOM      6  H5  UNL     1      13.566  45.316 -52.833  1.00  0.00     0.203 HD
HETATM    7  C8  UNL     1      15.501  45.862 -53.261  1.00  0.00     0.720 A 
HETATM    8  N6  UNL     1      15.366  45.722 -54.534  1.00  0.00    -0.125 N 
ATOM      9  H6  UNL     1      14.471  45.423 -54.921  1.00  0.00     0.197 HD
HETATM   10  C9  UNL     1      16.437  45.978 -55.379  1.00  0.00     0.196 C 
HETATM   11  N7  UNL     1      17.323  46.193 -56.098  1.00  0.00    -0.171 NA
HETATM   12  N8  UNL     1      16.675  46.254 -52.756  1.00  0.00    -0.020 N 
ATOM     13  H8  UNL     1      17.450  46.438 -53.393  1.00  0.00     0.203 HD
ENDROOT
BRANCH   4  14
HETATM   14  N4  UNL     1      13.639  45.533 -50.319  1.00  0.00    -0.223 N 
ATOM     15  H4  UNL     1      13.085  44.680 -50.397  1.00  0.00     0.177 HD
BRANCH  14  16
HETATM   16  C6  UNL     1      13.348  46.536 -49.318  1.00  0.00     0.164 C 
BRANCH  16  17
HETATM   17  C7  UNL     1      13.133  45.795 -48.007  1.00  0.00     0.184 C 
BRANCH  17  18
HETATM   18  O2  UNL     1      11.978  44.998 -48.059  1.00  0.00    -0.399 OA
ATOM     19  H2  UNL     1      12.002  44.318 -47.396  1.00  0.00     0.209 HD
ENDBRANCH  17  18
ENDBRANCH  16  17
ENDBRANCH  14  16
ENDBRANCH   4  14
BRANCH   1  20
HETATM   20  N2  UNL     1      18.141  46.834 -50.955  1.00  0.00    -0.175 N 
ATOM     21  H2  UNL     1      18.225  47.158 -49.991  1.00  0.00     0.186 HD
BRANCH  20  22
HETATM   22  C3  UNL     1      19.197  46.817 -51.709  1.00  0.00     0.127 A 
HETATM   23  N1  UNL     1      19.509  47.863 -52.488  1.00  0.00    -0.308 N 
HETATM   24  C2  UNL     1      20.588  47.894 -53.284  1.00  0.00     0.225 A 
ATOM     25  H1  UNL     1      18.895  48.677 -52.474  1.00  0.00     0.171 HD
HETATM   26  N10 UNL     1      21.383  46.805 -53.285  1.00  0.00    -0.310 N 
HETATM   27  C11 UNL     1      21.119  45.730 -52.526  1.00  0.00     0.122 A 
ATOM     28  H10 UNL     1      22.210  46.798 -53.881  1.00  0.00     0.170 HD
HETATM   29  C10 UNL     1      20.004  45.700 -51.703  1.00  0.00     0.094 A 
HETATM   30  N9  UNL     1      21.978  44.595 -52.547  1.00  0.00    -0.083 NA
BRANCH  24  31
HETATM   31  O1  UNL     1      20.883  49.002 -54.084  1.00  0.00    -0.327 OA
HETATM   32  C1  UNL     1      21.877  49.893 -53.674  1.00  0.00     0.213 C 
ENDBRANCH  24  31
ENDBRANCH  20  22
ENDBRANCH   1  20
TORSDOF 7
ENDMDL
MODEL 4
REMARK VINA RESULT: -7.035144123      5.055      7.931
REMARK  7 active torsions:
REMARK  status: ('A' for Active; 'I' for Inactive)
REMARK    1  A    between atoms: O1_2  and  C2_3 
REMARK    2  A    between atoms: C3_6  and  N2_7 
REMARK    3  A    between atoms: N2_7  and  C4_9 
REMARK    4  A    between atoms: C5_12  and  N4_13 
REMARK    5  A    between atoms: N4_13  and  C6_15 
REMARK    6  A    between atoms: C6_15  and  C7_16 
REMARK    7  A    between atoms: C7_16  and  O2_17 
ROOT
HETATM    1  C4  UNL     1      16.882  46.200 -51.433  1.00  0.00     0.713 A 
HETATM    2  N3  UNL     1      15.845  45.976 -50.614  1.00  0.00    -0.021 N 
ATOM      3  H3  UNL     1      15.979  46.028 -49.604  1.00  0.00     0.203 HD
HETATM    4  C5  UNL     1      14.633  45.684 -51.109  1.00  0.00     0.707 A 
HETATM    5  N5  UNL     1      14.418  45.605 -52.446  1.00  0.00    -0.021 N 
ATOM      6  H5  UNL     1      13.495  45.383 -52.820  1.00  0.00     0.203 HD
HETATM    7  C8  UNL     1      15.453  45.828 -53.257  1.00  0.00     0.720 A 
HETATM    8  N6  UNL     1      15.289  45.762 -54.532  1.00  0.00    -0.125 N 
ATOM      9  H6  UNL     1      14.372  45.539 -54.917  1.00  0.00     0.197 HD
HETATM   10  C9  UNL     1      16.361  45.993 -55.384  1.00  0.00     0.196 C 
HETATM   11  N7  UNL     1      17.247  46.189 -56.109  1.00  0.00    -0.171 NA
HETATM   12  N8  UNL     1      16.658  46.119 -52.756  1.00  0.00    -0.020 N 
ATOM     13  H8  UNL     1      17.432  46.286 -53.398  1.00  0.00     0.203 HD
ENDROOT
BRANCH   4  14
HETATM   14  N4  UNL     1      13.622  45.466 -50.300  1.00  0.00    -0.223 N 
ATOM     15  H4  UNL     1      13.071  44.609 -50.351  1.00  0.00     0.177 HD
BRANCH  14  16
HETATM   16  C6  UNL     1      13.327  46.499 -49.332  1.00  0.00     0.164 C 
BRANCH  16  17
HETATM   17  C7  UNL     1      13.053  45.796 -48.011  1.00  0.00     0.184 C 
BRANCH  17  18
HETATM   18  O2  UNL     1      11.944  44.941 -48.113  1.00  0.00    -0.399 OA
ATOM     19  H2  UNL     1      11.952  44.288 -47.424  1.00  0.00     0.209 HD
ENDBRANCH  17  18
ENDBRANCH  16  17
ENDBRANCH  14  16
ENDBRANCH   4  14
BRANCH   1  20
HETATM   20  N2  UNL     1      18.186  46.513 -50.956  1.00  0.00    -0.175 N 
ATOM     21  H2  UNL     1      18.338  46.610 -49.952  1.00  0.00     0.186 HD
BRANCH  20  22
HETATM   22  C3  UNL     1      19.188  46.681 -51.765  1.00  0.00     0.127 A 
HETATM   23  N1  UNL     1      20.084  45.704 -51.969  1.00  0.00    -0.308 N 
HETATM   24  C2  UNL     1      21.135  45.827 -52.793  1.00  0.00     0.225 A 
ATOM     25  H1  UNL     1      19.959  44.822 -51.472  1.00  0.00     0.171 HD
HETATM   26  N10 UNL     1      21.277  47.003 -53.437  1.00  0.00    -0.310 N 
HETATM   27  C11 UNL     1      20.411  48.015 -53.270  1.00  0.00     0.122 A 
ATOM     28  H10 UNL     1      22.067  47.128 -54.069  1.00  0.00     0.170 HD
HETATM   29  C10 UNL     1      19.325  47.886 -52.419  1.00  0.00     0.094 A 
HETATM   30  N9  UNL     1      20.586  49.245 -53.965  1.00  0.00    -0.083 NA
BRANCH  24  31
HETATM   31  O1  UNL     1      22.050  44.788 -52.981  1.00  0.00    -0.327 OA
HETATM   32  C1  UNL     1      22.057  43.715 -52.087  1.00  0.00     0.213 C 
ENDBRANCH  24  31
ENDBRANCH  20  22
ENDBRANCH   1  20
TORSDOF 7
ENDMDL
MODEL 5
REMARK VINA RESULT: -6.999172068      1.995      6.768
REMARK  7 active torsions:
REMARK  status: ('A' for Active; 'I' for Inactive)
REMARK    1  A    between atoms: O1_2  and  C2_3 
REMARK    2  A    between atoms: C3_6  and  N2_7 
REMARK    3  A    between atoms: N2_7  and  C4_9 
REMARK    4  A    between atoms: C5_12  and  N4_13 
REMARK    5  A    between atoms: N4_13  and  C6_15 
REMARK    6  A    between atoms: C6_15  and  C7_16 
REMARK    7  A    between atoms: C7_16  and  O2_17 
ROOT
HETATM    1  C4  UNL     1      13.447  46.114 -48.996  1.00  0.00     0.713 A 
HETATM    2  N3  UNL     1      13.941  45.437 -50.041  1.00  0.00    -0.021 N 
ATOM      3  H3  UNL     1      14.024  44.421 -49.992  1.00  0.00     0.203 HD
HETATM    4  C5  UNL     1      14.329  46.081 -51.153  1.00  0.00     0.707 A 
HETATM    5  N5  UNL     1      14.235  47.431 -51.254  1.00  0.00    -0.021 N 
ATOM      6  H5  UNL     1      14.531  47.918 -52.101  1.00  0.00     0.203 HD
HETATM    7  C8  UNL     1      13.743  48.100 -50.211  1.00  0.00     0.720 A 
HETATM    8  N6  UNL     1      13.638  49.382 -50.269  1.00  0.00    -0.125 N 
ATOM      9  H6  UNL     1      13.932  49.879 -51.109  1.00  0.00     0.197 HD
HETATM   10  C9  UNL     1      13.126  50.087 -49.188  1.00  0.00     0.196 C 
HETATM   11  N7  UNL     1      12.696  50.690 -48.293  1.00  0.00    -0.171 NA
HETATM   12  N8  UNL     1      13.358  47.450 -49.107  1.00  0.00    -0.020 N 
ATOM     13  H8  UNL     1      12.984  47.986 -48.324  1.00  0.00     0.203 HD
ENDROOT
BRANCH   4  14
HETATM   14  N4  UNL     1      14.813  45.410 -52.173  1.00  0.00    -0.223 N 
ATOM     15  H4  UNL     1      14.410  44.520 -52.466  1.00  0.00     0.177 HD
BRANCH  14  16
HETATM   16  C6  UNL     1      15.944  45.992 -52.861  1.00  0.00     0.164 C 
BRANCH  16  17
HETATM   17  C7  UNL     1      15.826  45.583 -54.321  1.00  0.00     0.184 C 
BRANCH  17  18
HETATM   18  O2  UNL     1      14.521  45.783 -54.799  1.00  0.00    -0.399 OA
ATOM     19  H2  UNL     1      14.202  45.014 -55.255  1.00  0.00     0.209 HD
ENDBRANCH  17  18
ENDBRANCH  16  17
ENDBRANCH  14  16
ENDBRANCH   4  14
BRANCH   1  20
HETATM   20  N2  UNL     1      13.022  45.476 -47.796  1.00  0.00    -0.175 N 
ATOM     21  H2  UNL     1      12.842  44.472 -47.805  1.00  0.00     0.186 HD
BRANCH  20  22
HETATM   22  C3  UNL     1      12.856  46.137 -46.692  1.00  0.00     0.127 A 
HETATM   23  N1  UNL     1      11.629  46.420 -46.231  1.00  0.00    -0.308 N 
HETATM   24  C2  UNL     1      11.404  47.099 -45.097  1.00  0.00     0.225 A 
ATOM     25  H1  UNL     1      10.824  46.101 -46.772  1.00  0.00     0.171 HD
HETATM   26  N10 UNL     1      12.484  47.509 -44.402  1.00  0.00    -0.310 N 
HETATM   27  C11 UNL     1      13.736  47.255 -44.816  1.00  0.00     0.122 A 
ATOM     28  H10 UNL     1      12.346  48.029 -43.536  1.00  0.00     0.170 HD
HETATM   29  C10 UNL     1      13.966  46.552 -45.988  1.00  0.00     0.094 A 
HETATM   30  N9  UNL     1      14.857  47.700 -44.060  1.00  0.00    -0.083 NA
BRANCH  24  31
HETATM   31  O1  UNL     1      10.111  47.375 -44.647  1.00  0.00    -0.327 OA
HETATM   32  C1  UNL     1       9.446  48.504 -45.132  1.00  0.00     0.213 C 
ENDBRANCH  24  31
ENDBRANCH  20  22
ENDBRANCH   1  20
TORSDOF 7
ENDMDL
