MODEL 1
REMARK VINA RESULT: -7.038854276      0.000      0.000
REMARK  6 active torsions:
REMARK  status: ('A' for Active; 'I' for Inactive)
REMARK    1  A    between atoms: C2_3  and  N2_4 
REMARK    2  A    between atoms: C2_3  and  C12_28 
REMARK       I    between atoms: N2_4  and  C3_6 
REMARK    3  A    between atoms: C3_6  and  C4_8 
REMARK    4  A    between atoms: C5_11  and  N4_12 
REMARK    5  A    between atoms: C6_17  and  N6_18 
REMARK    6  A    between atoms: N7_24  and  N8_25 
ROOT
HETATM    1  N1  UNL     1      15.225  48.251 -56.819  1.00  0.00    -0.195 NA
HETATM    2  C1  UNL     1      15.549  47.520 -56.007  1.00  0.00     0.094 C 
HETATM    3  C2  UNL     1      15.973  46.582 -54.996  1.00  0.00     0.282 C 
ENDROOT
BRANCH   3   4
HETATM    4  N2  UNL     1      15.911  47.107 -53.659  1.00  0.00    -0.330 N 
HETATM    5  C3  UNL     1      15.287  46.449 -52.575  1.00  0.00     0.290 C 
HETATM    6  O1  UNL     1      14.738  45.341 -52.720  1.00  0.00    -0.264 OA
ATOM      7  H2  UNL     1      16.345  48.013 -53.482  1.00  0.00     0.164 HD
BRANCH   5   8
HETATM    8  C4  UNL     1      15.272  47.056 -51.255  1.00  0.00     0.227 A 
HETATM    9  N3  UNL     1      14.806  48.295 -51.030  1.00  0.00    -0.168 N 
HETATM   10  C5  UNL     1      14.780  48.880 -49.821  1.00  0.00     0.692 A 
ATOM     11  H3  UNL     1      14.450  48.825 -51.826  1.00  0.00     0.186 HD
HETATM   12  N5  UNL     1      15.242  48.196 -48.781  1.00  0.00    -0.021 N 
HETATM   13  C6  UNL     1      15.733  46.925 -48.940  1.00  0.00     0.717 A 
ATOM     14  H5  UNL     1      15.233  48.620 -47.854  1.00  0.00     0.203 HD
HETATM   15  N7  UNL     1      15.742  46.375 -50.162  1.00  0.00    -0.070 N 
BRANCH  10  16
HETATM   16  N4  UNL     1      14.305  50.101 -49.684  1.00  0.00    -0.234 N 
ATOM     17  H42 UNL     1      13.559  50.452 -50.285  1.00  0.00     0.174 HD
ATOM     18  H41 UNL     1      14.681  50.721 -48.966  1.00  0.00     0.174 HD
ENDBRANCH  10  16
BRANCH  13  19
HETATM   19  N6  UNL     1      16.194  46.304 -47.758  1.00  0.00    -0.215 N 
HETATM   20  C7  UNL     1      15.242  45.712 -46.817  1.00  0.00     0.141 C 
HETATM   21  C8  UNL     1      15.428  46.249 -45.417  1.00  0.00     0.020 C 
HETATM   22  C9  UNL     1      16.872  46.333 -45.036  1.00  0.00     0.003 C 
HETATM   23  C10 UNL     1      17.658  45.474 -45.996  1.00  0.00     0.020 C 
HETATM   24  C11 UNL     1      17.583  46.187 -47.363  1.00  0.00     0.141 C 
ENDBRANCH  13  19
BRANCH  15  25
HETATM   25  N8  UNL     1      16.230  45.090 -50.364  1.00  0.00    -0.322 N 
ATOM     26  H82 UNL     1      16.754  44.853 -51.207  1.00  0.00     0.178 HD
ATOM     27  H81 UNL     1      16.047  44.394 -49.642  1.00  0.00     0.178 HD
ENDBRANCH  15  25
ENDBRANCH   5   8
ENDBRANCH   3   4
BRANCH   3  28
HETATM   28  C12 UNL     1      17.385  46.137 -55.225  1.00  0.00     0.268 C 
HETATM   29  N9  UNL     1      18.229  47.036 -55.934  1.00  0.00    -0.059 NA
HETATM   30  O2  UNL     1      17.822  45.035 -54.821  1.00  0.00    -0.273 OA
ENDBRANCH   3  28
TORSDOF 6
ENDMDL
MODEL 2
REMARK VINA RESULT: -7.027167671      1.922      2.921
REMARK  6 active torsions:
REMARK  status: ('A' for Active; 'I' for Inactive)
REMARK    1  A    between atoms: C2_3  and  N2_4 
REMARK    2  A    between atoms: C2_3  and  C12_28 
REMARK       I    between atoms: N2_4  and  C3_6 
REMARK    3  A    between atoms: C3_6  and  C4_8 
REMARK    4  A    between atoms: C5_11  and  N4_12 
REMARK    5  A    between atoms: C6_17  and  N6_18 
REMARK    6  A    between atoms: N7_24  and  N8_25 
ROOT
HETATM    1  N1  UNL     1      16.048  49.109 -55.391  1.00  0.00    -0.195 NA
HETATM    2  C1  UNL     1      16.114  48.062 -54.945  1.00  0.00     0.094 C 
HETATM    3  C2  UNL     1      16.208  46.729 -54.400  1.00  0.00     0.282 C 
ENDROOT
BRANCH   3   4
HETATM    4  N2  UNL     1      16.335  46.698 -52.968  1.00  0.00    -0.330 N 
HETATM    5  C3  UNL     1      15.516  45.925 -52.114  1.00  0.00     0.290 C 
HETATM    6  O1  UNL     1      14.609  45.204 -52.568  1.00  0.00    -0.264 OA
ATOM      7  H2  UNL     1      17.063  47.271 -52.542  1.00  0.00     0.164 HD
BRANCH   5   8
HETATM    8  C4  UNL     1      15.716  45.955 -50.676  1.00  0.00     0.227 A 
HETATM    9  N3  UNL     1      16.879  45.617 -50.096  1.00  0.00    -0.168 N 
HETATM   10  C5  UNL     1      17.091  45.636 -48.770  1.00  0.00     0.692 A 
ATOM     11  H3  UNL     1      17.649  45.327 -50.700  1.00  0.00     0.186 HD
HETATM   12  N5  UNL     1      16.093  46.010 -47.978  1.00  0.00    -0.021 N 
HETATM   13  C6  UNL     1      14.879  46.369 -48.504  1.00  0.00     0.717 A 
ATOM     14  H5  UNL     1      16.231  46.031 -46.969  1.00  0.00     0.203 HD
HETATM   15  N7  UNL     1      14.705  46.338 -49.833  1.00  0.00    -0.070 N 
BRANCH  10  16
HETATM   16  N4  UNL     1      18.264  45.288 -48.280  1.00  0.00    -0.234 N 
ATOM     17  H42 UNL     1      18.374  45.021 -47.302  1.00  0.00     0.174 HD
ATOM     18  H41 UNL     1      19.090  45.281 -48.879  1.00  0.00     0.174 HD
ENDBRANCH  10  16
BRANCH  13  19
HETATM   19  N6  UNL     1      13.900  46.748 -47.559  1.00  0.00    -0.215 N 
HETATM   20  C7  UNL     1      13.781  48.145 -47.140  1.00  0.00     0.141 C 
HETATM   21  C8  UNL     1      13.851  48.290 -45.638  1.00  0.00     0.020 C 
HETATM   22  C9  UNL     1      13.039  47.249 -44.936  1.00  0.00     0.003 C 
HETATM   23  C10 UNL     1      12.083  46.650 -45.938  1.00  0.00     0.020 C 
HETATM   24  C11 UNL     1      12.953  45.850 -46.930  1.00  0.00     0.141 C 
ENDBRANCH  13  19
BRANCH  15  25
HETATM   25  N8  UNL     1      13.489  46.694 -50.405  1.00  0.00    -0.322 N 
ATOM     26  H82 UNL     1      12.629  46.686 -49.857  1.00  0.00     0.178 HD
ATOM     27  H81 UNL     1      13.489  46.963 -51.389  1.00  0.00     0.178 HD
ENDBRANCH  15  25
ENDBRANCH   5   8
ENDBRANCH   3   4
BRANCH   3  28
HETATM   28  C12 UNL     1      17.388  45.995 -54.959  1.00  0.00     0.268 C 
HETATM   29  N9  UNL     1      18.355  45.537 -54.022  1.00  0.00    -0.059 NA
HETATM   30  O2  UNL     1      17.535  45.782 -56.185  1.00  0.00    -0.273 OA
ENDBRANCH   3  28
TORSDOF 6
ENDMDL
MODEL 3
REMARK VINA RESULT: -6.972501584      0.709      1.245
REMARK  6 active torsions:
REMARK  status: ('A' for Active; 'I' for Inactive)
REMARK    1  A    between atoms: C2_3  and  N2_4 
REMARK    2  A    between atoms: C2_3  and  C12_28 
REMARK       I    between atoms: N2_4  and  C3_6 
REMARK    3  A    between atoms: C3_6  and  C4_8 
REMARK    4  A    between atoms: C5_11  and  N4_12 
REMARK    5  A    between atoms: C6_17  and  N6_18 
REMARK    6  A    between atoms: N7_24  and  N8_25 
ROOT
HETATM    1  N1  UNL     1      15.267  47.962 -56.682  1.00  0.00    -0.195 NA
HETATM    2  C1  UNL     1      15.645  47.297 -55.838  1.00  0.00     0.094 C 
HETATM    3  C2  UNL     1      16.142  46.445 -54.783  1.00  0.00     0.282 C 
ENDROOT
BRANCH   3   4
HETATM    4  N2  UNL     1      15.890  46.955 -53.463  1.00  0.00    -0.330 N 
HETATM    5  C3  UNL     1      15.223  46.234 -52.447  1.00  0.00     0.290 C 
HETATM    6  O1  UNL     1      14.803  45.078 -52.643  1.00  0.00    -0.264 OA
ATOM      7  H2  UNL     1      16.213  47.897 -53.246  1.00  0.00     0.164 HD
BRANCH   5   8
HETATM    8  C4  UNL     1      15.011  46.829 -51.138  1.00  0.00     0.227 A 
HETATM    9  N3  UNL     1      14.140  47.829 -50.927  1.00  0.00    -0.168 N 
HETATM   10  C5  UNL     1      13.925  48.396 -49.729  1.00  0.00     0.692 A 
ATOM     11  H3  UNL     1      13.610  48.178 -51.725  1.00  0.00     0.186 HD
HETATM   12  N5  UNL     1      14.613  47.947 -48.687  1.00  0.00    -0.021 N 
HETATM   13  C6  UNL     1      15.519  46.928 -48.832  1.00  0.00     0.717 A 
ATOM     14  H5  UNL     1      14.466  48.364 -47.768  1.00  0.00     0.203 HD
HETATM   15  N7  UNL     1      15.706  46.385 -50.043  1.00  0.00    -0.070 N 
BRANCH  10  16
HETATM   16  N4  UNL     1      13.050  49.374 -49.606  1.00  0.00    -0.234 N 
ATOM     17  H42 UNL     1      12.081  49.262 -49.902  1.00  0.00     0.174 HD
ATOM     18  H41 UNL     1      13.333  50.270 -49.206  1.00  0.00     0.174 HD
ENDBRANCH  10  16
BRANCH  13  19
HETATM   19  N6  UNL     1      16.186  46.540 -47.648  1.00  0.00    -0.215 N 
HETATM   20  C7  UNL     1      17.443  47.184 -47.265  1.00  0.00     0.141 C 
HETATM   21  C8  UNL     1      18.542  46.176 -47.026  1.00  0.00     0.020 C 
HETATM   22  C9  UNL     1      18.060  44.997 -46.243  1.00  0.00     0.003 C 
HETATM   23  C10 UNL     1      16.755  45.375 -45.585  1.00  0.00     0.020 C 
HETATM   24  C11 UNL     1      15.729  45.518 -46.729  1.00  0.00     0.141 C 
ENDBRANCH  13  19
BRANCH  15  25
HETATM   25  N8  UNL     1      16.616  45.352 -50.231  1.00  0.00    -0.322 N 
ATOM     26  H82 UNL     1      16.864  44.725 -49.466  1.00  0.00     0.178 HD
ATOM     27  H81 UNL     1      17.024  45.243 -51.160  1.00  0.00     0.178 HD
ENDBRANCH  15  25
ENDBRANCH   5   8
ENDBRANCH   3   4
BRANCH   3  28
HETATM   28  C12 UNL     1      17.622  46.243 -54.898  1.00  0.00     0.268 C 
HETATM   29  N9  UNL     1      18.289  46.986 -55.911  1.00  0.00    -0.059 NA
HETATM   30  O2  UNL     1      18.259  45.466 -54.151  1.00  0.00    -0.273 OA
ENDBRANCH   3  28
TORSDOF 6
ENDMDL
MODEL 4
REMARK VINA RESULT: -6.971555090      1.699      1.970
REMARK  6 active torsions:
REMARK  status: ('A' for Active; 'I' for Inactive)
REMARK    1  A    between atoms: C2_3  and  N2_4 
REMARK    2  A    between atoms: C2_3  and  C12_28 
REMARK       I    between atoms: N2_4  and  C3_6 
REMARK    3  A    between atoms: C3_6  and  C4_8 
REMARK    4  A    between atoms: C5_11  and  N4_12 
REMARK    5  A    between atoms: C6_17  and  N6_18 
REMARK    6  A    between atoms: N7_24  and  N8_25 
ROOT
HETATM    1  N1  UNL     1      15.333  47.071 -55.875  1.00  0.00    -0.195 NA
HETATM    2  C1  UNL     1      15.656  46.618 -54.880  1.00  0.00     0.094 C 
HETATM    3  C2  UNL     1      16.084  46.035 -53.631  1.00  0.00     0.282 C 
ENDROOT
BRANCH   3   4
HETATM    4  N2  UNL     1      15.645  46.765 -52.473  1.00  0.00    -0.330 N 
HETATM    5  C3  UNL     1      14.516  46.419 -51.697  1.00  0.00     0.290 C 
HETATM    6  O1  UNL     1      13.814  45.431 -51.981  1.00  0.00    -0.264 OA
ATOM      7  H2  UNL     1      16.184  47.584 -52.194  1.00  0.00     0.164 HD
BRANCH   5   8
HETATM    8  C4  UNL     1      14.145  47.216 -50.540  1.00  0.00     0.227 A 
HETATM    9  N3  UNL     1      13.407  48.334 -50.634  1.00  0.00    -0.168 N 
HETATM   10  C5  UNL     1      13.050  49.088 -49.582  1.00  0.00     0.692 A 
ATOM     11  H3  UNL     1      13.099  48.628 -51.561  1.00  0.00     0.186 HD
HETATM   12  N5  UNL     1      13.448  48.712 -48.373  1.00  0.00    -0.021 N 
HETATM   13  C6  UNL     1      14.204  47.580 -48.205  1.00  0.00     0.717 A 
ATOM     14  H5  UNL     1      13.189  49.270 -47.560  1.00  0.00     0.203 HD
HETATM   15  N7  UNL     1      14.541  46.851 -49.279  1.00  0.00    -0.070 N 
BRANCH  10  16
HETATM   16  N4  UNL     1      12.323  50.173 -49.759  1.00  0.00    -0.234 N 
ATOM     17  H42 UNL     1      12.467  51.009 -49.193  1.00  0.00     0.174 HD
ATOM     18  H41 UNL     1      11.596  50.193 -50.475  1.00  0.00     0.174 HD
ENDBRANCH  10  16
BRANCH  13  19
HETATM   19  N6  UNL     1      14.563  47.286 -46.871  1.00  0.00    -0.215 N 
HETATM   20  C7  UNL     1      13.638  46.559 -46.001  1.00  0.00     0.141 C 
HETATM   21  C8  UNL     1      13.376  47.303 -44.712  1.00  0.00     0.020 C 
HETATM   22  C9  UNL     1      14.630  47.871 -44.128  1.00  0.00     0.003 C 
HETATM   23  C10 UNL     1      15.802  47.175 -44.775  1.00  0.00     0.020 C 
HETATM   24  C11 UNL     1      15.818  47.648 -46.244  1.00  0.00     0.141 C 
ENDBRANCH  13  19
BRANCH  15  25
HETATM   25  N8  UNL     1      15.305  45.699 -49.151  1.00  0.00    -0.322 N 
ATOM     26  H82 UNL     1      15.529  45.123 -49.963  1.00  0.00     0.178 HD
ATOM     27  H81 UNL     1      15.634  45.449 -48.218  1.00  0.00     0.178 HD
ENDBRANCH  15  25
ENDBRANCH   5   8
ENDBRANCH   3   4
BRANCH   3  28
HETATM   28  C12 UNL     1      17.578  45.951 -53.554  1.00  0.00     0.268 C 
HETATM   29  N9  UNL     1      18.150  45.964 -52.252  1.00  0.00    -0.059 NA
HETATM   30  O2  UNL     1      18.305  45.872 -54.571  1.00  0.00    -0.273 OA
ENDBRANCH   3  28
TORSDOF 6
ENDMDL
MODEL 5
REMARK VINA RESULT: -6.969428088      1.874      2.499
REMARK  6 active torsions:
REMARK  status: ('A' for Active; 'I' for Inactive)
REMARK    1  A    between atoms: C2_3  and  N2_4 
REMARK    2  A    between atoms: C2_3  and  C12_28 
REMARK       I    between atoms: N2_4  and  C3_6 
REMARK    3  A    between atoms: C3_6  and  C4_8 
REMARK    4  A    between atoms: C5_11  and  N4_12 
REMARK    5  A    between atoms: C6_17  and  N6_18 
REMARK    6  A    between atoms: N7_24  and  N8_25 
ROOT
HETATM    1  N1  UNL     1      19.781  47.340 -54.443  1.00  0.00    -0.195 NA
HETATM    2  C1  UNL     1      18.646  47.306 -54.358  1.00  0.00     0.094 C 
HETATM    3  C2  UNL     1      17.205  47.259 -54.275  1.00  0.00     0.282 C 
ENDROOT
BRANCH   3   4
HETATM    4  N2  UNL     1      16.715  46.826 -52.995  1.00  0.00    -0.330 N 
HETATM    5  C3  UNL     1      16.194  47.694 -52.009  1.00  0.00     0.290 C 
HETATM    6  O1  UNL     1      16.129  48.923 -52.199  1.00  0.00    -0.264 OA
ATOM      7  H2  UNL     1      16.745  45.829 -52.786  1.00  0.00     0.164 HD
BRANCH   5   8
HETATM    8  C4  UNL     1      15.720  47.168 -50.740  1.00  0.00     0.227 A 
HETATM    9  N3  UNL     1      14.498  46.632 -50.587  1.00  0.00    -0.168 N 
HETATM   10  C5  UNL     1      14.035  46.139 -49.427  1.00  0.00     0.692 A 
ATOM     11  H3  UNL     1      13.885  46.596 -51.401  1.00  0.00     0.186 HD
HETATM   12  N5  UNL     1      14.828  46.183 -48.363  1.00  0.00    -0.021 N 
HETATM   13  C6  UNL     1      16.088  46.718 -48.449  1.00  0.00     0.717 A 
ATOM     14  H5  UNL     1      14.497  45.815 -47.471  1.00  0.00     0.203 HD
HETATM   15  N7  UNL     1      16.516  47.199 -49.625  1.00  0.00    -0.070 N 
BRANCH  10  16
HETATM   16  N4  UNL     1      12.822  45.628 -49.360  1.00  0.00    -0.234 N 
ATOM     17  H42 UNL     1      12.672  44.620 -49.306  1.00  0.00     0.174 HD
ATOM     18  H41 UNL     1      12.006  46.240 -49.360  1.00  0.00     0.174 HD
ENDBRANCH  10  16
BRANCH  13  19
HETATM   19  N6  UNL     1      16.832  46.706 -47.249  1.00  0.00    -0.215 N 
HETATM   20  C7  UNL     1      17.434  45.461 -46.767  1.00  0.00     0.141 C 
HETATM   21  C8  UNL     1      17.026  45.154 -45.345  1.00  0.00     0.020 C 
HETATM   22  C9  UNL     1      17.070  46.368 -44.474  1.00  0.00     0.003 C 
HETATM   23  C10 UNL     1      17.899  47.416 -45.176  1.00  0.00     0.020 C 
HETATM   24  C11 UNL     1      17.074  47.857 -46.404  1.00  0.00     0.141 C 
ENDBRANCH  13  19
BRANCH  15  25
HETATM   25  N8  UNL     1      17.785  47.749 -49.753  1.00  0.00    -0.322 N 
ATOM     26  H82 UNL     1      17.912  48.706 -50.083  1.00  0.00     0.178 HD
ATOM     27  H81 UNL     1      18.583  47.163 -49.507  1.00  0.00     0.178 HD
ENDBRANCH  15  25
ENDBRANCH   5   8
ENDBRANCH   3   4
BRANCH   3  28
HETATM   28  C12 UNL     1      16.631  46.329 -55.300  1.00  0.00     0.268 C 
HETATM   29  N9  UNL     1      15.253  46.006 -55.165  1.00  0.00    -0.059 NA
HETATM   30  O2  UNL     1      17.311  45.849 -56.236  1.00  0.00    -0.273 OA
ENDBRANCH   3  28
TORSDOF 6
ENDMDL
