MODEL 1
REMARK VINA RESULT: -7.301120153      0.000      0.000
REMARK  7 active torsions:
REMARK  status: ('A' for Active; 'I' for Inactive)
REMARK    1  A    between atoms: C2_2  and  N1_3 
REMARK    2  A    between atoms: C2_2  and  C3_7 
REMARK    3  A    between atoms: N2_9  and  C5_10 
REMARK    4  A    between atoms: C5_10  and  C6_11 
REMARK    5  A    between atoms: C6_11  and  N3_12 
REMARK    6  A    between atoms: C9_19  and  N6_20 
REMARK    7  A    between atoms: C10_25  and  N8_26 
ROOT
HETATM    1  N8  UNL     1      13.246  45.635 -47.570  1.00  0.00    -0.277 N 
ATOM      2  H8  UNL     1      14.142  45.199 -47.352  1.00  0.00     0.179 HD
HETATM    3  C11 UNL     1      12.557  45.187 -48.689  1.00  0.00     0.183 C 
HETATM    4  N9  UNL     1      11.975  44.829 -49.613  1.00  0.00    -0.172 NA
ENDROOT
BRANCH   1   5
HETATM    5  C10 UNL     1      12.821  46.569 -46.791  1.00  0.00     0.161 A 
HETATM    6  N7  UNL     1      11.799  46.346 -45.964  1.00  0.00    -0.174 N 
HETATM    7  C9  UNL     1      11.360  47.313 -45.150  1.00  0.00     0.679 A 
ATOM      8  H7  UNL     1      11.348  45.431 -45.951  1.00  0.00     0.186 HD
HETATM    9  N5  UNL     1      11.961  48.501 -45.179  1.00  0.00    -0.174 N 
HETATM   10  C8  UNL     1      12.979  48.764 -45.986  1.00  0.00     0.152 A 
ATOM     11  H5  UNL     1      11.625  49.236 -44.557  1.00  0.00     0.186 HD
HETATM   12  N4  UNL     1      13.706  49.865 -46.164  1.00  0.00    -0.336 N 
HETATM   13  C12 UNL     1      13.464  47.782 -46.849  1.00  0.00     0.126 A 
HETATM   14  C7  UNL     1      14.607  49.595 -47.093  1.00  0.00     0.185 A 
ATOM     15  H4  UNL     1      13.589  50.752 -45.674  1.00  0.00     0.168 HD
HETATM   16  N3  UNL     1      14.481  48.311 -47.536  1.00  0.00    -0.335 N 
BRANCH   7  17
HETATM   17  N6  UNL     1      10.370  47.117 -44.340  1.00  0.00    -0.234 N 
ATOM     18  H62 UNL     1      10.517  46.770 -43.392  1.00  0.00     0.174 HD
ATOM     19  H61 UNL     1       9.419  47.312 -44.652  1.00  0.00     0.174 HD
ENDBRANCH   7  17
BRANCH  16  20
HETATM   20  C6  UNL     1      15.275  47.654 -48.549  1.00  0.00     0.152 C 
BRANCH  20  21
HETATM   21  C5  UNL     1      15.147  48.318 -49.896  1.00  0.00     0.170 C 
BRANCH  21  22
HETATM   22  N2  UNL     1      14.945  47.390 -50.963  1.00  0.00    -0.286 N 
HETATM   23  C4  UNL     1      15.751  47.091 -51.985  1.00  0.00     0.140 A 
HETATM   24  C3  UNL     1      15.153  46.136 -52.781  1.00  0.00     0.074 A 
HETATM   25  N11 UNL     1      13.965  45.882 -52.194  1.00  0.00    -0.287 N 
HETATM   26  N10 UNL     1      13.872  46.645 -51.114  1.00  0.00    -0.241 N 
ATOM     27  H11 UNL     1      13.263  45.220 -52.523  1.00  0.00     0.188 HD
ATOM     28  H10 UNL     1      13.072  46.653 -50.481  1.00  0.00     0.208 HD
BRANCH  24  29
HETATM   29  C2  UNL     1      15.686  45.501 -54.034  1.00  0.00     0.231 C 
HETATM   30  C1  UNL     1      17.152  45.816 -54.217  1.00  0.00     0.046 C 
BRANCH  29  31
HETATM   31  N1  UNL     1      14.890  45.911 -55.160  1.00  0.00    -0.070 N 
ATOM     32  H13 UNL     1      13.894  45.862 -54.943  1.00  0.00     0.275 HD
ATOM     33  H12 UNL     1      14.972  46.915 -55.322  1.00  0.00     0.275 HD
ATOM     34  H11 UNL     1      15.107  45.383 -56.006  1.00  0.00     0.275 HD
ENDBRANCH  29  31
ENDBRANCH  24  29
ENDBRANCH  21  22
ENDBRANCH  20  21
ENDBRANCH  16  20
ENDBRANCH   1   5
TORSDOF 7
ENDMDL
MODEL 2
REMARK VINA RESULT: -7.162087466      1.555      1.986
REMARK  7 active torsions:
REMARK  status: ('A' for Active; 'I' for Inactive)
REMARK    1  A    between atoms: C2_2  and  N1_3 
REMARK    2  A    between atoms: C2_2  and  C3_7 
REMARK    3  A    between atoms: N2_9  and  C5_10 
REMARK    4  A    between atoms: C5_10  and  C6_11 
REMARK    5  A    between atoms: C6_11  and  N3_12 
REMARK    6  A    between atoms: C9_19  and  N6_20 
REMARK    7  A    between atoms: C10_25  and  N8_26 
ROOT
HETATM    1  N8  UNL     1      13.375  45.473 -47.629  1.00  0.00    -0.277 N 
ATOM      2  H8  UNL     1      14.243  44.949 -47.514  1.00  0.00     0.179 HD
HETATM    3  C11 UNL     1      12.780  45.484 -48.883  1.00  0.00     0.183 C 
HETATM    4  N9  UNL     1      12.276  45.506 -49.915  1.00  0.00    -0.172 NA
ENDROOT
BRANCH   1   5
HETATM    5  C10 UNL     1      12.897  46.085 -46.601  1.00  0.00     0.161 A 
HETATM    6  N7  UNL     1      11.584  46.087 -46.365  1.00  0.00    -0.174 N 
HETATM    7  C9  UNL     1      11.087  46.716 -45.296  1.00  0.00     0.679 A 
ATOM      8  H7  UNL     1      10.955  45.603 -47.006  1.00  0.00     0.186 HD
HETATM    9  N5  UNL     1      11.923  47.341 -44.469  1.00  0.00    -0.174 N 
HETATM   10  C8  UNL     1      13.234  47.364 -44.667  1.00  0.00     0.152 A 
ATOM     11  H5  UNL     1      11.541  47.820 -43.654  1.00  0.00     0.186 HD
HETATM   12  N4  UNL     1      14.223  47.920 -43.971  1.00  0.00    -0.336 N 
HETATM   13  C12 UNL     1      13.789  46.720 -45.770  1.00  0.00     0.126 A 
HETATM   14  C7  UNL     1      15.351  47.641 -44.603  1.00  0.00     0.185 A 
ATOM     15  H4  UNL     1      14.130  48.460 -43.111  1.00  0.00     0.168 HD
HETATM   16  N3  UNL     1      15.113  46.899 -45.722  1.00  0.00    -0.335 N 
BRANCH   7  17
HETATM   17  N6  UNL     1       9.816  46.730 -45.050  1.00  0.00    -0.234 N 
ATOM     18  H62 UNL     1       9.259  45.875 -45.075  1.00  0.00     0.174 HD
ATOM     19  H61 UNL     1       9.356  47.612 -44.826  1.00  0.00     0.174 HD
ENDBRANCH   7  17
BRANCH  16  20
HETATM   20  C6  UNL     1      16.087  46.411 -46.671  1.00  0.00     0.152 C 
BRANCH  20  21
HETATM   21  C5  UNL     1      16.547  47.485 -47.623  1.00  0.00     0.170 C 
BRANCH  21  22
HETATM   22  N2  UNL     1      15.977  47.362 -48.927  1.00  0.00    -0.286 N 
HETATM   23  C4  UNL     1      16.208  46.440 -49.865  1.00  0.00     0.140 A 
HETATM   24  C3  UNL     1      15.436  46.708 -50.977  1.00  0.00     0.074 A 
HETATM   25  N11 UNL     1      14.741  47.821 -50.662  1.00  0.00    -0.287 N 
HETATM   26  N10 UNL     1      15.086  48.186 -49.435  1.00  0.00    -0.241 N 
ATOM     27  H11 UNL     1      14.069  48.299 -51.263  1.00  0.00     0.188 HD
ATOM     28  H10 UNL     1      14.709  48.999 -48.948  1.00  0.00     0.208 HD
BRANCH  24  29
HETATM   29  C2  UNL     1      15.366  45.944 -52.268  1.00  0.00     0.231 C 
HETATM   30  C1  UNL     1      16.023  46.716 -53.388  1.00  0.00     0.046 C 
BRANCH  29  31
HETATM   31  N1  UNL     1      13.996  45.610 -52.559  1.00  0.00    -0.070 N 
ATOM     32  H13 UNL     1      13.391  46.426 -52.461  1.00  0.00     0.275 HD
ATOM     33  H12 UNL     1      13.866  45.429 -53.554  1.00  0.00     0.275 HD
ATOM     34  H11 UNL     1      13.657  44.830 -51.995  1.00  0.00     0.275 HD
ENDBRANCH  29  31
ENDBRANCH  24  29
ENDBRANCH  21  22
ENDBRANCH  20  21
ENDBRANCH  16  20
ENDBRANCH   1   5
TORSDOF 7
ENDMDL
MODEL 3
REMARK VINA RESULT: -7.073285647      2.566      3.226
REMARK  7 active torsions:
REMARK  status: ('A' for Active; 'I' for Inactive)
REMARK    1  A    between atoms: C2_2  and  N1_3 
REMARK    2  A    between atoms: C2_2  and  C3_7 
REMARK    3  A    between atoms: N2_9  and  C5_10 
REMARK    4  A    between atoms: C5_10  and  C6_11 
REMARK    5  A    between atoms: C6_11  and  N3_12 
REMARK    6  A    between atoms: C9_19  and  N6_20 
REMARK    7  A    between atoms: C10_25  and  N8_26 
ROOT
HETATM    1  N8  UNL     1      13.005  45.242 -47.516  1.00  0.00    -0.277 N 
ATOM      2  H8  UNL     1      13.423  44.338 -47.293  1.00  0.00     0.179 HD
HETATM    3  C11 UNL     1      12.709  45.513 -48.845  1.00  0.00     0.183 C 
HETATM    4  N9  UNL     1      12.459  45.755 -49.940  1.00  0.00    -0.172 NA
ENDROOT
BRANCH   1   5
HETATM    5  C10 UNL     1      12.784  46.063 -46.548  1.00  0.00     0.161 A 
HETATM    6  N7  UNL     1      11.542  46.272 -46.110  1.00  0.00    -0.174 N 
HETATM    7  C9  UNL     1      11.311  47.120 -45.102  1.00  0.00     0.679 A 
ATOM      8  H7  UNL     1      10.762  45.782 -46.548  1.00  0.00     0.186 HD
HETATM    9  N5  UNL     1      12.341  47.751 -44.542  1.00  0.00    -0.174 N 
HETATM   10  C8  UNL     1      13.591  47.571 -44.947  1.00  0.00     0.152 A 
ATOM     11  H5  UNL     1      12.163  48.396 -43.772  1.00  0.00     0.186 HD
HETATM   12  N4  UNL     1      14.741  48.094 -44.527  1.00  0.00    -0.336 N 
HETATM   13  C12 UNL     1      13.871  46.697 -45.995  1.00  0.00     0.126 A 
HETATM   14  C7  UNL     1      15.703  47.576 -45.272  1.00  0.00     0.185 A 
ATOM     15  H4  UNL     1      14.858  48.769 -43.771  1.00  0.00     0.168 HD
HETATM   16  N3  UNL     1      15.193  46.707 -46.191  1.00  0.00    -0.335 N 
BRANCH   7  17
HETATM   17  N6  UNL     1      10.113  47.337 -44.662  1.00  0.00    -0.234 N 
ATOM     18  H62 UNL     1       9.292  47.144 -45.236  1.00  0.00     0.174 HD
ATOM     19  H61 UNL     1       9.981  47.709 -43.722  1.00  0.00     0.174 HD
ENDBRANCH   7  17
BRANCH  16  20
HETATM   20  C6  UNL     1      15.926  45.955 -47.183  1.00  0.00     0.152 C 
BRANCH  20  21
HETATM   21  C5  UNL     1      16.652  46.847 -48.157  1.00  0.00     0.170 C 
BRANCH  21  22
HETATM   22  N2  UNL     1      15.774  47.548 -49.039  1.00  0.00    -0.286 N 
HETATM   23  C4  UNL     1      15.198  48.743 -48.883  1.00  0.00     0.140 A 
HETATM   24  C3  UNL     1      14.424  49.031 -49.988  1.00  0.00     0.074 A 
HETATM   25  N11 UNL     1      14.562  47.964 -50.801  1.00  0.00    -0.287 N 
HETATM   26  N10 UNL     1      15.372  47.099 -50.208  1.00  0.00    -0.241 N 
ATOM     27  H11 UNL     1      14.121  47.844 -51.714  1.00  0.00     0.188 HD
ATOM     28  H10 UNL     1      15.648  46.201 -50.606  1.00  0.00     0.208 HD
BRANCH  24  29
HETATM   29  C2  UNL     1      13.597  50.257 -50.252  1.00  0.00     0.231 C 
HETATM   30  C1  UNL     1      13.953  51.366 -49.288  1.00  0.00     0.046 C 
BRANCH  29  31
HETATM   31  N1  UNL     1      12.200  49.917 -50.208  1.00  0.00    -0.070 N 
ATOM     32  H13 UNL     1      12.006  49.261 -49.451  1.00  0.00     0.275 HD
ATOM     33  H12 UNL     1      11.639  50.706 -49.887  1.00  0.00     0.275 HD
ATOM     34  H11 UNL     1      11.856  49.561 -51.100  1.00  0.00     0.275 HD
ENDBRANCH  29  31
ENDBRANCH  24  29
ENDBRANCH  21  22
ENDBRANCH  20  21
ENDBRANCH  16  20
ENDBRANCH   1   5
TORSDOF 7
ENDMDL
MODEL 4
REMARK VINA RESULT: -7.064526166      0.975      1.203
REMARK  7 active torsions:
REMARK  status: ('A' for Active; 'I' for Inactive)
REMARK    1  A    between atoms: C2_2  and  N1_3 
REMARK    2  A    between atoms: C2_2  and  C3_7 
REMARK    3  A    between atoms: N2_9  and  C5_10 
REMARK    4  A    between atoms: C5_10  and  C6_11 
REMARK    5  A    between atoms: C6_11  and  N3_12 
REMARK    6  A    between atoms: C9_19  and  N6_20 
REMARK    7  A    between atoms: C10_25  and  N8_26 
ROOT
HETATM    1  N8  UNL     1      13.743  45.986 -47.978  1.00  0.00    -0.277 N 
ATOM      2  H8  UNL     1      14.719  45.692 -47.974  1.00  0.00     0.179 HD
HETATM    3  C11 UNL     1      12.931  45.537 -49.012  1.00  0.00     0.183 C 
HETATM    4  N9  UNL     1      12.246  45.177 -49.861  1.00  0.00    -0.172 NA
ENDROOT
BRANCH   1   5
HETATM    5  C10 UNL     1      13.336  46.749 -47.024  1.00  0.00     0.161 A 
HETATM    6  N7  UNL     1      12.433  46.311 -46.146  1.00  0.00    -0.174 N 
HETATM    7  C9  UNL     1      12.013  47.101 -45.151  1.00  0.00     0.679 A 
ATOM      8  H7  UNL     1      12.059  45.366 -46.233  1.00  0.00     0.186 HD
HETATM    9  N5  UNL     1      12.512  48.331 -45.051  1.00  0.00    -0.174 N 
HETATM   10  C8  UNL     1      13.411  48.806 -45.903  1.00  0.00     0.152 A 
ATOM     11  H5  UNL     1      12.192  48.931 -44.291  1.00  0.00     0.186 HD
HETATM   12  N4  UNL     1      14.025  49.985 -45.976  1.00  0.00    -0.336 N 
HETATM   13  C12 UNL     1      13.871  48.013 -46.953  1.00  0.00     0.126 A 
HETATM   14  C7  UNL     1      14.835  49.941 -47.020  1.00  0.00     0.185 A 
ATOM     15  H4  UNL     1      13.894  50.775 -45.344  1.00  0.00     0.168 HD
HETATM   16  N3  UNL     1      14.761  48.731 -47.645  1.00  0.00    -0.335 N 
BRANCH   7  17
HETATM   17  N6  UNL     1      11.138  46.694 -44.289  1.00  0.00    -0.234 N 
ATOM     18  H62 UNL     1      10.197  47.087 -44.259  1.00  0.00     0.174 HD
ATOM     19  H61 UNL     1      11.389  45.964 -43.622  1.00  0.00     0.174 HD
ENDBRANCH   7  17
BRANCH  16  20
HETATM   20  C6  UNL     1      15.485  48.309 -48.822  1.00  0.00     0.152 C 
BRANCH  20  21
HETATM   21  C5  UNL     1      14.967  48.962 -50.078  1.00  0.00     0.170 C 
BRANCH  21  22
HETATM   22  N2  UNL     1      15.452  48.347 -51.272  1.00  0.00    -0.286 N 
HETATM   23  C4  UNL     1      15.214  47.121 -51.747  1.00  0.00     0.140 A 
HETATM   24  C3  UNL     1      15.891  46.946 -52.936  1.00  0.00     0.074 A 
HETATM   25  N11 UNL     1      16.538  48.112 -53.147  1.00  0.00    -0.287 N 
HETATM   26  N10 UNL     1      16.256  48.924 -52.138  1.00  0.00    -0.241 N 
ATOM     27  H11 UNL     1      17.138  48.329 -53.943  1.00  0.00     0.188 HD
ATOM     28  H10 UNL     1      16.616  49.874 -52.046  1.00  0.00     0.208 HD
BRANCH  24  29
HETATM   29  C2  UNL     1      15.919  45.734 -53.822  1.00  0.00     0.231 C 
HETATM   30  C1  UNL     1      17.269  45.578 -54.481  1.00  0.00     0.046 C 
BRANCH  29  31
HETATM   31  N1  UNL     1      14.845  45.807 -54.777  1.00  0.00    -0.070 N 
ATOM     32  H13 UNL     1      13.977  46.104 -54.330  1.00  0.00     0.275 HD
ATOM     33  H12 UNL     1      14.976  46.590 -55.417  1.00  0.00     0.275 HD
ATOM     34  H11 UNL     1      14.715  44.933 -55.287  1.00  0.00     0.275 HD
ENDBRANCH  29  31
ENDBRANCH  24  29
ENDBRANCH  21  22
ENDBRANCH  20  21
ENDBRANCH  16  20
ENDBRANCH   1   5
TORSDOF 7
ENDMDL
MODEL 5
REMARK VINA RESULT: -6.979461013      2.037      3.163
REMARK  7 active torsions:
REMARK  status: ('A' for Active; 'I' for Inactive)
REMARK    1  A    between atoms: C2_2  and  N1_3 
REMARK    2  A    between atoms: C2_2  and  C3_7 
REMARK    3  A    between atoms: N2_9  and  C5_10 
REMARK    4  A    between atoms: C5_10  and  C6_11 
REMARK    5  A    between atoms: C6_11  and  N3_12 
REMARK    6  A    between atoms: C9_19  and  N6_20 
REMARK    7  A    between atoms: C10_25  and  N8_26 
ROOT
HETATM    1  N8  UNL     1      13.465  49.742 -49.803  1.00  0.00    -0.277 N 
ATOM      2  H8  UNL     1      14.307  49.343 -50.219  1.00  0.00     0.179 HD
HETATM    3  C11 UNL     1      12.748  50.671 -50.545  1.00  0.00     0.183 C 
HETATM    4  N9  UNL     1      12.144  51.443 -51.144  1.00  0.00    -0.172 NA
ENDROOT
BRANCH   1   5
HETATM    5  C10 UNL     1      13.132  49.354 -48.621  1.00  0.00     0.161 A 
HETATM    6  N7  UNL     1      12.366  50.125 -47.847  1.00  0.00    -0.174 N 
HETATM    7  C9  UNL     1      12.014  49.721 -46.622  1.00  0.00     0.679 A 
ATOM      8  H7  UNL     1      12.047  51.029 -48.193  1.00  0.00     0.186 HD
HETATM    9  N5  UNL     1      12.440  48.536 -46.187  1.00  0.00    -0.174 N 
HETATM   10  C8  UNL     1      13.202  47.740 -46.924  1.00  0.00     0.152 A 
ATOM     11  H5  UNL     1      12.169  48.230 -45.252  1.00  0.00     0.186 HD
HETATM   12  N4  UNL     1      13.721  46.539 -46.679  1.00  0.00    -0.336 N 
HETATM   13  C12 UNL     1      13.590  48.126 -48.205  1.00  0.00     0.126 A 
HETATM   14  C7  UNL     1      14.405  46.181 -47.753  1.00  0.00     0.185 A 
ATOM     15  H4  UNL     1      13.613  45.995 -45.823  1.00  0.00     0.168 HD
HETATM   16  N3  UNL     1      14.342  47.147 -48.715  1.00  0.00    -0.335 N 
BRANCH   7  17
HETATM   17  N6  UNL     1      11.272  50.455 -45.856  1.00  0.00    -0.234 N 
ATOM     18  H62 UNL     1      11.114  50.213 -44.877  1.00  0.00     0.174 HD
ATOM     19  H61 UNL     1      10.835  51.295 -46.233  1.00  0.00     0.174 HD
ENDBRANCH   7  17
BRANCH  16  20
HETATM   20  C6  UNL     1      14.965  47.124 -50.018  1.00  0.00     0.152 C 
BRANCH  20  21
HETATM   21  C5  UNL     1      14.137  46.384 -51.037  1.00  0.00     0.170 C 
BRANCH  21  22
HETATM   22  N2  UNL     1      14.850  46.099 -52.241  1.00  0.00    -0.286 N 
HETATM   23  C4  UNL     1      16.167  46.091 -52.460  1.00  0.00     0.140 A 
HETATM   24  C3  UNL     1      16.415  45.760 -53.776  1.00  0.00     0.074 A 
HETATM   25  N11 UNL     1      15.198  45.574 -54.327  1.00  0.00    -0.287 N 
HETATM   26  N10 UNL     1      14.287  45.782 -53.387  1.00  0.00    -0.241 N 
ATOM     27  H11 UNL     1      15.011  45.317 -55.297  1.00  0.00     0.188 HD
ATOM     28  H10 UNL     1      13.280  45.708 -53.534  1.00  0.00     0.208 HD
BRANCH  24  29
HETATM   29  C2  UNL     1      17.741  45.631 -54.470  1.00  0.00     0.231 C 
HETATM   30  C1  UNL     1      18.880  45.861 -53.505  1.00  0.00     0.046 C 
BRANCH  29  31
HETATM   31  N1  UNL     1      17.786  46.523 -55.598  1.00  0.00    -0.070 N 
ATOM     32  H13 UNL     1      17.850  47.495 -55.295  1.00  0.00     0.275 HD
ATOM     33  H12 UNL     1      18.676  46.447 -56.091  1.00  0.00     0.275 HD
ATOM     34  H11 UNL     1      17.001  46.387 -56.235  1.00  0.00     0.275 HD
ENDBRANCH  29  31
ENDBRANCH  24  29
ENDBRANCH  21  22
ENDBRANCH  20  21
ENDBRANCH  16  20
ENDBRANCH   1   5
TORSDOF 7
ENDMDL
