MODEL 1
REMARK VINA RESULT: -7.794870878      0.000      0.000
REMARK  5 active torsions:
REMARK  status: ('A' for Active; 'I' for Inactive)
REMARK    1  A    between atoms: C2_7  and  C3_8 
REMARK    2  A    between atoms: C3_8  and  N3_9 
REMARK    3  A    between atoms: C5_15  and  C6_16 
REMARK    4  A    between atoms: C6_16  and  N6_17 
REMARK    5  A    between atoms: N6_17  and  N7_19 
ROOT
HETATM    1  N1  UNL     1      21.225  47.069 -55.120  1.00  0.00    -0.383 N 
ATOM      2  H11 UNL     1      22.124  46.606 -55.250  1.00  0.00     0.157 HD
ATOM      3  H12 UNL     1      20.911  47.703 -55.855  1.00  0.00     0.157 HD
HETATM    4  C1  UNL     1      20.503  46.879 -54.084  1.00  0.00     0.132 A 
HETATM    5  N2  UNL     1      19.318  47.490 -53.912  1.00  0.00    -0.329 N 
ATOM      6  H2  UNL     1      18.990  48.126 -54.639  1.00  0.00     0.168 HD
HETATM    7  C2  UNL     1      18.553  47.304 -52.841  1.00  0.00     0.104 A 
HETATM    8  N10 UNL     1      18.958  46.456 -51.841  1.00  0.00    -0.328 N 
ATOM      9  H10 UNL     1      18.379  46.306 -51.015  1.00  0.00     0.169 HD
HETATM   10  C8  UNL     1      20.148  45.823 -51.982  1.00  0.00     0.151 A 
HETATM   11  N11 UNL     1      20.782  44.948 -51.165  1.00  0.00    -0.267 N 
ATOM     12  H11 UNL     1      20.450  44.604 -50.263  1.00  0.00     0.186 HD
HETATM   13  N12 UNL     1      21.915  44.626 -51.764  1.00  0.00    -0.020 NA
HETATM   14  N13 UNL     1      22.030  45.254 -52.920  1.00  0.00    -0.277 N 
ATOM     15  H13 UNL     1      22.813  45.174 -53.568  1.00  0.00     0.184 HD
HETATM   16  C9  UNL     1      20.924  46.029 -53.098  1.00  0.00     0.135 A 
ENDROOT
BRANCH   7  17
HETATM   17  C3  UNL     1      17.243  47.965 -52.627  1.00  0.00     0.227 C 
BRANCH  17  18
HETATM   18  N3  UNL     1      16.161  47.013 -52.770  1.00  0.00    -0.267 N 
HETATM   19  N4  UNL     1      15.511  46.553 -51.675  1.00  0.00    -0.292 N 
HETATM   20  C4  UNL     1      14.537  45.727 -52.079  1.00  0.00     0.199 A 
ATOM     21  H4  UNL     1      15.726  46.794 -50.708  1.00  0.00     0.188 HD
HETATM   22  N5  UNL     1      14.601  45.690 -53.409  1.00  0.00    -0.335 N 
HETATM   23  C5  UNL     1      15.618  46.493 -53.863  1.00  0.00     0.140 A 
ATOM     24  H5  UNL     1      13.981  45.143 -54.006  1.00  0.00     0.168 HD
BRANCH  23  25
HETATM   25  C6  UNL     1      16.006  46.668 -55.246  1.00  0.00     0.157 C 
BRANCH  25  26
HETATM   26  N6  UNL     1      15.400  47.333 -56.138  1.00  0.00    -0.306 N 
ATOM     27  H6  UNL     1      14.693  46.863 -56.704  1.00  0.00     0.186 HD
BRANCH  26  28
HETATM   28  N7  UNL     1      15.656  48.677 -56.374  1.00  0.00    -0.276 N 
HETATM   29  C7  UNL     1      15.389  49.256 -57.512  1.00  0.00     0.215 C 
HETATM   30  N8  UNL     1      15.689  50.632 -57.653  1.00  0.00    -0.065 NA
HETATM   31  N9  UNL     1      14.813  48.553 -58.601  1.00  0.00    -0.065 NA
ATOM     32  H7  UNL     1      16.071  49.235 -55.626  1.00  0.00     0.189 HD
ENDBRANCH  26  28
ENDBRANCH  25  26
ENDBRANCH  23  25
ENDBRANCH  17  18
ENDBRANCH   7  17
TORSDOF 5
ENDMDL
MODEL 2
REMARK VINA RESULT: -7.495883591      1.512      2.609
REMARK  5 active torsions:
REMARK  status: ('A' for Active; 'I' for Inactive)
REMARK    1  A    between atoms: C2_7  and  C3_8 
REMARK    2  A    between atoms: C3_8  and  N3_9 
REMARK    3  A    between atoms: C5_15  and  C6_16 
REMARK    4  A    between atoms: C6_16  and  N6_17 
REMARK    5  A    between atoms: N6_17  and  N7_19 
ROOT
HETATM    1  N1  UNL     1      20.017  45.465 -50.531  1.00  0.00    -0.383 N 
ATOM      2  H11 UNL     1      20.955  45.090 -50.671  1.00  0.00     0.157 HD
ATOM      3  H12 UNL     1      19.560  45.271 -49.641  1.00  0.00     0.157 HD
HETATM    4  C1  UNL     1      19.419  46.155 -51.424  1.00  0.00     0.132 A 
HETATM    5  N2  UNL     1      18.182  46.650 -51.240  1.00  0.00    -0.329 N 
ATOM      6  H2  UNL     1      17.712  46.464 -50.355  1.00  0.00     0.168 HD
HETATM    7  C2  UNL     1      17.544  47.369 -52.158  1.00  0.00     0.104 A 
HETATM    8  N10 UNL     1      18.143  47.642 -53.362  1.00  0.00    -0.328 N 
ATOM      9  H10 UNL     1      17.663  48.194 -54.073  1.00  0.00     0.169 HD
HETATM   10  C8  UNL     1      19.390  47.158 -53.581  1.00  0.00     0.151 A 
HETATM   11  N11 UNL     1      20.202  47.273 -54.659  1.00  0.00    -0.267 N 
ATOM     12  H11 UNL     1      19.998  47.767 -55.528  1.00  0.00     0.186 HD
HETATM   13  N12 UNL     1      21.312  46.618 -54.366  1.00  0.00    -0.020 NA
HETATM   14  N13 UNL     1      21.243  46.096 -53.155  1.00  0.00    -0.277 N 
ATOM     15  H13 UNL     1      21.971  45.546 -52.699  1.00  0.00     0.184 HD
HETATM   16  C9  UNL     1      20.032  46.416 -52.619  1.00  0.00     0.135 A 
ENDROOT
BRANCH   7  17
HETATM   17  C3  UNL     1      16.181  47.927 -51.981  1.00  0.00     0.227 C 
BRANCH  17  18
HETATM   18  N3  UNL     1      15.236  46.876 -51.664  1.00  0.00    -0.267 N 
HETATM   19  N4  UNL     1      14.608  46.865 -50.465  1.00  0.00    -0.292 N 
HETATM   20  C4  UNL     1      13.765  45.825 -50.440  1.00  0.00     0.199 A 
ATOM     21  H4  UNL     1      14.753  47.535 -49.710  1.00  0.00     0.188 HD
HETATM   22  N5  UNL     1      13.884  45.214 -51.617  1.00  0.00    -0.335 N 
HETATM   23  C5  UNL     1      14.808  45.860 -52.401  1.00  0.00     0.140 A 
ATOM     24  H5  UNL     1      13.364  44.383 -51.897  1.00  0.00     0.168 HD
BRANCH  23  25
HETATM   25  C6  UNL     1      15.224  45.455 -53.727  1.00  0.00     0.157 C 
BRANCH  25  26
HETATM   26  N6  UNL     1      14.823  45.920 -54.836  1.00  0.00    -0.306 N 
ATOM     27  H6  UNL     1      14.098  45.416 -55.345  1.00  0.00     0.186 HD
BRANCH  26  28
HETATM   28  N7  UNL     1      15.331  47.090 -55.385  1.00  0.00    -0.276 N 
HETATM   29  C7  UNL     1      16.516  47.156 -55.928  1.00  0.00     0.215 C 
HETATM   30  N8  UNL     1      16.942  48.397 -56.460  1.00  0.00    -0.065 NA
HETATM   31  N9  UNL     1      17.380  46.034 -55.999  1.00  0.00    -0.065 NA
ATOM     32  H7  UNL     1      14.755  47.932 -55.362  1.00  0.00     0.189 HD
ENDBRANCH  26  28
ENDBRANCH  25  26
ENDBRANCH  23  25
ENDBRANCH  17  18
ENDBRANCH   7  17
TORSDOF 5
ENDMDL
MODEL 3
REMARK VINA RESULT: -7.459153794      7.570     10.246
REMARK  5 active torsions:
REMARK  status: ('A' for Active; 'I' for Inactive)
REMARK    1  A    between atoms: C2_7  and  C3_8 
REMARK    2  A    between atoms: C3_8  and  N3_9 
REMARK    3  A    between atoms: C5_15  and  C6_16 
REMARK    4  A    between atoms: C6_16  and  N6_17 
REMARK    5  A    between atoms: N6_17  and  N7_19 
ROOT
HETATM    1  N1  UNL     1      15.651  51.744 -48.269  1.00  0.00    -0.383 N 
ATOM      2  H11 UNL     1      15.624  52.663 -48.712  1.00  0.00     0.157 HD
ATOM      3  H12 UNL     1      16.410  51.561 -47.612  1.00  0.00     0.157 HD
HETATM    4  C1  UNL     1      14.780  50.844 -48.512  1.00  0.00     0.132 A 
HETATM    5  N2  UNL     1      14.816  49.633 -47.928  1.00  0.00    -0.329 N 
ATOM      6  H2  UNL     1      15.568  49.434 -47.269  1.00  0.00     0.168 HD
HETATM    7  C2  UNL     1      13.918  48.683 -48.169  1.00  0.00     0.104 A 
HETATM    8  N10 UNL     1      12.890  48.911 -49.049  1.00  0.00    -0.328 N 
ATOM      9  H10 UNL     1      12.195  48.190 -49.241  1.00  0.00     0.169 HD
HETATM   10  C8  UNL     1      12.823  50.121 -49.656  1.00  0.00     0.151 A 
HETATM   11  N11 UNL     1      11.932  50.609 -50.553  1.00  0.00    -0.267 N 
ATOM     12  H11 UNL     1      11.124  50.119 -50.938  1.00  0.00     0.186 HD
HETATM   13  N12 UNL     1      12.314  51.843 -50.831  1.00  0.00    -0.020 NA
HETATM   14  N13 UNL     1      13.403  52.160 -50.155  1.00  0.00    -0.277 N 
ATOM     15  H13 UNL     1      13.893  53.054 -50.197  1.00  0.00     0.184 HD
HETATM   16  C9  UNL     1      13.762  51.089 -49.393  1.00  0.00     0.135 A 
ENDROOT
BRANCH   7  17
HETATM   17  C3  UNL     1      13.934  47.340 -47.539  1.00  0.00     0.227 C 
BRANCH  17  18
HETATM   18  N3  UNL     1      13.957  47.453 -46.096  1.00  0.00    -0.267 N 
HETATM   19  N4  UNL     1      15.137  47.431 -45.431  1.00  0.00    -0.292 N 
HETATM   20  C4  UNL     1      14.888  47.593 -44.125  1.00  0.00     0.199 A 
ATOM     21  H4  UNL     1      16.057  47.311 -45.853  1.00  0.00     0.188 HD
HETATM   22  N5  UNL     1      13.566  47.711 -44.005  1.00  0.00    -0.335 N 
HETATM   23  C5  UNL     1      12.963  47.624 -45.235  1.00  0.00     0.140 A 
ATOM     24  H5  UNL     1      13.073  47.848 -43.123  1.00  0.00     0.168 HD
BRANCH  23  25
HETATM   25  C6  UNL     1      11.538  47.671 -45.484  1.00  0.00     0.157 C 
BRANCH  25  26
HETATM   26  N6  UNL     1      10.779  48.684 -45.426  1.00  0.00    -0.306 N 
ATOM     27  H6  UNL     1      11.092  49.556 -45.854  1.00  0.00     0.186 HD
BRANCH  26  28
HETATM   28  N7  UNL     1       9.539  48.657 -44.803  1.00  0.00    -0.276 N 
HETATM   29  C7  UNL     1       8.468  49.170 -45.344  1.00  0.00     0.215 C 
HETATM   30  N8  UNL     1       7.249  49.090 -44.628  1.00  0.00    -0.065 NA
HETATM   31  N9  UNL     1       8.489  49.799 -46.615  1.00  0.00    -0.065 NA
ATOM     32  H7  UNL     1       9.461  48.217 -43.885  1.00  0.00     0.189 HD
ENDBRANCH  26  28
ENDBRANCH  25  26
ENDBRANCH  23  25
ENDBRANCH  17  18
ENDBRANCH   7  17
TORSDOF 5
ENDMDL
MODEL 4
REMARK VINA RESULT: -7.392364626      1.471      6.139
REMARK  5 active torsions:
REMARK  status: ('A' for Active; 'I' for Inactive)
REMARK    1  A    between atoms: C2_7  and  C3_8 
REMARK    2  A    between atoms: C3_8  and  N3_9 
REMARK    3  A    between atoms: C5_15  and  C6_16 
REMARK    4  A    between atoms: C6_16  and  N6_17 
REMARK    5  A    between atoms: N6_17  and  N7_19 
ROOT
HETATM    1  N1  UNL     1      14.879  45.899 -55.112  1.00  0.00    -0.383 N 
ATOM      2  H11 UNL     1      14.220  45.773 -55.880  1.00  0.00     0.157 HD
ATOM      3  H12 UNL     1      14.922  45.167 -54.404  1.00  0.00     0.157 HD
HETATM    4  C1  UNL     1      15.631  46.927 -55.020  1.00  0.00     0.132 A 
HETATM    5  N2  UNL     1      16.499  47.094 -54.007  1.00  0.00    -0.329 N 
ATOM      6  H2  UNL     1      16.554  46.369 -53.291  1.00  0.00     0.168 HD
HETATM    7  C2  UNL     1      17.289  48.157 -53.895  1.00  0.00     0.104 A 
HETATM    8  N10 UNL     1      17.246  49.153 -54.837  1.00  0.00    -0.328 N 
ATOM      9  H10 UNL     1      17.848  49.973 -54.762  1.00  0.00     0.169 HD
HETATM   10  C8  UNL     1      16.382  49.017 -55.873  1.00  0.00     0.151 A 
HETATM   11  N11 UNL     1      16.134  49.833 -56.926  1.00  0.00    -0.267 N 
ATOM     12  H11 UNL     1      16.582  50.728 -57.123  1.00  0.00     0.186 HD
HETATM   13  N12 UNL     1      15.200  49.241 -57.650  1.00  0.00    -0.020 NA
HETATM   14  N13 UNL     1      14.844  48.091 -57.106  1.00  0.00    -0.277 N 
ATOM     15  H13 UNL     1      14.142  47.449 -57.474  1.00  0.00     0.184 HD
HETATM   16  C9  UNL     1      15.573  47.910 -55.970  1.00  0.00     0.135 A 
ENDROOT
BRANCH   7  17
HETATM   17  C3  UNL     1      18.256  48.365 -52.789  1.00  0.00     0.227 C 
BRANCH  17  18
HETATM   18  N3  UNL     1      19.104  47.203 -52.625  1.00  0.00    -0.267 N 
HETATM   19  N4  UNL     1      20.154  47.005 -53.457  1.00  0.00    -0.292 N 
HETATM   20  C4  UNL     1      20.795  45.894 -53.070  1.00  0.00     0.199 A 
ATOM     21  H4  UNL     1      20.413  47.601 -54.243  1.00  0.00     0.188 HD
HETATM   22  N5  UNL     1      20.134  45.427 -52.012  1.00  0.00    -0.335 N 
HETATM   23  C5  UNL     1      19.065  46.236 -51.718  1.00  0.00     0.140 A 
ATOM     24  H5  UNL     1      20.386  44.585 -51.494  1.00  0.00     0.168 HD
BRANCH  23  25
HETATM   25  C6  UNL     1      18.102  46.016 -50.660  1.00  0.00     0.157 C 
BRANCH  25  26
HETATM   26  N6  UNL     1      16.931  45.545 -50.770  1.00  0.00    -0.306 N 
ATOM     27  H6  UNL     1      16.820  44.574 -51.064  1.00  0.00     0.186 HD
BRANCH  26  28
HETATM   28  N7  UNL     1      15.793  46.296 -50.507  1.00  0.00    -0.276 N 
HETATM   29  C7  UNL     1      14.662  46.100 -51.128  1.00  0.00     0.215 C 
HETATM   30  N8  UNL     1      13.559  46.919 -50.787  1.00  0.00    -0.065 NA
HETATM   31  N9  UNL     1      14.507  45.102 -52.123  1.00  0.00    -0.065 NA
ATOM     32  H7  UNL     1      15.843  47.030 -49.800  1.00  0.00     0.189 HD
ENDBRANCH  26  28
ENDBRANCH  25  26
ENDBRANCH  23  25
ENDBRANCH  17  18
ENDBRANCH   7  17
TORSDOF 5
ENDMDL
MODEL 5
REMARK VINA RESULT: -7.316671059      5.907      9.163
REMARK  5 active torsions:
REMARK  status: ('A' for Active; 'I' for Inactive)
REMARK    1  A    between atoms: C2_7  and  C3_8 
REMARK    2  A    between atoms: C3_8  and  N3_9 
REMARK    3  A    between atoms: C5_15  and  C6_16 
REMARK    4  A    between atoms: C6_16  and  N6_17 
REMARK    5  A    between atoms: N6_17  and  N7_19 
ROOT
HETATM    1  N1  UNL     1      13.140  45.422 -46.573  1.00  0.00    -0.383 N 
ATOM      2  H11 UNL     1      12.541  44.718 -46.141  1.00  0.00     0.157 HD
ATOM      3  H12 UNL     1      13.960  45.093 -47.082  1.00  0.00     0.157 HD
HETATM    4  C1  UNL     1      12.890  46.671 -46.494  1.00  0.00     0.132 A 
HETATM    5  N2  UNL     1      13.680  47.599 -47.064  1.00  0.00    -0.329 N 
ATOM      6  H2  UNL     1      14.504  47.286 -47.576  1.00  0.00     0.168 HD
HETATM    7  C2  UNL     1      13.436  48.903 -46.991  1.00  0.00     0.104 A 
HETATM    8  N10 UNL     1      12.337  49.365 -46.312  1.00  0.00    -0.328 N 
ATOM      9  H10 UNL     1      12.140  50.364 -46.250  1.00  0.00     0.169 HD
HETATM   10  C8  UNL     1      11.520  48.457 -45.725  1.00  0.00     0.151 A 
HETATM   11  N11 UNL     1      10.386  48.630 -45.003  1.00  0.00    -0.267 N 
ATOM     12  H11 UNL     1       9.939  49.517 -44.771  1.00  0.00     0.186 HD
HETATM   13  N12 UNL     1       9.972  47.423 -44.657  1.00  0.00    -0.020 NA
HETATM   14  N13 UNL     1      10.788  46.495 -45.124  1.00  0.00    -0.277 N 
ATOM     15  H13 UNL     1      10.686  45.489 -44.993  1.00  0.00     0.184 HD
HETATM   16  C9  UNL     1      11.790  47.112 -45.811  1.00  0.00     0.135 A 
ENDROOT
BRANCH   7  17
HETATM   17  C3  UNL     1      14.289  49.947 -47.610  1.00  0.00     0.227 C 
BRANCH  17  18
HETATM   18  N3  UNL     1      13.793  50.299 -48.925  1.00  0.00    -0.267 N 
HETATM   19  N4  UNL     1      12.984  51.373 -49.081  1.00  0.00    -0.292 N 
HETATM   20  C4  UNL     1      12.704  51.505 -50.384  1.00  0.00     0.199 A 
ATOM     21  H4  UNL     1      12.645  51.979 -48.334  1.00  0.00     0.188 HD
HETATM   22  N5  UNL     1      13.341  50.515 -51.008  1.00  0.00    -0.335 N 
HETATM   23  C5  UNL     1      14.031  49.744 -50.106  1.00  0.00     0.140 A 
ATOM     24  H5  UNL     1      13.319  50.353 -52.015  1.00  0.00     0.168 HD
BRANCH  23  25
HETATM   25  C6  UNL     1      14.804  48.561 -50.419  1.00  0.00     0.157 C 
BRANCH  25  26
HETATM   26  N6  UNL     1      14.368  47.438 -50.810  1.00  0.00    -0.306 N 
ATOM     27  H6  UNL     1      14.744  47.038 -51.670  1.00  0.00     0.186 HD
BRANCH  26  28
HETATM   28  N7  UNL     1      13.398  46.728 -50.115  1.00  0.00    -0.276 N 
HETATM   29  C7  UNL     1      13.132  45.474 -50.359  1.00  0.00     0.215 C 
HETATM   30  N8  UNL     1      12.125  44.839 -49.594  1.00  0.00    -0.065 NA
HETATM   31  N9  UNL     1      13.817  44.737 -51.359  1.00  0.00    -0.065 NA
ATOM     32  H7  UNL     1      12.872  47.206 -49.382  1.00  0.00     0.189 HD
ENDBRANCH  26  28
ENDBRANCH  25  26
ENDBRANCH  23  25
ENDBRANCH  17  18
ENDBRANCH   7  17
TORSDOF 5
ENDMDL
