MODEL 1
REMARK VINA RESULT: -7.649634190      0.000      0.000
REMARK  4 active torsions:
REMARK  status: ('A' for Active; 'I' for Inactive)
REMARK       I    between atoms: C2_2  and  N1_4 
REMARK    1  A    between atoms: N1_4  and  S1_6 
REMARK    2  A    between atoms: S1_6  and  O4_9 
REMARK    3  A    between atoms: O4_9  and  C3_10 
REMARK    4  A    between atoms: C3_10  and  C4_11 
ROOT
HETATM    1  C4  UNL     1      14.958  47.129 -51.120  1.00  0.00     0.060 C 
HETATM    2  C5  UNL     1      14.244  46.127 -51.766  1.00  0.00     0.130 C 
HETATM    3  N2  UNL     1      13.242  45.543 -50.947  1.00  0.00    -0.082 NA
HETATM    4  N3  UNL     1      14.379  45.653 -53.035  1.00  0.00    -0.331 N 
ATOM      5  H3  UNL     1      13.624  45.050 -53.360  1.00  0.00     0.168 HD
HETATM    6  C6  UNL     1      15.379  45.870 -53.929  1.00  0.00     0.140 C 
HETATM    7  N4  UNL     1      15.229  45.194 -55.164  1.00  0.00    -0.081 NA
HETATM    8  C7  UNL     1      16.512  46.654 -53.808  1.00  0.00     0.114 C 
HETATM    9  C8  UNL     1      17.307  46.864 -54.990  1.00  0.00     0.105 C 
HETATM   10  N5  UNL     1      17.963  47.021 -55.955  1.00  0.00    -0.191 NA
HETATM   11  C9  UNL     1      16.936  47.252 -52.628  1.00  0.00     0.121 C 
HETATM   12  N6  UNL     1      18.318  47.573 -52.641  1.00  0.00    -0.096 NA
HETATM   13  C10 UNL     1      16.217  47.567 -51.480  1.00  0.00     0.209 C 
HETATM   14  O5  UNL     1      16.760  48.332 -50.677  1.00  0.00    -0.286 OA
ENDROOT
BRANCH   1  15
HETATM   15  C3  UNL     1      14.267  47.718 -49.972  1.00  0.00     0.238 C 
BRANCH  15  16
HETATM   16  O4  UNL     1      13.421  48.781 -50.263  1.00  0.00    -0.254 OA
BRANCH  16  17
HETATM   17  S1  UNL     1      13.553  49.853 -48.991  1.00  0.00     0.364 S 
HETATM   18  O2  UNL     1      14.858  49.542 -48.302  1.00  0.00    -0.175 OA
HETATM   19  O3  UNL     1      12.463  49.682 -47.965  1.00  0.00    -0.175 OA
BRANCH  17  20
HETATM   20  N1  UNL     1      13.563  51.501 -49.451  1.00  0.00    -0.232 N 
HETATM   21  C2  UNL     1      12.667  51.941 -50.446  1.00  0.00     0.228 C 
HETATM   22  C1  UNL     1      12.614  53.340 -50.893  1.00  0.00     0.118 C 
HETATM   23  O1  UNL     1      11.878  51.112 -50.981  1.00  0.00    -0.273 OA
ATOM     24  H1  UNL     1      14.209  52.156 -49.011  1.00  0.00     0.183 HD
ENDBRANCH  17  20
ENDBRANCH  16  17
ENDBRANCH  15  16
ENDBRANCH   1  15
TORSDOF 4
ENDMDL
MODEL 2
REMARK VINA RESULT: -7.539532183      4.127      7.310
REMARK  4 active torsions:
REMARK  status: ('A' for Active; 'I' for Inactive)
REMARK       I    between atoms: C2_2  and  N1_4 
REMARK    1  A    between atoms: N1_4  and  S1_6 
REMARK    2  A    between atoms: S1_6  and  O4_9 
REMARK    3  A    between atoms: O4_9  and  C3_10 
REMARK    4  A    between atoms: C3_10  and  C4_11 
ROOT
HETATM    1  C4  UNL     1      15.298  46.292 -50.745  1.00  0.00     0.060 C 
HETATM    2  C5  UNL     1      16.241  46.280 -49.724  1.00  0.00     0.130 C 
HETATM    3  N2  UNL     1      17.577  46.246 -50.203  1.00  0.00    -0.082 NA
HETATM    4  N3  UNL     1      16.052  46.295 -48.376  1.00  0.00    -0.331 N 
ATOM      5  H3  UNL     1      16.887  46.476 -47.818  1.00  0.00     0.168 HD
HETATM    6  C6  UNL     1      14.909  46.103 -47.668  1.00  0.00     0.140 C 
HETATM    7  N4  UNL     1      15.064  46.151 -46.262  1.00  0.00    -0.081 NA
HETATM    8  C7  UNL     1      13.623  45.873 -48.121  1.00  0.00     0.114 C 
HETATM    9  C8  UNL     1      12.558  45.904 -47.153  1.00  0.00     0.105 C 
HETATM   10  N5  UNL     1      11.693  45.915 -46.355  1.00  0.00    -0.191 NA
HETATM   11  C9  UNL     1      13.286  45.613 -49.444  1.00  0.00     0.121 C 
HETATM   12  N6  UNL     1      12.039  44.950 -49.574  1.00  0.00    -0.096 NA
HETATM   13  C10 UNL     1      13.979  45.906 -50.614  1.00  0.00     0.209 C 
HETATM   14  O5  UNL     1      13.349  45.811 -51.672  1.00  0.00    -0.286 OA
ENDROOT
BRANCH   1  15
HETATM   15  C3  UNL     1      15.812  46.755 -52.035  1.00  0.00     0.238 C 
BRANCH  15  16
HETATM   16  O4  UNL     1      15.973  45.771 -53.003  1.00  0.00    -0.254 OA
BRANCH  16  17
HETATM   17  S1  UNL     1      17.437  46.076 -53.747  1.00  0.00     0.364 S 
HETATM   18  O2  UNL     1      17.529  47.572 -53.914  1.00  0.00    -0.175 OA
HETATM   19  O3  UNL     1      17.530  45.474 -55.125  1.00  0.00    -0.175 OA
BRANCH  17  20
HETATM   20  N1  UNL     1      18.803  45.543 -52.867  1.00  0.00    -0.232 N 
HETATM   21  C2  UNL     1      20.089  45.933 -53.292  1.00  0.00     0.228 C 
HETATM   22  C1  UNL     1      21.310  45.517 -52.588  1.00  0.00     0.118 C 
HETATM   23  O1  UNL     1      20.209  46.663 -54.317  1.00  0.00    -0.273 OA
ATOM     24  H1  UNL     1      18.689  44.951 -52.043  1.00  0.00     0.183 HD
ENDBRANCH  17  20
ENDBRANCH  16  17
ENDBRANCH  15  16
ENDBRANCH   1  15
TORSDOF 4
ENDMDL
MODEL 3
REMARK VINA RESULT: -7.471295276      3.962      6.544
REMARK  4 active torsions:
REMARK  status: ('A' for Active; 'I' for Inactive)
REMARK       I    between atoms: C2_2  and  N1_4 
REMARK    1  A    between atoms: N1_4  and  S1_6 
REMARK    2  A    between atoms: S1_6  and  O4_9 
REMARK    3  A    between atoms: O4_9  and  C3_10 
REMARK    4  A    between atoms: C3_10  and  C4_11 
ROOT
HETATM    1  C4  UNL     1      15.927  45.970 -51.497  1.00  0.00     0.060 C 
HETATM    2  C5  UNL     1      16.973  46.262 -50.631  1.00  0.00     0.130 C 
HETATM    3  N2  UNL     1      18.247  45.936 -51.167  1.00  0.00    -0.082 NA
HETATM    4  N3  UNL     1      16.932  46.800 -49.381  1.00  0.00    -0.331 N 
ATOM      5  H3  UNL     1      17.830  47.106 -49.005  1.00  0.00     0.168 HD
HETATM    6  C6  UNL     1      15.863  46.988 -48.563  1.00  0.00     0.140 C 
HETATM    7  N4  UNL     1      16.172  47.549 -47.301  1.00  0.00    -0.081 NA
HETATM    8  C7  UNL     1      14.526  46.716 -48.787  1.00  0.00     0.114 C 
HETATM    9  C8  UNL     1      13.576  47.201 -47.821  1.00  0.00     0.105 C 
HETATM   10  N5  UNL     1      12.803  47.587 -47.021  1.00  0.00    -0.191 NA
HETATM   11  C9  UNL     1      14.037  46.006 -49.877  1.00  0.00     0.121 C 
HETATM   12  N6  UNL     1      12.752  45.453 -49.640  1.00  0.00    -0.096 NA
HETATM   13  C10 UNL     1      14.613  45.776 -51.121  1.00  0.00     0.209 C 
HETATM   14  O5  UNL     1      13.868  45.344 -52.007  1.00  0.00    -0.286 OA
ENDROOT
BRANCH   1  15
HETATM   15  C3  UNL     1      16.320  45.866 -52.904  1.00  0.00     0.238 C 
BRANCH  15  16
HETATM   16  O4  UNL     1      16.180  47.028 -53.652  1.00  0.00    -0.254 OA
BRANCH  16  17
HETATM   17  S1  UNL     1      15.967  46.547 -55.237  1.00  0.00     0.364 S 
HETATM   18  O2  UNL     1      14.907  45.475 -55.220  1.00  0.00    -0.175 OA
HETATM   19  O3  UNL     1      17.206  45.931 -55.833  1.00  0.00    -0.175 OA
BRANCH  17  20
HETATM   20  N1  UNL     1      15.461  47.793 -56.293  1.00  0.00    -0.232 N 
HETATM   21  C2  UNL     1      16.252  48.954 -56.416  1.00  0.00     0.228 C 
HETATM   22  C1  UNL     1      15.885  50.066 -57.303  1.00  0.00     0.118 C 
HETATM   23  O1  UNL     1      17.315  49.053 -55.740  1.00  0.00    -0.273 OA
ATOM     24  H1  UNL     1      14.597  47.698 -56.829  1.00  0.00     0.183 HD
ENDBRANCH  17  20
ENDBRANCH  16  17
ENDBRANCH  15  16
ENDBRANCH   1  15
TORSDOF 4
ENDMDL
MODEL 4
REMARK VINA RESULT: -7.415581847      4.724      6.948
REMARK  4 active torsions:
REMARK  status: ('A' for Active; 'I' for Inactive)
REMARK       I    between atoms: C2_2  and  N1_4 
REMARK    1  A    between atoms: N1_4  and  S1_6 
REMARK    2  A    between atoms: S1_6  and  O4_9 
REMARK    3  A    between atoms: O4_9  and  C3_10 
REMARK    4  A    between atoms: C3_10  and  C4_11 
ROOT
HETATM    1  C4  UNL     1      17.114  47.768 -54.486  1.00  0.00     0.060 C 
HETATM    2  C5  UNL     1      17.930  46.690 -54.800  1.00  0.00     0.130 C 
HETATM    3  N2  UNL     1      17.475  45.959 -55.930  1.00  0.00    -0.082 NA
HETATM    4  N3  UNL     1      19.067  46.261 -54.186  1.00  0.00    -0.331 N 
ATOM      5  H3  UNL     1      19.608  45.565 -54.700  1.00  0.00     0.168 HD
HETATM    6  C6  UNL     1      19.583  46.628 -52.984  1.00  0.00     0.140 C 
HETATM    7  N4  UNL     1      20.776  45.961 -52.619  1.00  0.00    -0.081 NA
HETATM    8  C7  UNL     1      19.115  47.558 -52.074  1.00  0.00     0.114 C 
HETATM    9  C8  UNL     1      19.969  47.897 -50.966  1.00  0.00     0.105 C 
HETATM   10  N5  UNL     1      20.664  48.159 -50.052  1.00  0.00    -0.191 NA
HETATM   11  C9  UNL     1      17.878  48.188 -52.154  1.00  0.00     0.121 C 
HETATM   12  N6  UNL     1      17.440  48.697 -50.904  1.00  0.00    -0.096 NA
HETATM   13  C10 UNL     1      17.046  48.382 -53.251  1.00  0.00     0.209 C 
HETATM   14  O5  UNL     1      16.130  49.200 -53.117  1.00  0.00    -0.286 OA
ENDROOT
BRANCH   1  15
HETATM   15  C3  UNL     1      16.279  48.237 -55.594  1.00  0.00     0.238 C 
BRANCH  15  16
HETATM   16  O4  UNL     1      16.804  49.288 -56.336  1.00  0.00    -0.254 OA
BRANCH  16  17
HETATM   17  S1  UNL     1      15.747  49.548 -57.602  1.00  0.00     0.364 S 
HETATM   18  O2  UNL     1      15.259  50.968 -57.468  1.00  0.00    -0.175 OA
HETATM   19  O3  UNL     1      14.532  48.658 -57.541  1.00  0.00    -0.175 OA
BRANCH  17  20
HETATM   20  N1  UNL     1      16.440  49.356 -59.154  1.00  0.00    -0.232 N 
HETATM   21  C2  UNL     1      15.626  49.510 -60.294  1.00  0.00     0.228 C 
HETATM   22  C1  UNL     1      16.148  49.363 -61.659  1.00  0.00     0.118 C 
HETATM   23  O1  UNL     1      14.400  49.782 -60.148  1.00  0.00    -0.273 OA
ATOM     24  H1  UNL     1      17.431  49.133 -59.253  1.00  0.00     0.183 HD
ENDBRANCH  17  20
ENDBRANCH  16  17
ENDBRANCH  15  16
ENDBRANCH   1  15
TORSDOF 4
ENDMDL
MODEL 5
REMARK VINA RESULT: -7.350075881      3.746      6.204
REMARK  4 active torsions:
REMARK  status: ('A' for Active; 'I' for Inactive)
REMARK       I    between atoms: C2_2  and  N1_4 
REMARK    1  A    between atoms: N1_4  and  S1_6 
REMARK    2  A    between atoms: S1_6  and  O4_9 
REMARK    3  A    between atoms: O4_9  and  C3_10 
REMARK    4  A    between atoms: C3_10  and  C4_11 
ROOT
HETATM    1  C4  UNL     1      16.035  46.199 -51.492  1.00  0.00     0.060 C 
HETATM    2  C5  UNL     1      14.852  45.646 -51.967  1.00  0.00     0.130 C 
HETATM    3  N2  UNL     1      14.849  45.466 -53.375  1.00  0.00    -0.082 NA
HETATM    4  N3  UNL     1      13.739  45.270 -51.279  1.00  0.00    -0.331 N 
ATOM      5  H3  UNL     1      13.067  44.712 -51.804  1.00  0.00     0.168 HD
HETATM    6  C6  UNL     1      13.397  45.536 -49.990  1.00  0.00     0.140 C 
HETATM    7  N4  UNL     1      12.142  45.020 -49.591  1.00  0.00    -0.081 NA
HETATM    8  C7  UNL     1      14.098  46.228 -49.020  1.00  0.00     0.114 C 
HETATM    9  C8  UNL     1      13.590  46.188 -47.674  1.00  0.00     0.105 C 
HETATM   10  N5  UNL     1      13.162  46.165 -46.577  1.00  0.00    -0.191 NA
HETATM   11  C9  UNL     1      15.256  46.960 -49.253  1.00  0.00     0.121 C 
HETATM   12  N6  UNL     1      15.497  47.939 -48.255  1.00  0.00    -0.096 NA
HETATM   13  C10 UNL     1      16.176  46.865 -50.291  1.00  0.00     0.209 C 
HETATM   14  O5  UNL     1      17.256  47.443 -50.132  1.00  0.00    -0.286 OA
ENDROOT
BRANCH   1  15
HETATM   15  C3  UNL     1      17.181  46.033 -52.389  1.00  0.00     0.238 C 
BRANCH  15  16
HETATM   16  O4  UNL     1      17.540  47.161 -53.116  1.00  0.00    -0.254 OA
BRANCH  16  17
HETATM   17  S1  UNL     1      17.760  46.657 -54.693  1.00  0.00     0.364 S 
HETATM   18  O2  UNL     1      17.893  45.156 -54.647  1.00  0.00    -0.175 OA
HETATM   19  O3  UNL     1      19.028  47.192 -55.306  1.00  0.00    -0.175 OA
BRANCH  17  20
HETATM   20  N1  UNL     1      16.476  47.056 -55.750  1.00  0.00    -0.232 N 
HETATM   21  C2  UNL     1      16.267  48.406 -56.098  1.00  0.00     0.228 C 
HETATM   22  C1  UNL     1      15.188  48.827 -57.001  1.00  0.00     0.118 C 
HETATM   23  O1  UNL     1      17.028  49.295 -55.620  1.00  0.00    -0.273 OA
ATOM     24  H1  UNL     1      15.869  46.326 -56.123  1.00  0.00     0.183 HD
ENDBRANCH  17  20
ENDBRANCH  16  17
ENDBRANCH  15  16
ENDBRANCH   1  15
TORSDOF 4
ENDMDL
