MODEL 1
REMARK VINA RESULT: -8.701223198      0.000      0.000
REMARK  19 active torsions:
REMARK  status: ('A' for Active; 'I' for Inactive)
REMARK    1  A    between atoms: C2_2  and  C3_4 
REMARK    2  A    between atoms: C5_6  and  C6_7 
REMARK    3  A    between atoms: C6_7  and  N1_8 
REMARK    4  A    between atoms: N1_8  and  C7_10 
REMARK    5  A    between atoms: C7_10  and  C8_11 
REMARK    6  A    between atoms: C8_11  and  O2_12 
REMARK    7  A    between atoms: C8_11  and  N2_14 
REMARK    8  A    between atoms: N2_14  and  N3_16 
REMARK    9  A    between atoms: N3_16  and  C9_18 
REMARK   10  A    between atoms: C10_19  and  N4_20 
REMARK   11  A    between atoms: C11_24  and  N5_25 
REMARK   12  A    between atoms: C12_30  and  C13_31 
REMARK   13  A    between atoms: C13_31  and  N8_33 
REMARK   14  A    between atoms: N8_33  and  N9_35 
REMARK   15  A    between atoms: N9_35  and  C15_37 
REMARK   16  A    between atoms: N13_44  and  C16_45 
REMARK   17  A    between atoms: C18_57  and  O4_58 
REMARK   18  A    between atoms: C19_60  and  O5_61 
REMARK   19  A    between atoms: C20_63  and  O6_64 
ROOT
HETATM    1  C9  UNL     1      36.781  -3.463  22.890  1.00  0.00     0.067 C 
HETATM    2  C10 UNL     1      36.257  -4.677  22.182  1.00  0.00     0.261 C 
HETATM    3  C11 UNL     1      37.166  -5.875  22.348  1.00  0.00     0.196 C 
HETATM    4  C18 UNL     1      38.610  -5.593  22.053  1.00  0.00     0.178 C 
HETATM    5  C19 UNL     1      38.997  -4.139  22.216  1.00  0.00     0.183 C 
HETATM    6  C20 UNL     1      38.165  -3.574  23.399  1.00  0.00     0.198 C 
ENDROOT
BRANCH   3   7
HETATM    7  N5  UNL     1      36.691  -6.862  21.379  1.00  0.00    -0.208 N 
HETATM    8  N6  UNL     1      36.139  -8.003  21.669  1.00  0.00    -0.224 N 
HETATM    9  N7  UNL     1      35.867  -8.576  20.492  1.00  0.00    -0.267 N 
ATOM     10  H6  UNL     1      35.953  -8.382  22.598  1.00  0.00     0.210 HD
HETATM   11  C12 UNL     1      36.263  -7.766  19.498  1.00  0.00     0.161 A 
ATOM     12  H7  UNL     1      35.427  -9.487  20.368  1.00  0.00     0.190 HD
HETATM   13  N17 UNL     1      36.792  -6.665  20.087  1.00  0.00    -0.264 N 
ATOM     14  H17 UNL     1      37.188  -5.850  19.620  1.00  0.00     0.190 HD
BRANCH  11  15
HETATM   15  C13 UNL     1      36.137  -8.009  18.055  1.00  0.00     0.069 C 
HETATM   16  C14 UNL     1      36.195  -9.457  17.643  1.00  0.00     0.074 C 
BRANCH  15  17
HETATM   17  N8  UNL     1      35.983  -7.066  17.230  1.00  0.00    -0.287 N 
ATOM     18  H8  UNL     1      35.820  -6.149  17.648  1.00  0.00     0.187 HD
BRANCH  17  19
HETATM   19  N9  UNL     1      36.001  -7.084  15.911  1.00  0.00    -0.129 N 
ATOM     20  H9  UNL     1      35.076  -7.294  15.536  1.00  0.00     0.205 HD
BRANCH  19  21
HETATM   21  C15 UNL     1      36.835  -6.916  14.984  1.00  0.00     0.737 A 
HETATM   22  N10 UNL     1      37.276  -7.961  14.226  1.00  0.00    -0.113 N 
HETATM   23  N11 UNL     1      38.144  -7.520  13.355  1.00  0.00    -0.213 N 
ATOM     24  H10 UNL     1      36.976  -8.932  14.323  1.00  0.00     0.207 HD
HETATM   25  N12 UNL     1      38.255  -6.230  13.548  1.00  0.00    -0.205 N 
ATOM     26  H11 UNL     1      38.640  -8.075  12.657  1.00  0.00     0.210 HD
HETATM   27  N13 UNL     1      37.455  -5.820  14.551  1.00  0.00    -0.046 N 
ATOM     28  H12 UNL     1      38.866  -5.616  13.009  1.00  0.00     0.211 HD
BRANCH  27  29
HETATM   29  C16 UNL     1      37.396  -4.479  14.984  1.00  0.00     0.214 A 
HETATM   30  N14 UNL     1      38.141  -3.913  15.981  1.00  0.00    -0.220 N 
HETATM   31  O3  UNL     1      37.853  -2.645  16.097  1.00  0.00    -0.153 OA
ATOM     32  H14 UNL     1      38.825  -4.409  16.552  1.00  0.00     0.198 HD
HETATM   33  N15 UNL     1      36.936  -2.360  15.207  1.00  0.00    -0.222 N 
HETATM   34  C17 UNL     1      36.624  -3.477  14.492  1.00  0.00     0.170 A 
ATOM     35  H15 UNL     1      36.518  -1.440  15.070  1.00  0.00     0.198 HD
HETATM   36  N16 UNL     1      35.741  -3.511  13.543  1.00  0.00    -0.381 N 
ATOM     37 2H16 UNL     1      35.508  -4.346  13.007  1.00  0.00     0.157 HD
ATOM     38 1H16 UNL     1      35.161  -2.758  13.173  1.00  0.00     0.157 HD
ENDBRANCH  27  29
ENDBRANCH  19  21
ENDBRANCH  17  19
ENDBRANCH  15  17
ENDBRANCH  11  15
ENDBRANCH   3   7
BRANCH   2  39
HETATM   39  N4  UNL     1      35.003  -5.006  22.867  1.00  0.00    -0.068 N 
ATOM     40  H43 UNL     1      35.017  -5.905  23.347  1.00  0.00     0.275 HD
ATOM     41  H42 UNL     1      34.821  -4.435  23.693  1.00  0.00     0.275 HD
ATOM     42  H41 UNL     1      34.282  -4.933  22.149  1.00  0.00     0.275 HD
ENDBRANCH   2  39
BRANCH   4  43
HETATM   43  O4  UNL     1      39.421  -6.367  22.905  1.00  0.00    -0.391 OA
ATOM     44  H4  UNL     1      40.328  -6.289  22.633  1.00  0.00     0.210 HD
ENDBRANCH   4  43
BRANCH   1  45
HETATM   45  N3  UNL     1      36.028  -2.433  22.966  1.00  0.00    -0.302 N 
ATOM     46  H3  UNL     1      35.075  -2.508  23.320  1.00  0.00     0.186 HD
BRANCH  45  47
HETATM   47  N2  UNL     1      36.559  -1.162  22.536  1.00  0.00    -0.279 N 
ATOM     48  H2  UNL     1      36.732  -0.934  21.557  1.00  0.00     0.189 HD
BRANCH  47  49
HETATM   49  C8  UNL     1      36.814  -0.279  23.573  1.00  0.00     0.170 C 
BRANCH  49  50
HETATM   50  C7  UNL     1      35.951   0.693  24.147  1.00  0.00     0.141 C 
BRANCH  50  51
HETATM   51  N1  UNL     1      35.616   1.947  23.628  1.00  0.00    -0.391 N 
ATOM     52  H1  UNL     1      35.394   2.126  22.648  1.00  0.00     0.159 HD
BRANCH  51  53
HETATM   53  C6  UNL     1      35.626   2.981  24.687  1.00  0.00     0.158 C 
BRANCH  53  54
HETATM   54  C5  UNL     1      35.624   4.318  23.908  1.00  0.00    -0.033 A 
HETATM   55  C4  UNL     1      34.835   5.369  24.246  1.00  0.00     0.032 A 
HETATM   56  C3  UNL     1      34.870   6.474  23.433  1.00  0.00     0.050 A 
HETATM   57  S1  UNL     1      35.986   6.038  22.239  1.00  0.00    -0.098 SA
HETATM   58  C21 UNL     1      36.387   4.466  22.779  1.00  0.00     0.059 A 
BRANCH  56  59
HETATM   59  C2  UNL     1      34.104   7.731  23.628  1.00  0.00     0.162 C 
HETATM   60  C1  UNL     1      34.377   8.593  24.787  1.00  0.00     0.097 C 
HETATM   61  O1  UNL     1      33.248   8.026  22.789  1.00  0.00    -0.292 OA
ENDBRANCH  56  59
ENDBRANCH  53  54
ENDBRANCH  51  53
ENDBRANCH  50  51
ENDBRANCH  49  50
BRANCH  49  62
HETATM   62  O2  UNL     1      38.015  -0.320  24.115  1.00  0.00    -0.344 OA
ATOM     63  H2  UNL     1      38.352   0.527  24.380  1.00  0.00     0.219 HD
ENDBRANCH  49  62
ENDBRANCH  47  49
ENDBRANCH  45  47
ENDBRANCH   1  45
BRANCH   5  64
HETATM   64  O5  UNL     1      38.723  -3.429  21.065  1.00  0.00    -0.390 OA
ATOM     65  H5  UNL     1      37.803  -3.197  21.024  1.00  0.00     0.210 HD
ENDBRANCH   5  64
BRANCH   6  66
HETATM   66  O6  UNL     1      38.329  -4.493  24.396  1.00  0.00    -0.387 OA
ATOM     67  H6  UNL     1      38.487  -5.379  24.091  1.00  0.00     0.210 HD
ENDBRANCH   6  66
TORSDOF 19
ENDMDL
MODEL 2
REMARK VINA RESULT: -8.574848212      4.205     12.537
REMARK  19 active torsions:
REMARK  status: ('A' for Active; 'I' for Inactive)
REMARK    1  A    between atoms: C2_2  and  C3_4 
REMARK    2  A    between atoms: C5_6  and  C6_7 
REMARK    3  A    between atoms: C6_7  and  N1_8 
REMARK    4  A    between atoms: N1_8  and  C7_10 
REMARK    5  A    between atoms: C7_10  and  C8_11 
REMARK    6  A    between atoms: C8_11  and  O2_12 
REMARK    7  A    between atoms: C8_11  and  N2_14 
REMARK    8  A    between atoms: N2_14  and  N3_16 
REMARK    9  A    between atoms: N3_16  and  C9_18 
REMARK   10  A    between atoms: C10_19  and  N4_20 
REMARK   11  A    between atoms: C11_24  and  N5_25 
REMARK   12  A    between atoms: C12_30  and  C13_31 
REMARK   13  A    between atoms: C13_31  and  N8_33 
REMARK   14  A    between atoms: N8_33  and  N9_35 
REMARK   15  A    between atoms: N9_35  and  C15_37 
REMARK   16  A    between atoms: N13_44  and  C16_45 
REMARK   17  A    between atoms: C18_57  and  O4_58 
REMARK   18  A    between atoms: C19_60  and  O5_61 
REMARK   19  A    between atoms: C20_63  and  O6_64 
ROOT
HETATM    1  C9  UNL     1      38.322  -1.877  23.062  1.00  0.00     0.067 C 
HETATM    2  C10 UNL     1      37.431  -0.741  23.467  1.00  0.00     0.261 C 
HETATM    3  C11 UNL     1      37.882   0.580  22.884  1.00  0.00     0.196 C 
HETATM    4  C18 UNL     1      39.341   0.870  23.084  1.00  0.00     0.178 C 
HETATM    5  C19 UNL     1      40.191  -0.366  23.281  1.00  0.00     0.183 C 
HETATM    6  C20 UNL     1      39.582  -1.486  22.394  1.00  0.00     0.198 C 
ENDROOT
BRANCH   3   7
HETATM    7  N5  UNL     1      37.116   1.602  23.595  1.00  0.00    -0.208 N 
HETATM    8  N6  UNL     1      36.725   1.530  24.834  1.00  0.00    -0.224 N 
HETATM    9  N7  UNL     1      36.063   2.669  25.064  1.00  0.00    -0.267 N 
ATOM     10  H6  UNL     1      36.888   0.766  25.490  1.00  0.00     0.210 HD
HETATM   11  C12 UNL     1      36.063   3.419  23.953  1.00  0.00     0.161 A 
ATOM     12  H7  UNL     1      35.627   2.928  25.949  1.00  0.00     0.190 HD
HETATM   13  N17 UNL     1      36.745   2.717  23.015  1.00  0.00    -0.264 N 
ATOM     14  H17 UNL     1      36.933   2.999  22.053  1.00  0.00     0.190 HD
BRANCH  11  15
HETATM   15  C13 UNL     1      35.459   4.747  23.780  1.00  0.00     0.069 C 
HETATM   16  C14 UNL     1      35.950   5.522  22.585  1.00  0.00     0.074 C 
BRANCH  15  17
HETATM   17  N8  UNL     1      34.587   5.193  24.576  1.00  0.00    -0.287 N 
ATOM     18  H8  UNL     1      33.749   4.617  24.665  1.00  0.00     0.187 HD
BRANCH  17  19
HETATM   19  N9  UNL     1      34.593   6.288  25.312  1.00  0.00    -0.129 N 
ATOM     20  H9  UNL     1      35.011   6.113  26.225  1.00  0.00     0.205 HD
BRANCH  19  21
HETATM   21  C15 UNL     1      34.228   7.488  25.206  1.00  0.00     0.737 A 
HETATM   22  N10 UNL     1      33.058   7.824  24.590  1.00  0.00    -0.113 N 
HETATM   23  N11 UNL     1      32.929   9.124  24.599  1.00  0.00    -0.213 N 
ATOM     24  H10 UNL     1      32.390   7.166  24.187  1.00  0.00     0.207 HD
HETATM   25  N12 UNL     1      33.985   9.607  25.204  1.00  0.00    -0.205 N 
ATOM     26  H11 UNL     1      32.154   9.660  24.210  1.00  0.00     0.210 HD
HETATM   27  N13 UNL     1      34.813   8.619  25.595  1.00  0.00    -0.046 N 
ATOM     28  H12 UNL     1      34.158  10.600  25.359  1.00  0.00     0.211 HD
BRANCH  27  29
HETATM   29  C16 UNL     1      36.037   8.861  26.252  1.00  0.00     0.214 A 
HETATM   30  N14 UNL     1      36.197   9.310  27.534  1.00  0.00    -0.220 N 
HETATM   31  O3  UNL     1      37.466   9.392  27.830  1.00  0.00    -0.153 OA
ATOM     32  H14 UNL     1      35.435   9.546  28.169  1.00  0.00     0.198 HD
HETATM   33  N15 UNL     1      38.147   9.014  26.778  1.00  0.00    -0.222 N 
HETATM   34  C17 UNL     1      37.293   8.675  25.773  1.00  0.00     0.170 A 
ATOM     35  H15 UNL     1      39.165   8.980  26.720  1.00  0.00     0.198 HD
HETATM   36  N16 UNL     1      37.673   8.267  24.601  1.00  0.00    -0.381 N 
ATOM     37 2H16 UNL     1      37.033   8.013  23.849  1.00  0.00     0.157 HD
ATOM     38 1H16 UNL     1      38.616   8.128  24.240  1.00  0.00     0.157 HD
ENDBRANCH  27  29
ENDBRANCH  19  21
ENDBRANCH  17  19
ENDBRANCH  15  17
ENDBRANCH  11  15
ENDBRANCH   3   7
BRANCH   2  39
HETATM   39  N4  UNL     1      36.130  -1.043  22.861  1.00  0.00    -0.068 N 
ATOM     40  H43 UNL     1      35.947  -2.040  22.752  1.00  0.00     0.275 HD
ATOM     41  H42 UNL     1      35.335  -0.845  23.469  1.00  0.00     0.275 HD
ATOM     42  H41 UNL     1      36.119  -0.523  21.984  1.00  0.00     0.275 HD
ENDBRANCH   2  39
BRANCH   4  43
HETATM   43  O4  UNL     1      39.834   1.576  21.970  1.00  0.00    -0.391 OA
ATOM     44  H4  UNL     1      40.713   1.886  22.157  1.00  0.00     0.210 HD
ENDBRANCH   4  43
BRANCH   1  45
HETATM   45  N3  UNL     1      37.958  -3.067  23.353  1.00  0.00    -0.302 N 
ATOM     46  H3  UNL     1      37.507  -3.272  24.244  1.00  0.00     0.186 HD
BRANCH  45  47
HETATM   47  N2  UNL     1      38.199  -4.113  22.388  1.00  0.00    -0.279 N 
ATOM     48  H2  UNL     1      39.135  -4.390  22.091  1.00  0.00     0.189 HD
BRANCH  47  49
HETATM   49  C8  UNL     1      37.046  -4.707  21.901  1.00  0.00     0.170 C 
BRANCH  49  50
HETATM   50  C7  UNL     1      36.867  -6.024  21.398  1.00  0.00     0.141 C 
BRANCH  50  51
HETATM   51  N1  UNL     1      36.516  -6.399  20.098  1.00  0.00    -0.391 N 
ATOM     52  H1  UNL     1      35.558  -6.524  19.771  1.00  0.00     0.159 HD
BRANCH  51  53
HETATM   53  C6  UNL     1      37.720  -6.591  19.258  1.00  0.00     0.158 C 
BRANCH  53  54
HETATM   54  C5  UNL     1      37.307  -6.031  17.876  1.00  0.00    -0.033 A 
HETATM   55  C4  UNL     1      37.732  -4.829  17.408  1.00  0.00     0.032 A 
HETATM   56  C3  UNL     1      37.237  -4.412  16.198  1.00  0.00     0.050 A 
HETATM   57  S1  UNL     1      36.215  -5.680  15.741  1.00  0.00    -0.098 SA
HETATM   58  C21 UNL     1      36.422  -6.716  17.085  1.00  0.00     0.059 A 
BRANCH  56  59
HETATM   59  C2  UNL     1      37.580  -3.147  15.500  1.00  0.00     0.162 C 
HETATM   60  C1  UNL     1      38.623  -2.262  16.040  1.00  0.00     0.097 C 
HETATM   61  O1  UNL     1      36.972  -2.872  14.462  1.00  0.00    -0.292 OA
ENDBRANCH  56  59
ENDBRANCH  53  54
ENDBRANCH  51  53
ENDBRANCH  50  51
ENDBRANCH  49  50
BRANCH  49  62
HETATM   62  O2  UNL     1      35.953  -3.970  21.884  1.00  0.00    -0.344 OA
ATOM     63  H2  UNL     1      36.113  -3.034  21.931  1.00  0.00     0.219 HD
ENDBRANCH  49  62
ENDBRANCH  47  49
ENDBRANCH  45  47
ENDBRANCH   1  45
BRANCH   5  64
HETATM   64  O5  UNL     1      40.187  -0.756  24.604  1.00  0.00    -0.390 OA
ATOM     65  H5  UNL     1      41.040  -1.089  24.859  1.00  0.00     0.210 HD
ENDBRANCH   5  64
BRANCH   6  66
HETATM   66  O6  UNL     1      39.415  -0.896  21.173  1.00  0.00    -0.387 OA
ATOM     67  H6  UNL     1      40.049  -0.217  20.976  1.00  0.00     0.210 HD
ENDBRANCH   6  66
TORSDOF 19
ENDMDL
MODEL 3
REMARK VINA RESULT: -8.513426177      6.597     12.589
REMARK  19 active torsions:
REMARK  status: ('A' for Active; 'I' for Inactive)
REMARK    1  A    between atoms: C2_2  and  C3_4 
REMARK    2  A    between atoms: C5_6  and  C6_7 
REMARK    3  A    between atoms: C6_7  and  N1_8 
REMARK    4  A    between atoms: N1_8  and  C7_10 
REMARK    5  A    between atoms: C7_10  and  C8_11 
REMARK    6  A    between atoms: C8_11  and  O2_12 
REMARK    7  A    between atoms: C8_11  and  N2_14 
REMARK    8  A    between atoms: N2_14  and  N3_16 
REMARK    9  A    between atoms: N3_16  and  C9_18 
REMARK   10  A    between atoms: C10_19  and  N4_20 
REMARK   11  A    between atoms: C11_24  and  N5_25 
REMARK   12  A    between atoms: C12_30  and  C13_31 
REMARK   13  A    between atoms: C13_31  and  N8_33 
REMARK   14  A    between atoms: N8_33  and  N9_35 
REMARK   15  A    between atoms: N9_35  and  C15_37 
REMARK   16  A    between atoms: N13_44  and  C16_45 
REMARK   17  A    between atoms: C18_57  and  O4_58 
REMARK   18  A    between atoms: C19_60  and  O5_61 
REMARK   19  A    between atoms: C20_63  and  O6_64 
ROOT
HETATM    1  C9  UNL     1      38.425   1.157  23.721  1.00  0.00     0.067 C 
HETATM    2  C10 UNL     1      37.823   2.530  23.696  1.00  0.00     0.261 C 
HETATM    3  C11 UNL     1      37.105   2.819  22.397  1.00  0.00     0.196 C 
HETATM    4  C18 UNL     1      37.910   2.501  21.170  1.00  0.00     0.178 C 
HETATM    5  C19 UNL     1      38.985   1.460  21.393  1.00  0.00     0.183 C 
HETATM    6  C20 UNL     1      38.428   0.442  22.427  1.00  0.00     0.198 C 
ENDROOT
BRANCH   3   7
HETATM    7  N5  UNL     1      36.846   4.258  22.407  1.00  0.00    -0.208 N 
HETATM    8  N6  UNL     1      35.678   4.817  22.272  1.00  0.00    -0.224 N 
HETATM    9  N7  UNL     1      35.906   6.133  22.339  1.00  0.00    -0.267 N 
ATOM     10  H6  UNL     1      34.781   4.351  22.143  1.00  0.00     0.210 HD
HETATM   11  C12 UNL     1      37.218   6.353  22.513  1.00  0.00     0.161 A 
ATOM     12  H7  UNL     1      35.193   6.858  22.269  1.00  0.00     0.190 HD
HETATM   13  N17 UNL     1      37.810   5.133  22.554  1.00  0.00    -0.264 N 
ATOM     14  H17 UNL     1      38.803   4.937  22.675  1.00  0.00     0.190 HD
BRANCH  11  15
HETATM   15  C13 UNL     1      37.888   7.653  22.649  1.00  0.00     0.069 C 
HETATM   16  C14 UNL     1      39.082   7.853  21.752  1.00  0.00     0.074 C 
BRANCH  15  17
HETATM   17  N8  UNL     1      37.480   8.534  23.455  1.00  0.00    -0.287 N 
ATOM     18  H8  UNL     1      37.026   9.339  23.022  1.00  0.00     0.187 HD
BRANCH  17  19
HETATM   19  N9  UNL     1      37.549   8.573  24.772  1.00  0.00    -0.129 N 
ATOM     20  H9  UNL     1      38.466   8.271  25.099  1.00  0.00     0.205 HD
BRANCH  19  21
HETATM   21  C15 UNL     1      36.804   8.878  25.740  1.00  0.00     0.737 A 
HETATM   22  N10 UNL     1      37.252   9.663  26.761  1.00  0.00    -0.113 N 
HETATM   23  N11 UNL     1      36.294   9.809  27.638  1.00  0.00    -0.213 N 
ATOM     24  H10 UNL     1      38.184  10.071  26.830  1.00  0.00     0.207 HD
HETATM   25  N12 UNL     1      35.263   9.139  27.190  1.00  0.00    -0.205 N 
ATOM     26  H11 UNL     1      36.341  10.345  28.505  1.00  0.00     0.210 HD
HETATM   27  N13 UNL     1      35.543   8.548  26.013  1.00  0.00    -0.046 N 
ATOM     28  H12 UNL     1      34.365   9.072  27.670  1.00  0.00     0.211 HD
BRANCH  27  29
HETATM   29  C16 UNL     1      34.615   7.744  25.319  1.00  0.00     0.214 A 
HETATM   30  N14 UNL     1      34.630   6.380  25.228  1.00  0.00    -0.220 N 
HETATM   31  O3  UNL     1      33.605   5.962  24.536  1.00  0.00    -0.153 OA
ATOM     32  H14 UNL     1      35.339   5.775  25.642  1.00  0.00     0.198 HD
HETATM   33  N15 UNL     1      32.917   7.011  24.165  1.00  0.00    -0.222 N 
HETATM   34  C17 UNL     1      33.513   8.143  24.633  1.00  0.00     0.170 A 
ATOM     35  H15 UNL     1      32.063   6.985  23.608  1.00  0.00     0.198 HD
HETATM   36  N16 UNL     1      33.068   9.342  24.421  1.00  0.00    -0.381 N 
ATOM     37 2H16 UNL     1      33.514  10.189  24.772  1.00  0.00     0.157 HD
ATOM     38 1H16 UNL     1      32.240   9.642  23.906  1.00  0.00     0.157 HD
ENDBRANCH  27  29
ENDBRANCH  19  21
ENDBRANCH  17  19
ENDBRANCH  15  17
ENDBRANCH  11  15
ENDBRANCH   3   7
BRANCH   2  39
HETATM   39  N4  UNL     1      36.799   2.516  24.746  1.00  0.00    -0.068 N 
ATOM     40  H43 UNL     1      36.079   3.229  24.630  1.00  0.00     0.275 HD
ATOM     41  H42 UNL     1      36.173   1.711  24.702  1.00  0.00     0.275 HD
ATOM     42  H41 UNL     1      37.316   2.589  25.622  1.00  0.00     0.275 HD
ENDBRANCH   2  39
BRANCH   4  43
HETATM   43  O4  UNL     1      37.051   2.042  20.153  1.00  0.00    -0.391 OA
ATOM     44  H4  UNL     1      36.360   2.679  20.013  1.00  0.00     0.210 HD
ENDBRANCH   4  43
BRANCH   1  45
HETATM   45  N3  UNL     1      38.915   0.729  24.821  1.00  0.00    -0.302 N 
ATOM     46  H3  UNL     1      38.384   0.097  25.420  1.00  0.00     0.186 HD
BRANCH  45  47
HETATM   47  N2  UNL     1      40.240   1.163  25.196  1.00  0.00    -0.279 N 
ATOM     48  H2  UNL     1      40.461   2.129  25.438  1.00  0.00     0.189 HD
BRANCH  47  49
HETATM   49  C8  UNL     1      41.185   0.149  25.198  1.00  0.00     0.170 C 
BRANCH  49  50
HETATM   50  C7  UNL     1      41.824  -0.474  24.092  1.00  0.00     0.141 C 
BRANCH  50  51
HETATM   51  N1  UNL     1      41.314  -1.488  23.275  1.00  0.00    -0.391 N 
ATOM     52  H1  UNL     1      41.356  -1.485  22.256  1.00  0.00     0.159 HD
BRANCH  51  53
HETATM   53  C6  UNL     1      40.704  -2.566  24.086  1.00  0.00     0.158 C 
BRANCH  53  54
HETATM   54  C5  UNL     1      39.613  -3.159  23.163  1.00  0.00    -0.033 A 
HETATM   55  C4  UNL     1      38.285  -2.956  23.363  1.00  0.00     0.032 A 
HETATM   56  C3  UNL     1      37.414  -3.596  22.518  1.00  0.00     0.050 A 
HETATM   57  S1  UNL     1      38.440  -4.447  21.477  1.00  0.00    -0.098 SA
HETATM   58  C21 UNL     1      39.954  -3.988  22.126  1.00  0.00     0.059 A 
BRANCH  56  59
HETATM   59  C2  UNL     1      35.932  -3.499  22.549  1.00  0.00     0.162 C 
HETATM   60  C1  UNL     1      35.114  -4.706  22.742  1.00  0.00     0.097 C 
HETATM   61  O1  UNL     1      35.420  -2.384  22.418  1.00  0.00    -0.292 OA
ENDBRANCH  56  59
ENDBRANCH  53  54
ENDBRANCH  51  53
ENDBRANCH  50  51
ENDBRANCH  49  50
BRANCH  49  62
HETATM   62  O2  UNL     1      41.556  -0.323  26.371  1.00  0.00    -0.344 OA
ATOM     63  H2  UNL     1      42.401  -0.007  26.668  1.00  0.00     0.219 HD
ENDBRANCH  49  62
ENDBRANCH  47  49
ENDBRANCH  45  47
ENDBRANCH   1  45
BRANCH   5  64
HETATM   64  O5  UNL     1      40.137   2.044  21.880  1.00  0.00    -0.390 OA
ATOM     65  H5  UNL     1      40.868   1.882  21.295  1.00  0.00     0.210 HD
ENDBRANCH   5  64
BRANCH   6  66
HETATM   66  O6  UNL     1      37.186   0.126  21.952  1.00  0.00    -0.387 OA
ATOM     67  H6  UNL     1      37.071   0.280  21.022  1.00  0.00     0.210 HD
ENDBRANCH   6  66
TORSDOF 19
ENDMDL
MODEL 4
REMARK VINA RESULT: -8.447256548      2.214      2.946
REMARK  19 active torsions:
REMARK  status: ('A' for Active; 'I' for Inactive)
REMARK    1  A    between atoms: C2_2  and  C3_4 
REMARK    2  A    between atoms: C5_6  and  C6_7 
REMARK    3  A    between atoms: C6_7  and  N1_8 
REMARK    4  A    between atoms: N1_8  and  C7_10 
REMARK    5  A    between atoms: C7_10  and  C8_11 
REMARK    6  A    between atoms: C8_11  and  O2_12 
REMARK    7  A    between atoms: C8_11  and  N2_14 
REMARK    8  A    between atoms: N2_14  and  N3_16 
REMARK    9  A    between atoms: N3_16  and  C9_18 
REMARK   10  A    between atoms: C10_19  and  N4_20 
REMARK   11  A    between atoms: C11_24  and  N5_25 
REMARK   12  A    between atoms: C12_30  and  C13_31 
REMARK   13  A    between atoms: C13_31  and  N8_33 
REMARK   14  A    between atoms: N8_33  and  N9_35 
REMARK   15  A    between atoms: N9_35  and  C15_37 
REMARK   16  A    between atoms: N13_44  and  C16_45 
REMARK   17  A    between atoms: C18_57  and  O4_58 
REMARK   18  A    between atoms: C19_60  and  O5_61 
REMARK   19  A    between atoms: C20_63  and  O6_64 
ROOT
HETATM    1  C9  UNL     1      38.775  -2.478  22.758  1.00  0.00     0.067 C 
HETATM    2  C10 UNL     1      38.573  -3.754  21.996  1.00  0.00     0.261 C 
HETATM    3  C11 UNL     1      37.111  -4.046  21.743  1.00  0.00     0.196 C 
HETATM    4  C18 UNL     1      36.245  -3.941  22.966  1.00  0.00     0.178 C 
HETATM    5  C19 UNL     1      36.812  -3.042  24.043  1.00  0.00     0.183 C 
HETATM    6  C20 UNL     1      37.549  -1.878  23.327  1.00  0.00     0.198 C 
ENDROOT
BRANCH   3   7
HETATM    7  N5  UNL     1      37.065  -5.430  21.274  1.00  0.00    -0.208 N 
HETATM    8  N6  UNL     1      37.225  -6.486  22.017  1.00  0.00    -0.224 N 
HETATM    9  N7  UNL     1      37.108  -7.526  21.184  1.00  0.00    -0.267 N 
ATOM     10  H6  UNL     1      37.403  -6.515  23.020  1.00  0.00     0.210 HD
HETATM   11  C12 UNL     1      36.878  -7.080  19.940  1.00  0.00     0.161 A 
ATOM     12  H7  UNL     1      37.181  -8.507  21.453  1.00  0.00     0.190 HD
HETATM   13  N17 UNL     1      36.853  -5.726  20.015  1.00  0.00    -0.264 N 
ATOM     14  H17 UNL     1      36.701  -5.072  19.248  1.00  0.00     0.190 HD
BRANCH  11  15
HETATM   15  C13 UNL     1      36.675  -7.891  18.732  1.00  0.00     0.069 C 
HETATM   16  C14 UNL     1      35.775  -9.087  18.909  1.00  0.00     0.074 C 
BRANCH  15  17
HETATM   17  N8  UNL     1      37.213  -7.593  17.630  1.00  0.00    -0.287 N 
ATOM     18  H8  UNL     1      38.229  -7.682  17.607  1.00  0.00     0.187 HD
BRANCH  17  19
HETATM   19  N9  UNL     1      36.662  -7.184  16.503  1.00  0.00    -0.129 N 
ATOM     20  H9  UNL     1      35.799  -6.671  16.683  1.00  0.00     0.205 HD
BRANCH  19  21
HETATM   21  C15 UNL     1      36.899  -7.247  15.269  1.00  0.00     0.737 A 
HETATM   22  N10 UNL     1      37.211  -8.430  14.665  1.00  0.00    -0.113 N 
HETATM   23  N11 UNL     1      37.428  -8.216  13.394  1.00  0.00    -0.213 N 
ATOM     24  H10 UNL     1      37.266  -9.337  15.130  1.00  0.00     0.207 HD
HETATM   25  N12 UNL     1      37.258  -6.934  13.190  1.00  0.00    -0.205 N 
ATOM     26  H11 UNL     1      37.680  -8.914  12.695  1.00  0.00     0.210 HD
HETATM   27  N13 UNL     1      36.928  -6.301  14.332  1.00  0.00    -0.046 N 
ATOM     28  H12 UNL     1      37.362  -6.475  12.285  1.00  0.00     0.211 HD
BRANCH  27  29
HETATM   29  C16 UNL     1      36.709  -4.910  14.401  1.00  0.00     0.214 A 
HETATM   30  N14 UNL     1      35.816  -4.190  13.657  1.00  0.00    -0.220 N 
HETATM   31  O3  UNL     1      35.853  -2.931  14.000  1.00  0.00    -0.153 OA
ATOM     32  H14 UNL     1      35.208  -4.580  12.937  1.00  0.00     0.198 HD
HETATM   33  N15 UNL     1      36.747  -2.800  14.946  1.00  0.00    -0.222 N 
HETATM   34  C17 UNL     1      37.304  -4.011  15.226  1.00  0.00     0.170 A 
ATOM     35  H15 UNL     1      36.991  -1.922  15.406  1.00  0.00     0.198 HD
HETATM   36  N16 UNL     1      38.228  -4.200  16.116  1.00  0.00    -0.381 N 
ATOM     37 2H16 UNL     1      38.645  -5.107  16.325  1.00  0.00     0.157 HD
ATOM     38 1H16 UNL     1      38.676  -3.524  16.736  1.00  0.00     0.157 HD
ENDBRANCH  27  29
ENDBRANCH  19  21
ENDBRANCH  17  19
ENDBRANCH  15  17
ENDBRANCH  11  15
ENDBRANCH   3   7
BRANCH   2  39
HETATM   39  N4  UNL     1      39.185  -3.514  20.685  1.00  0.00    -0.068 N 
ATOM     40  H43 UNL     1      38.554  -3.671  19.900  1.00  0.00     0.275 HD
ATOM     41  H42 UNL     1      39.372  -2.531  20.490  1.00  0.00     0.275 HD
ATOM     42  H41 UNL     1      40.017  -4.104  20.670  1.00  0.00     0.275 HD
ENDBRANCH   2  39
BRANCH   4  43
HETATM   43  O4  UNL     1      34.977  -3.452  22.600  1.00  0.00    -0.391 OA
ATOM     44  H4  UNL     1      34.315  -3.843  23.158  1.00  0.00     0.210 HD
ENDBRANCH   4  43
BRANCH   1  45
HETATM   45  N3  UNL     1      39.966  -2.035  22.893  1.00  0.00    -0.302 N 
ATOM     46  H3  UNL     1      40.483  -1.673  22.092  1.00  0.00     0.186 HD
BRANCH  45  47
HETATM   47  N2  UNL     1      40.562  -2.058  24.208  1.00  0.00    -0.279 N 
ATOM     48  H2  UNL     1      40.638  -2.908  24.769  1.00  0.00     0.189 HD
BRANCH  47  49
HETATM   49  C8  UNL     1      41.023  -0.825  24.640  1.00  0.00     0.170 C 
BRANCH  49  50
HETATM   50  C7  UNL     1      40.576   0.472  24.269  1.00  0.00     0.141 C 
BRANCH  50  51
HETATM   51  N1  UNL     1      39.345   1.065  24.565  1.00  0.00    -0.391 N 
ATOM     52  H1  UNL     1      38.924   1.088  25.493  1.00  0.00     0.159 HD
BRANCH  51  53
HETATM   53  C6  UNL     1      38.735   1.655  23.352  1.00  0.00     0.158 C 
BRANCH  53  54
HETATM   54  C5  UNL     1      37.363   2.178  23.838  1.00  0.00    -0.033 A 
HETATM   55  C4  UNL     1      36.937   3.449  23.621  1.00  0.00     0.032 A 
HETATM   56  C3  UNL     1      35.731   3.814  24.166  1.00  0.00     0.050 A 
HETATM   57  S1  UNL     1      35.220   2.404  24.949  1.00  0.00    -0.098 SA
HETATM   58  C21 UNL     1      36.537   1.377  24.583  1.00  0.00     0.059 A 
BRANCH  56  59
HETATM   59  C2  UNL     1      35.077   5.140  24.037  1.00  0.00     0.162 C 
HETATM   60  C1  UNL     1      34.982   5.796  22.724  1.00  0.00     0.097 C 
HETATM   61  O1  UNL     1      34.615   5.661  25.056  1.00  0.00    -0.292 OA
ENDBRANCH  56  59
ENDBRANCH  53  54
ENDBRANCH  51  53
ENDBRANCH  50  51
ENDBRANCH  49  50
BRANCH  49  62
HETATM   62  O2  UNL     1      42.014  -0.826  25.509  1.00  0.00    -0.344 OA
ATOM     63  H2  UNL     1      41.791  -0.453  26.354  1.00  0.00     0.219 HD
ENDBRANCH  49  62
ENDBRANCH  47  49
ENDBRANCH  45  47
ENDBRANCH   1  45
BRANCH   5  64
HETATM   64  O5  UNL     1      37.694  -3.737  24.845  1.00  0.00    -0.390 OA
ATOM     65  H5  UNL     1      38.280  -4.268  24.318  1.00  0.00     0.210 HD
ENDBRANCH   5  64
BRANCH   6  66
HETATM   66  O6  UNL     1      36.653  -1.434  22.396  1.00  0.00    -0.387 OA
ATOM     67  H6  UNL     1      36.512  -0.495  22.403  1.00  0.00     0.210 HD
ENDBRANCH   6  66
TORSDOF 19
ENDMDL
MODEL 5
REMARK VINA RESULT: -8.445549220      3.681      9.376
REMARK  19 active torsions:
REMARK  status: ('A' for Active; 'I' for Inactive)
REMARK    1  A    between atoms: C2_2  and  C3_4 
REMARK    2  A    between atoms: C5_6  and  C6_7 
REMARK    3  A    between atoms: C6_7  and  N1_8 
REMARK    4  A    between atoms: N1_8  and  C7_10 
REMARK    5  A    between atoms: C7_10  and  C8_11 
REMARK    6  A    between atoms: C8_11  and  O2_12 
REMARK    7  A    between atoms: C8_11  and  N2_14 
REMARK    8  A    between atoms: N2_14  and  N3_16 
REMARK    9  A    between atoms: N3_16  and  C9_18 
REMARK   10  A    between atoms: C10_19  and  N4_20 
REMARK   11  A    between atoms: C11_24  and  N5_25 
REMARK   12  A    between atoms: C12_30  and  C13_31 
REMARK   13  A    between atoms: C13_31  and  N8_33 
REMARK   14  A    between atoms: N8_33  and  N9_35 
REMARK   15  A    between atoms: N9_35  and  C15_37 
REMARK   16  A    between atoms: N13_44  and  C16_45 
REMARK   17  A    between atoms: C18_57  and  O4_58 
REMARK   18  A    between atoms: C19_60  and  O5_61 
REMARK   19  A    between atoms: C20_63  and  O6_64 
ROOT
HETATM    1  C9  UNL     1      38.245  -3.913  21.746  1.00  0.00     0.067 C 
HETATM    2  C10 UNL     1      38.455  -2.464  22.074  1.00  0.00     0.261 C 
HETATM    3  C11 UNL     1      38.068  -2.136  23.499  1.00  0.00     0.196 C 
HETATM    4  C18 UNL     1      36.712  -2.644  23.896  1.00  0.00     0.178 C 
HETATM    5  C19 UNL     1      36.238  -3.828  23.084  1.00  0.00     0.183 C 
HETATM    6  C20 UNL     1      37.489  -4.688  22.754  1.00  0.00     0.198 C 
ENDROOT
BRANCH   3   7
HETATM    7  N5  UNL     1      38.042  -0.676  23.569  1.00  0.00    -0.208 N 
HETATM    8  N6  UNL     1      38.855   0.063  24.266  1.00  0.00    -0.224 N 
HETATM    9  N7  UNL     1      38.471   1.324  24.040  1.00  0.00    -0.267 N 
ATOM     10  H6  UNL     1      39.623  -0.252  24.858  1.00  0.00     0.210 HD
HETATM   11  C12 UNL     1      37.422   1.329  23.204  1.00  0.00     0.161 A 
ATOM     12  H7  UNL     1      38.908   2.153  24.440  1.00  0.00     0.190 HD
HETATM   13  N17 UNL     1      37.157   0.032  22.910  1.00  0.00    -0.264 N 
ATOM     14  H17 UNL     1      36.420  -0.321  22.301  1.00  0.00     0.190 HD
BRANCH  11  15
HETATM   15  C13 UNL     1      36.704   2.504  22.691  1.00  0.00     0.069 C 
HETATM   16  C14 UNL     1      35.844   3.219  23.701  1.00  0.00     0.074 C 
BRANCH  15  17
HETATM   17  N8  UNL     1      36.815   2.884  21.492  1.00  0.00    -0.287 N 
ATOM     18  H8  UNL     1      36.548   3.853  21.320  1.00  0.00     0.187 HD
BRANCH  17  19
HETATM   19  N9  UNL     1      37.224   2.218  20.429  1.00  0.00    -0.129 N 
ATOM     20  H9  UNL     1      36.561   1.486  20.179  1.00  0.00     0.205 HD
BRANCH  19  21
HETATM   21  C15 UNL     1      38.201   2.232  19.636  1.00  0.00     0.737 A 
HETATM   22  N10 UNL     1      38.018   2.246  18.284  1.00  0.00    -0.113 N 
HETATM   23  N11 UNL     1      39.185   2.238  17.696  1.00  0.00    -0.213 N 
ATOM     24  H10 UNL     1      37.116   2.261  17.808  1.00  0.00     0.207 HD
HETATM   25  N12 UNL     1      40.089   2.221  18.643  1.00  0.00    -0.205 N 
ATOM     26  H11 UNL     1      39.359   2.245  16.690  1.00  0.00     0.210 HD
HETATM   27  N13 UNL     1      39.514   2.218  19.861  1.00  0.00    -0.046 N 
ATOM     28  H12 UNL     1      41.096   2.212  18.481  1.00  0.00     0.211 HD
BRANCH  27  29
HETATM   29  C16 UNL     1      40.257   2.178  21.059  1.00  0.00     0.214 A 
HETATM   30  N14 UNL     1      40.843   1.075  21.615  1.00  0.00    -0.220 N 
HETATM   31  O3  UNL     1      41.478   1.403  22.708  1.00  0.00    -0.153 OA
ATOM     32  H14 UNL     1      40.793   0.131  21.232  1.00  0.00     0.198 HD
HETATM   33  N15 UNL     1      41.324   2.690  22.889  1.00  0.00    -0.222 N 
HETATM   34  C17 UNL     1      40.569   3.211  21.883  1.00  0.00     0.170 A 
ATOM     35  H15 UNL     1      41.711   3.222  23.668  1.00  0.00     0.198 HD
HETATM   36  N16 UNL     1      40.238   4.461  21.792  1.00  0.00    -0.381 N 
ATOM     37 2H16 UNL     1      39.673   4.851  21.038  1.00  0.00     0.157 HD
ATOM     38 1H16 UNL     1      40.472   5.238  22.411  1.00  0.00     0.157 HD
ENDBRANCH  27  29
ENDBRANCH  19  21
ENDBRANCH  17  19
ENDBRANCH  15  17
ENDBRANCH  11  15
ENDBRANCH   3   7
BRANCH   2  39
HETATM   39  N4  UNL     1      39.904  -2.259  21.977  1.00  0.00    -0.068 N 
ATOM     40  H43 UNL     1      40.216  -1.946  21.058  1.00  0.00     0.275 HD
ATOM     41  H42 UNL     1      40.242  -1.450  22.497  1.00  0.00     0.275 HD
ATOM     42  H41 UNL     1      40.318  -3.143  22.274  1.00  0.00     0.275 HD
ENDBRANCH   2  39
BRANCH   4  43
HETATM   43  O4  UNL     1      36.732  -3.015  25.254  1.00  0.00    -0.391 OA
ATOM     44  H4  UNL     1      36.824  -2.237  25.792  1.00  0.00     0.210 HD
ENDBRANCH   4  43
BRANCH   1  45
HETATM   45  N3  UNL     1      38.687  -4.352  20.630  1.00  0.00    -0.302 N 
ATOM     46  H3  UNL     1      38.973  -3.709  19.893  1.00  0.00     0.186 HD
BRANCH  45  47
HETATM   47  N2  UNL     1      38.770  -5.780  20.440  1.00  0.00    -0.279 N 
ATOM     48  H2  UNL     1      39.443  -6.369  20.933  1.00  0.00     0.189 HD
BRANCH  47  49
HETATM   49  C8  UNL     1      37.854  -6.282  19.529  1.00  0.00     0.170 C 
BRANCH  49  50
HETATM   50  C7  UNL     1      38.093  -6.868  18.257  1.00  0.00     0.141 C 
BRANCH  50  51
HETATM   51  N1  UNL     1      38.294  -6.210  17.040  1.00  0.00    -0.391 N 
ATOM     52  H1  UNL     1      39.203  -5.906  16.691  1.00  0.00     0.159 HD
BRANCH  51  53
HETATM   53  C6  UNL     1      37.013  -6.012  16.326  1.00  0.00     0.158 C 
BRANCH  53  54
HETATM   54  C5  UNL     1      37.094  -4.558  15.804  1.00  0.00    -0.033 A 
HETATM   55  C4  UNL     1      38.040  -3.676  16.216  1.00  0.00     0.032 A 
HETATM   56  C3  UNL     1      37.962  -2.393  15.733  1.00  0.00     0.050 A 
HETATM   57  S1  UNL     1      36.601  -2.441  14.730  1.00  0.00    -0.098 SA
HETATM   58  C21 UNL     1      36.147  -4.077  14.938  1.00  0.00     0.059 A 
BRANCH  56  59
HETATM   59  C2  UNL     1      38.899  -1.283  16.041  1.00  0.00     0.162 C 
HETATM   60  C1  UNL     1      40.319  -1.561  16.299  1.00  0.00     0.097 C 
HETATM   61  O1  UNL     1      38.449  -0.133  16.063  1.00  0.00    -0.292 OA
ENDBRANCH  56  59
ENDBRANCH  53  54
ENDBRANCH  51  53
ENDBRANCH  50  51
ENDBRANCH  49  50
BRANCH  49  62
HETATM   62  O2  UNL     1      36.580  -6.212  19.860  1.00  0.00    -0.344 OA
ATOM     63  H2  UNL     1      36.312  -6.846  20.515  1.00  0.00     0.219 HD
ENDBRANCH  49  62
ENDBRANCH  47  49
ENDBRANCH  45  47
ENDBRANCH   1  45
BRANCH   5  64
HETATM   64  O5  UNL     1      35.632  -3.410  21.917  1.00  0.00    -0.390 OA
ATOM     65  H5  UNL     1      35.233  -4.143  21.464  1.00  0.00     0.210 HD
ENDBRANCH   5  64
BRANCH   6  66
HETATM   66  O6  UNL     1      38.127  -4.828  23.954  1.00  0.00    -0.387 OA
ATOM     67  H6  UNL     1      37.555  -4.781  24.711  1.00  0.00     0.210 HD
ENDBRANCH   6  66
TORSDOF 19
ENDMDL
