MODEL 1
REMARK VINA RESULT: -8.483405972      0.000      0.000
REMARK  15 active torsions:
REMARK  status: ('A' for Active; 'I' for Inactive)
REMARK    1  A    between atoms: C2_2  and  O1_3 
REMARK    2  A    between atoms: C2_2  and  C23_59 
REMARK    3  A    between atoms: O1_3  and  N1_4 
REMARK    4  A    between atoms: C3_6  and  N2_7 
REMARK    5  A    between atoms: N3_9  and  C4_11 
REMARK    6  A    between atoms: N7_18  and  C5_19 
REMARK    7  A    between atoms: C6_23  and  N10_24 
REMARK    8  A    between atoms: N10_24  and  C7_26 
REMARK    9  A    between atoms: C7_26  and  C8_27 
REMARK   10  A    between atoms: C8_27  and  N11_28 
REMARK   11  A    between atoms: N11_28  and  C9_31 
REMARK   12  A    between atoms: C12_35  and  O2_37 
REMARK   13  A    between atoms: C14_39  and  O3_40 
REMARK   14  A    between atoms: C18_49  and  O6_50 
REMARK   15  A    between atoms: C20_53  and  O7_54 
ROOT
HETATM    1  C5  UNL     1      36.459  -5.764  22.594  1.00  0.00     0.215 A 
HETATM    2  N8  UNL     1      37.673  -5.520  22.898  1.00  0.00    -0.271 N 
ATOM      3  H8  UNL     1      38.382  -6.248  22.979  1.00  0.00     0.189 HD
HETATM    4  N9  UNL     1      37.946  -4.163  23.109  1.00  0.00    -0.231 N 
HETATM    5  C6  UNL     1      39.133  -3.566  23.403  1.00  0.00     0.140 A 
HETATM    6  C15 UNL     1      39.134  -2.171  23.504  1.00  0.00     0.093 A 
HETATM    7  C16 UNL     1      40.260  -1.432  23.823  1.00  0.00     0.263 A 
HETATM    8  O4  UNL     1      41.346  -1.989  24.006  1.00  0.00    -0.267 OA
HETATM    9  N13 UNL     1      40.202  -0.071  23.940  1.00  0.00    -0.287 N 
ATOM     10  H13 UNL     1      41.050   0.444  24.176  1.00  0.00     0.172 HD
HETATM   11  C17 UNL     1      39.066   0.600  23.754  1.00  0.00     0.282 A 
HETATM   12  O5  UNL     1      39.056   1.859  23.870  1.00  0.00    -0.265 OA
HETATM   13  C18 UNL     1      37.898  -0.033  23.436  1.00  0.00     0.148 A 
HETATM   14  C19 UNL     1      37.910  -1.411  23.308  1.00  0.00     0.058 A 
HETATM   15  C20 UNL     1      36.752  -2.087  23.018  1.00  0.00     0.113 A 
HETATM   16  C21 UNL     1      36.825  -3.455  22.931  1.00  0.00     0.146 A 
HETATM   17  C22 UNL     1      35.790  -4.458  22.588  1.00  0.00     0.251 A 
HETATM   18  O8  UNL     1      34.605  -4.184  22.356  1.00  0.00    -0.282 OA
ENDROOT
BRANCH   1  19
HETATM   19  N7  UNL     1      35.787  -6.984  22.300  1.00  0.00    -0.046 N 
HETATM   20  C4  UNL     1      36.199  -7.976  21.416  1.00  0.00     0.737 A 
HETATM   21  N4  UNL     1      35.303  -8.946  21.418  1.00  0.00    -0.113 N 
HETATM   22  N5  UNL     1      34.339  -8.620  22.257  1.00  0.00    -0.213 N 
ATOM     23  H4  UNL     1      35.350  -9.802  20.864  1.00  0.00     0.207 HD
HETATM   24  N6  UNL     1      34.655  -7.423  22.782  1.00  0.00    -0.205 N 
ATOM     25  H5  UNL     1      33.508  -9.173  22.468  1.00  0.00     0.210 HD
ATOM     26  H6  UNL     1      34.085  -6.923  23.466  1.00  0.00     0.211 HD
BRANCH  20  27
HETATM   27  N3  UNL     1      37.417  -7.771  20.732  1.00  0.00    -0.128 N 
HETATM   28  N2  UNL     1      38.469  -8.428  20.775  1.00  0.00    -0.280 N 
ATOM     29  H2  UNL     1      38.561  -9.260  21.358  1.00  0.00     0.188 HD
ATOM     30  H3  UNL     1      37.435  -6.962  20.110  1.00  0.00     0.205 HD
BRANCH  28  31
HETATM   31  C3  UNL     1      39.543  -7.954  19.961  1.00  0.00     0.221 C 
HETATM   32  N1  UNL     1      39.382  -7.467  18.810  1.00  0.00    -0.260 N 
ATOM     33  H1  UNL     1      40.246  -7.174  18.352  1.00  0.00     0.195 HD
BRANCH  32  34
HETATM   34  O1  UNL     1      38.287  -7.268  18.092  1.00  0.00    -0.265 OA
BRANCH  34  35
HETATM   35  C2  UNL     1      37.987  -6.124  17.281  1.00  0.00     0.237 C 
HETATM   36  C1  UNL     1      36.607  -6.376  16.733  1.00  0.00     0.052 C 
BRANCH  35  37
HETATM   37  C23 UNL     1      38.048  -4.904  18.103  1.00  0.00     0.262 C 
HETATM   38  N14 UNL     1      37.765  -4.956  19.489  1.00  0.00    -0.060 NA
HETATM   39  O9  UNL     1      38.356  -3.823  17.553  1.00  0.00    -0.274 OA
ENDBRANCH  35  37
ENDBRANCH  34  35
ENDBRANCH  32  34
ENDBRANCH  28  31
ENDBRANCH  20  27
ENDBRANCH   1  19
BRANCH   5  40
HETATM   40  N10 UNL     1      40.272  -4.304  23.799  1.00  0.00    -0.372 N 
ATOM     41  H10 UNL     1      41.128  -4.302  23.244  1.00  0.00     0.161 HD
BRANCH  40  42
HETATM   42  C7  UNL     1      40.163  -5.075  25.046  1.00  0.00     0.149 C 
BRANCH  42  43
HETATM   43  C8  UNL     1      41.561  -5.664  25.362  1.00  0.00     0.253 C 
BRANCH  43  44
HETATM   44  N11 UNL     1      41.943  -5.264  26.689  1.00  0.00    -0.062 N 
ATOM     45 2H11 UNL     1      42.928  -5.472  26.857  1.00  0.00     0.278 HD
ATOM     46 1H11 UNL     1      41.966  -4.247  26.764  1.00  0.00     0.278 HD
BRANCH  44  47
HETATM   47  C9  UNL     1      41.157  -5.806  27.689  1.00  0.00     0.264 C 
HETATM   48  C10 UNL     1      41.540  -5.467  29.109  1.00  0.00     0.056 C 
HETATM   49  N12 UNL     1      42.317  -4.416  29.619  1.00  0.00    -0.105 NA
HETATM   50  C11 UNL     1      40.991  -6.408  29.904  1.00  0.00     0.037 C 
HETATM   51  C12 UNL     1      40.237  -7.394  29.063  1.00  0.00     0.102 C 
HETATM   52  C13 UNL     1      40.145  -8.750  29.648  1.00  0.00     0.053 C 
HETATM   53  C14 UNL     1      41.176  -7.336  27.818  1.00  0.00     0.192 C 
BRANCH  51  54
HETATM   54  O2  UNL     1      39.029  -6.895  28.605  1.00  0.00    -0.383 OA
ATOM     55  H2  UNL     1      38.298  -7.469  28.798  1.00  0.00     0.211 HD
ENDBRANCH  51  54
BRANCH  53  56
HETATM   56  O3  UNL     1      42.439  -7.776  28.203  1.00  0.00    -0.390 OA
ATOM     57  H3  UNL     1      42.711  -8.513  27.669  1.00  0.00     0.210 HD
ENDBRANCH  53  56
ENDBRANCH  44  47
ENDBRANCH  43  44
ENDBRANCH  42  43
ENDBRANCH  40  42
ENDBRANCH   5  40
BRANCH  15  58
HETATM   58  O7  UNL     1      35.604  -1.386  22.834  1.00  0.00    -0.357 OA
ATOM     59  H7  UNL     1      34.849  -1.824  22.460  1.00  0.00     0.217 HD
ENDBRANCH  15  58
BRANCH  13  60
HETATM   60  O6  UNL     1      36.690   0.599  23.233  1.00  0.00    -0.355 OA
ATOM     61  H6  UNL     1      35.874   0.355  23.653  1.00  0.00     0.218 HD
ENDBRANCH  13  60
TORSDOF 15
ENDMDL
MODEL 2
REMARK VINA RESULT: -8.424242538      0.853      1.138
REMARK  15 active torsions:
REMARK  status: ('A' for Active; 'I' for Inactive)
REMARK    1  A    between atoms: C2_2  and  O1_3 
REMARK    2  A    between atoms: C2_2  and  C23_59 
REMARK    3  A    between atoms: O1_3  and  N1_4 
REMARK    4  A    between atoms: C3_6  and  N2_7 
REMARK    5  A    between atoms: N3_9  and  C4_11 
REMARK    6  A    between atoms: N7_18  and  C5_19 
REMARK    7  A    between atoms: C6_23  and  N10_24 
REMARK    8  A    between atoms: N10_24  and  C7_26 
REMARK    9  A    between atoms: C7_26  and  C8_27 
REMARK   10  A    between atoms: C8_27  and  N11_28 
REMARK   11  A    between atoms: N11_28  and  C9_31 
REMARK   12  A    between atoms: C12_35  and  O2_37 
REMARK   13  A    between atoms: C14_39  and  O3_40 
REMARK   14  A    between atoms: C18_49  and  O6_50 
REMARK   15  A    between atoms: C20_53  and  O7_54 
ROOT
HETATM    1  C5  UNL     1      36.499  -5.801  22.594  1.00  0.00     0.215 A 
HETATM    2  N8  UNL     1      37.708  -5.552  22.913  1.00  0.00    -0.271 N 
ATOM      3  H8  UNL     1      38.418  -6.277  23.005  1.00  0.00     0.189 HD
HETATM    4  N9  UNL     1      37.975  -4.193  23.123  1.00  0.00    -0.231 N 
HETATM    5  C6  UNL     1      39.155  -3.591  23.430  1.00  0.00     0.140 A 
HETATM    6  C15 UNL     1      39.151  -2.196  23.527  1.00  0.00     0.093 A 
HETATM    7  C16 UNL     1      40.270  -1.452  23.858  1.00  0.00     0.263 A 
HETATM    8  O4  UNL     1      41.356  -2.005  24.057  1.00  0.00    -0.267 OA
HETATM    9  N13 UNL     1      40.206  -0.091  23.970  1.00  0.00    -0.287 N 
ATOM     10  H13 UNL     1      41.050   0.427  24.215  1.00  0.00     0.172 HD
HETATM   11  C17 UNL     1      39.071   0.576  23.767  1.00  0.00     0.282 A 
HETATM   12  O5  UNL     1      39.055   1.835  23.879  1.00  0.00    -0.265 OA
HETATM   13  C18 UNL     1      37.909  -0.063  23.436  1.00  0.00     0.148 A 
HETATM   14  C19 UNL     1      37.927  -1.440  23.313  1.00  0.00     0.058 A 
HETATM   15  C20 UNL     1      36.775  -2.121  23.010  1.00  0.00     0.113 A 
HETATM   16  C21 UNL     1      36.854  -3.489  22.928  1.00  0.00     0.146 A 
HETATM   17  C22 UNL     1      35.826  -4.496  22.575  1.00  0.00     0.251 A 
HETATM   18  O8  UNL     1      34.644  -4.227  22.327  1.00  0.00    -0.282 OA
ENDROOT
BRANCH   1  19
HETATM   19  N7  UNL     1      35.835  -7.024  22.296  1.00  0.00    -0.046 N 
HETATM   20  C4  UNL     1      36.330  -8.083  21.543  1.00  0.00     0.737 A 
HETATM   21  N4  UNL     1      35.412  -9.032  21.490  1.00  0.00    -0.113 N 
HETATM   22  N5  UNL     1      34.356  -8.627  22.169  1.00  0.00    -0.213 N 
ATOM     23  H4  UNL     1      35.505  -9.926  21.006  1.00  0.00     0.207 HD
HETATM   24  N6  UNL     1      34.636  -7.403  22.650  1.00  0.00    -0.205 N 
ATOM     25  H5  UNL     1      33.489  -9.147  22.304  1.00  0.00     0.210 HD
ATOM     26  H6  UNL     1      33.997  -6.845  23.216  1.00  0.00     0.211 HD
BRANCH  20  27
HETATM   27  N3  UNL     1      37.632  -7.953  21.015  1.00  0.00    -0.128 N 
HETATM   28  N2  UNL     1      38.121  -8.441  19.983  1.00  0.00    -0.280 N 
ATOM     29  H2  UNL     1      37.575  -9.033  19.357  1.00  0.00     0.188 HD
ATOM     30  H3  UNL     1      38.267  -7.372  21.563  1.00  0.00     0.205 HD
BRANCH  28  31
HETATM   31  C3  UNL     1      39.490  -8.125  19.722  1.00  0.00     0.221 C 
HETATM   32  N1  UNL     1      40.004  -7.001  19.965  1.00  0.00    -0.260 N 
ATOM     33  H1  UNL     1      40.992  -6.928  19.722  1.00  0.00     0.195 HD
BRANCH  32  34
HETATM   34  O1  UNL     1      39.484  -5.897  20.480  1.00  0.00    -0.265 OA
BRANCH  34  35
HETATM   35  C2  UNL     1      39.210  -4.672  19.787  1.00  0.00     0.237 C 
HETATM   36  C1  UNL     1      40.514  -4.279  19.144  1.00  0.00     0.052 C 
BRANCH  35  37
HETATM   37  C23 UNL     1      38.142  -4.891  18.797  1.00  0.00     0.262 C 
HETATM   38  N14 UNL     1      38.167  -4.218  17.552  1.00  0.00    -0.060 NA
HETATM   39  O9  UNL     1      37.214  -5.682  19.078  1.00  0.00    -0.274 OA
ENDBRANCH  35  37
ENDBRANCH  34  35
ENDBRANCH  32  34
ENDBRANCH  28  31
ENDBRANCH  20  27
ENDBRANCH   1  19
BRANCH   5  40
HETATM   40  N10 UNL     1      40.291  -4.325  23.843  1.00  0.00    -0.372 N 
ATOM     41  H10 UNL     1      41.153  -4.325  23.298  1.00  0.00     0.161 HD
BRANCH  40  42
HETATM   42  C7  UNL     1      40.172  -5.086  25.095  1.00  0.00     0.149 C 
BRANCH  42  43
HETATM   43  C8  UNL     1      41.562  -5.690  25.418  1.00  0.00     0.253 C 
BRANCH  43  44
HETATM   44  N11 UNL     1      41.944  -5.291  26.745  1.00  0.00    -0.062 N 
ATOM     45 2H11 UNL     1      42.929  -5.499  26.913  1.00  0.00     0.278 HD
ATOM     46 1H11 UNL     1      41.968  -4.273  26.820  1.00  0.00     0.278 HD
BRANCH  44  47
HETATM   47  C9  UNL     1      41.157  -5.833  27.745  1.00  0.00     0.264 C 
HETATM   48  C10 UNL     1      41.539  -5.492  29.164  1.00  0.00     0.056 C 
HETATM   49  N12 UNL     1      42.315  -4.440  29.674  1.00  0.00    -0.105 NA
HETATM   50  C11 UNL     1      40.990  -6.432  29.959  1.00  0.00     0.037 C 
HETATM   51  C12 UNL     1      40.237  -7.419  29.118  1.00  0.00     0.102 C 
HETATM   52  C13 UNL     1      40.145  -8.775  29.705  1.00  0.00     0.053 C 
HETATM   53  C14 UNL     1      41.177  -7.362  27.875  1.00  0.00     0.192 C 
BRANCH  51  54
HETATM   54  O2  UNL     1      39.029  -6.921  28.659  1.00  0.00    -0.383 OA
ATOM     55  H2  UNL     1      38.280  -7.349  29.058  1.00  0.00     0.211 HD
ENDBRANCH  51  54
BRANCH  53  56
HETATM   56  O3  UNL     1      42.440  -7.801  28.261  1.00  0.00    -0.390 OA
ATOM     57  H3  UNL     1      42.655  -8.618  27.826  1.00  0.00     0.210 HD
ENDBRANCH  53  56
ENDBRANCH  44  47
ENDBRANCH  43  44
ENDBRANCH  42  43
ENDBRANCH  40  42
ENDBRANCH   5  40
BRANCH  15  58
HETATM   58  O7  UNL     1      35.627  -1.425  22.809  1.00  0.00    -0.357 OA
ATOM     59  H7  UNL     1      34.828  -1.897  22.607  1.00  0.00     0.217 HD
ENDBRANCH  15  58
BRANCH  13  60
HETATM   60  O6  UNL     1      36.702   0.565  23.216  1.00  0.00    -0.355 OA
ATOM     61  H6  UNL     1      36.383   0.843  22.365  1.00  0.00     0.218 HD
ENDBRANCH  13  60
TORSDOF 15
ENDMDL
MODEL 3
REMARK VINA RESULT: -8.360769067      0.993      1.344
REMARK  15 active torsions:
REMARK  status: ('A' for Active; 'I' for Inactive)
REMARK    1  A    between atoms: C2_2  and  O1_3 
REMARK    2  A    between atoms: C2_2  and  C23_59 
REMARK    3  A    between atoms: O1_3  and  N1_4 
REMARK    4  A    between atoms: C3_6  and  N2_7 
REMARK    5  A    between atoms: N3_9  and  C4_11 
REMARK    6  A    between atoms: N7_18  and  C5_19 
REMARK    7  A    between atoms: C6_23  and  N10_24 
REMARK    8  A    between atoms: N10_24  and  C7_26 
REMARK    9  A    between atoms: C7_26  and  C8_27 
REMARK   10  A    between atoms: C8_27  and  N11_28 
REMARK   11  A    between atoms: N11_28  and  C9_31 
REMARK   12  A    between atoms: C12_35  and  O2_37 
REMARK   13  A    between atoms: C14_39  and  O3_40 
REMARK   14  A    between atoms: C18_49  and  O6_50 
REMARK   15  A    between atoms: C20_53  and  O7_54 
ROOT
HETATM    1  C5  UNL     1      36.437  -5.774  22.604  1.00  0.00     0.215 A 
HETATM    2  N8  UNL     1      37.654  -5.529  22.897  1.00  0.00    -0.271 N 
ATOM      3  H8  UNL     1      38.364  -6.256  22.969  1.00  0.00     0.189 HD
HETATM    4  N9  UNL     1      37.928  -4.172  23.109  1.00  0.00    -0.231 N 
HETATM    5  C6  UNL     1      39.116  -3.574  23.392  1.00  0.00     0.140 A 
HETATM    6  C15 UNL     1      39.117  -2.180  23.498  1.00  0.00     0.093 A 
HETATM    7  C16 UNL     1      40.245  -1.440  23.807  1.00  0.00     0.263 A 
HETATM    8  O4  UNL     1      41.334  -1.996  23.978  1.00  0.00    -0.267 OA
HETATM    9  N13 UNL     1      40.187  -0.080  23.929  1.00  0.00    -0.287 N 
ATOM     10  H13 UNL     1      41.036   0.436  24.158  1.00  0.00     0.172 HD
HETATM   11  C17 UNL     1      39.048   0.591  23.755  1.00  0.00     0.282 A 
HETATM   12  O5  UNL     1      39.038   1.850  23.876  1.00  0.00    -0.265 OA
HETATM   13  C18 UNL     1      37.877  -0.043  23.448  1.00  0.00     0.148 A 
HETATM   14  C19 UNL     1      37.890  -1.420  23.316  1.00  0.00     0.058 A 
HETATM   15  C20 UNL     1      36.730  -2.097  23.035  1.00  0.00     0.113 A 
HETATM   16  C21 UNL     1      36.804  -3.465  22.944  1.00  0.00     0.146 A 
HETATM   17  C22 UNL     1      35.767  -4.468  22.608  1.00  0.00     0.251 A 
HETATM   18  O8  UNL     1      34.580  -4.195  22.389  1.00  0.00    -0.282 OA
ENDROOT
BRANCH   1  19
HETATM   19  N7  UNL     1      35.764  -6.994  22.314  1.00  0.00    -0.046 N 
HETATM   20  C4  UNL     1      36.179  -7.991  21.438  1.00  0.00     0.737 A 
HETATM   21  N4  UNL     1      35.280  -8.959  21.440  1.00  0.00    -0.113 N 
HETATM   22  N5  UNL     1      34.312  -8.626  22.272  1.00  0.00    -0.213 N 
ATOM     23  H4  UNL     1      35.327  -9.819  20.891  1.00  0.00     0.207 HD
HETATM   24  N6  UNL     1      34.628  -7.427  22.792  1.00  0.00    -0.205 N 
ATOM     25  H5  UNL     1      33.479  -9.176  22.481  1.00  0.00     0.210 HD
ATOM     26  H6  UNL     1      34.056  -6.922  23.469  1.00  0.00     0.211 HD
BRANCH  20  27
HETATM   27  N3  UNL     1      37.400  -7.793  20.759  1.00  0.00    -0.128 N 
HETATM   28  N2  UNL     1      38.414  -8.509  20.729  1.00  0.00    -0.280 N 
ATOM     29  H2  UNL     1      38.464  -9.394  21.234  1.00  0.00     0.188 HD
ATOM     30  H3  UNL     1      37.459  -6.934  20.212  1.00  0.00     0.205 HD
BRANCH  28  31
HETATM   31  C3  UNL     1      39.507  -8.024  19.947  1.00  0.00     0.221 C 
HETATM   32  N1  UNL     1      39.370  -7.494  18.812  1.00  0.00    -0.260 N 
ATOM     33  H1  UNL     1      40.244  -7.200  18.376  1.00  0.00     0.195 HD
BRANCH  32  34
HETATM   34  O1  UNL     1      38.288  -7.254  18.086  1.00  0.00    -0.265 OA
BRANCH  34  35
HETATM   35  C2  UNL     1      38.029  -6.091  17.288  1.00  0.00     0.237 C 
HETATM   36  C1  UNL     1      36.663  -6.312  16.694  1.00  0.00     0.052 C 
BRANCH  35  37
HETATM   37  C23 UNL     1      38.083  -4.888  18.135  1.00  0.00     0.262 C 
HETATM   38  N14 UNL     1      37.777  -4.966  19.515  1.00  0.00    -0.060 NA
HETATM   39  O9  UNL     1      38.404  -3.798  17.611  1.00  0.00    -0.274 OA
ENDBRANCH  35  37
ENDBRANCH  34  35
ENDBRANCH  32  34
ENDBRANCH  28  31
ENDBRANCH  20  27
ENDBRANCH   1  19
BRANCH   5  40
HETATM   40  N10 UNL     1      40.260  -4.312  23.775  1.00  0.00    -0.372 N 
ATOM     41  H10 UNL     1      41.167  -4.157  23.335  1.00  0.00     0.161 HD
BRANCH  40  42
HETATM   42  C7  UNL     1      40.080  -5.314  24.836  1.00  0.00     0.149 C 
BRANCH  42  43
HETATM   43  C8  UNL     1      41.059  -4.969  25.986  1.00  0.00     0.253 C 
BRANCH  43  44
HETATM   44  N11 UNL     1      40.839  -5.883  27.073  1.00  0.00    -0.062 N 
ATOM     45 2H11 UNL     1      39.870  -5.837  27.389  1.00  0.00     0.278 HD
ATOM     46 1H11 UNL     1      40.867  -6.847  26.741  1.00  0.00     0.278 HD
BRANCH  44  47
HETATM   47  C9  UNL     1      41.705  -5.711  28.138  1.00  0.00     0.264 C 
HETATM   48  C10 UNL     1      43.006  -6.472  28.079  1.00  0.00     0.056 C 
HETATM   49  N12 UNL     1      43.683  -7.043  26.990  1.00  0.00    -0.105 NA
HETATM   50  C11 UNL     1      43.477  -6.550  29.340  1.00  0.00     0.037 C 
HETATM   51  C12 UNL     1      42.526  -5.860  30.272  1.00  0.00     0.102 C 
HETATM   52  C13 UNL     1      42.539  -6.386  31.655  1.00  0.00     0.053 C 
HETATM   53  C14 UNL     1      41.218  -6.218  29.502  1.00  0.00     0.192 C 
BRANCH  51  54
HETATM   54  O2  UNL     1      42.606  -4.480  30.192  1.00  0.00    -0.383 OA
ATOM     55  H2  UNL     1      42.172  -4.130  29.423  1.00  0.00     0.211 HD
ENDBRANCH  51  54
BRANCH  53  56
HETATM   56  O3  UNL     1      41.083  -7.602  29.488  1.00  0.00    -0.390 OA
ATOM     57  H3  UNL     1      40.299  -7.855  29.015  1.00  0.00     0.210 HD
ENDBRANCH  53  56
ENDBRANCH  44  47
ENDBRANCH  43  44
ENDBRANCH  42  43
ENDBRANCH  40  42
ENDBRANCH   5  40
BRANCH  15  58
HETATM   58  O7  UNL     1      35.580  -1.397  22.865  1.00  0.00    -0.357 OA
ATOM     59  H7  UNL     1      34.747  -1.838  22.988  1.00  0.00     0.217 HD
ENDBRANCH  15  58
BRANCH  13  60
HETATM   60  O6  UNL     1      36.667   0.588  23.259  1.00  0.00    -0.355 OA
ATOM     61  H6  UNL     1      36.560   1.450  22.874  1.00  0.00     0.218 HD
ENDBRANCH  13  60
TORSDOF 15
ENDMDL
MODEL 4
REMARK VINA RESULT: -8.229648013      1.285      1.724
REMARK  15 active torsions:
REMARK  status: ('A' for Active; 'I' for Inactive)
REMARK    1  A    between atoms: C2_2  and  O1_3 
REMARK    2  A    between atoms: C2_2  and  C23_59 
REMARK    3  A    between atoms: O1_3  and  N1_4 
REMARK    4  A    between atoms: C3_6  and  N2_7 
REMARK    5  A    between atoms: N3_9  and  C4_11 
REMARK    6  A    between atoms: N7_18  and  C5_19 
REMARK    7  A    between atoms: C6_23  and  N10_24 
REMARK    8  A    between atoms: N10_24  and  C7_26 
REMARK    9  A    between atoms: C7_26  and  C8_27 
REMARK   10  A    between atoms: C8_27  and  N11_28 
REMARK   11  A    between atoms: N11_28  and  C9_31 
REMARK   12  A    between atoms: C12_35  and  O2_37 
REMARK   13  A    between atoms: C14_39  and  O3_40 
REMARK   14  A    between atoms: C18_49  and  O6_50 
REMARK   15  A    between atoms: C20_53  and  O7_54 
ROOT
HETATM    1  C5  UNL     1      36.454  -5.798  22.577  1.00  0.00     0.215 A 
HETATM    2  N8  UNL     1      37.662  -5.547  22.899  1.00  0.00    -0.271 N 
ATOM      3  H8  UNL     1      38.371  -6.271  23.001  1.00  0.00     0.189 HD
HETATM    4  N9  UNL     1      37.928  -4.187  23.099  1.00  0.00    -0.231 N 
HETATM    5  C6  UNL     1      39.107  -3.582  23.405  1.00  0.00     0.140 A 
HETATM    6  C15 UNL     1      39.103  -2.186  23.490  1.00  0.00     0.093 A 
HETATM    7  C16 UNL     1      40.220  -1.439  23.819  1.00  0.00     0.263 A 
HETATM    8  O4  UNL     1      41.305  -1.991  24.027  1.00  0.00    -0.267 OA
HETATM    9  N13 UNL     1      40.156  -0.077  23.918  1.00  0.00    -0.287 N 
ATOM     10  H13 UNL     1      40.999   0.443  24.163  1.00  0.00     0.172 HD
HETATM   11  C17 UNL     1      39.021   0.588  23.705  1.00  0.00     0.282 A 
HETATM   12  O5  UNL     1      39.006   1.849  23.806  1.00  0.00    -0.265 OA
HETATM   13  C18 UNL     1      37.861  -0.053  23.375  1.00  0.00     0.148 A 
HETATM   14  C19 UNL     1      37.880  -1.432  23.264  1.00  0.00     0.058 A 
HETATM   15  C20 UNL     1      36.729  -2.115  22.962  1.00  0.00     0.113 A 
HETATM   16  C21 UNL     1      36.808  -3.484  22.893  1.00  0.00     0.146 A 
HETATM   17  C22 UNL     1      35.781  -4.494  22.544  1.00  0.00     0.251 A 
HETATM   18  O8  UNL     1      34.600  -4.227  22.289  1.00  0.00    -0.282 OA
ENDROOT
BRANCH   1  19
HETATM   19  N7  UNL     1      35.791  -7.024  22.287  1.00  0.00    -0.046 N 
HETATM   20  C4  UNL     1      36.289  -8.090  21.546  1.00  0.00     0.737 A 
HETATM   21  N4  UNL     1      35.371  -9.039  21.497  1.00  0.00    -0.113 N 
HETATM   22  N5  UNL     1      34.313  -8.629  22.168  1.00  0.00    -0.213 N 
ATOM     23  H4  UNL     1      35.466  -9.937  21.022  1.00  0.00     0.207 HD
HETATM   24  N6  UNL     1      34.591  -7.400  22.640  1.00  0.00    -0.205 N 
ATOM     25  H5  UNL     1      33.444  -9.147  22.304  1.00  0.00     0.210 HD
ATOM     26  H6  UNL     1      33.949  -6.837  23.199  1.00  0.00     0.211 HD
BRANCH  20  27
HETATM   27  N3  UNL     1      37.594  -7.965  21.023  1.00  0.00    -0.128 N 
HETATM   28  N2  UNL     1      38.111  -8.525  20.043  1.00  0.00    -0.280 N 
ATOM     29  H2  UNL     1      37.593  -9.188  19.466  1.00  0.00     0.188 HD
ATOM     30  H3  UNL     1      38.202  -7.317  21.523  1.00  0.00     0.205 HD
BRANCH  28  31
HETATM   31  C3  UNL     1      39.472  -8.190  19.770  1.00  0.00     0.221 C 
HETATM   32  N1  UNL     1      39.953  -7.038  19.939  1.00  0.00    -0.260 N 
ATOM     33  H1  UNL     1      40.941  -6.954  19.697  1.00  0.00     0.195 HD
BRANCH  32  34
HETATM   34  O1  UNL     1      39.399  -5.916  20.375  1.00  0.00    -0.265 OA
BRANCH  34  35
HETATM   35  C2  UNL     1      39.186  -4.715  19.624  1.00  0.00     0.237 C 
HETATM   36  C1  UNL     1      40.499  -4.435  18.941  1.00  0.00     0.052 C 
BRANCH  35  37
HETATM   37  C23 UNL     1      38.089  -4.919  18.663  1.00  0.00     0.262 C 
HETATM   38  N14 UNL     1      38.031  -4.164  17.466  1.00  0.00    -0.060 NA
HETATM   39  O9  UNL     1      37.211  -5.771  18.925  1.00  0.00    -0.274 OA
ENDBRANCH  35  37
ENDBRANCH  34  35
ENDBRANCH  32  34
ENDBRANCH  28  31
ENDBRANCH  20  27
ENDBRANCH   1  19
BRANCH   5  40
HETATM   40  N10 UNL     1      40.241  -4.312  23.829  1.00  0.00    -0.372 N 
ATOM     41  H10 UNL     1      41.163  -4.146  23.427  1.00  0.00     0.161 HD
BRANCH  40  42
HETATM   42  C7  UNL     1      40.029  -5.321  24.877  1.00  0.00     0.149 C 
BRANCH  42  43
HETATM   43  C8  UNL     1      41.169  -5.174  25.916  1.00  0.00     0.253 C 
BRANCH  43  44
HETATM   44  N11 UNL     1      40.906  -6.055  27.021  1.00  0.00    -0.062 N 
ATOM     45 2H11 UNL     1      39.927  -5.997  27.301  1.00  0.00     0.278 HD
ATOM     46 1H11 UNL     1      40.942  -7.029  26.718  1.00  0.00     0.278 HD
BRANCH  44  47
HETATM   47  C9  UNL     1      41.734  -5.855  28.110  1.00  0.00     0.264 C 
HETATM   48  C10 UNL     1      43.056  -6.584  28.096  1.00  0.00     0.056 C 
HETATM   49  N12 UNL     1      43.780  -7.144  27.032  1.00  0.00    -0.105 NA
HETATM   50  C11 UNL     1      43.489  -6.642  29.372  1.00  0.00     0.037 C 
HETATM   51  C12 UNL     1      42.494  -5.971  30.269  1.00  0.00     0.102 C 
HETATM   52  C13 UNL     1      42.477  -6.487  31.656  1.00  0.00     0.053 C 
HETATM   53  C14 UNL     1      41.218  -6.366  29.462  1.00  0.00     0.192 C 
BRANCH  51  54
HETATM   54  O2  UNL     1      42.541  -4.589  30.183  1.00  0.00    -0.383 OA
ATOM     55  H2  UNL     1      43.411  -4.241  30.334  1.00  0.00     0.211 HD
ENDBRANCH  51  54
BRANCH  53  56
HETATM   56  O3  UNL     1      41.119  -7.753  29.453  1.00  0.00    -0.390 OA
ATOM     57  H3  UNL     1      40.215  -8.021  29.340  1.00  0.00     0.210 HD
ENDBRANCH  53  56
ENDBRANCH  44  47
ENDBRANCH  43  44
ENDBRANCH  42  43
ENDBRANCH  40  42
ENDBRANCH   5  40
BRANCH  15  58
HETATM   58  O7  UNL     1      35.582  -1.421  22.750  1.00  0.00    -0.357 OA
ATOM     59  H7  UNL     1      35.259  -0.840  23.429  1.00  0.00     0.217 HD
ENDBRANCH  15  58
BRANCH  13  60
HETATM   60  O6  UNL     1      36.655   0.573  23.144  1.00  0.00    -0.355 OA
ATOM     61  H6  UNL     1      35.908   0.543  23.731  1.00  0.00     0.218 HD
ENDBRANCH  13  60
TORSDOF 15
ENDMDL
MODEL 5
REMARK VINA RESULT: -8.156602423      1.163      1.562
REMARK  15 active torsions:
REMARK  status: ('A' for Active; 'I' for Inactive)
REMARK    1  A    between atoms: C2_2  and  O1_3 
REMARK    2  A    between atoms: C2_2  and  C23_59 
REMARK    3  A    between atoms: O1_3  and  N1_4 
REMARK    4  A    between atoms: C3_6  and  N2_7 
REMARK    5  A    between atoms: N3_9  and  C4_11 
REMARK    6  A    between atoms: N7_18  and  C5_19 
REMARK    7  A    between atoms: C6_23  and  N10_24 
REMARK    8  A    between atoms: N10_24  and  C7_26 
REMARK    9  A    between atoms: C7_26  and  C8_27 
REMARK   10  A    between atoms: C8_27  and  N11_28 
REMARK   11  A    between atoms: N11_28  and  C9_31 
REMARK   12  A    between atoms: C12_35  and  O2_37 
REMARK   13  A    between atoms: C14_39  and  O3_40 
REMARK   14  A    between atoms: C18_49  and  O6_50 
REMARK   15  A    between atoms: C20_53  and  O7_54 
ROOT
HETATM    1  C5  UNL     1      36.559  -5.484  22.512  1.00  0.00     0.215 A 
HETATM    2  N8  UNL     1      37.784  -5.168  22.669  1.00  0.00    -0.271 N 
ATOM      3  H8  UNL     1      38.539  -5.853  22.661  1.00  0.00     0.189 HD
HETATM    4  N9  UNL     1      38.001  -3.797  22.852  1.00  0.00    -0.231 N 
HETATM    5  C6  UNL     1      39.177  -3.130  23.003  1.00  0.00     0.140 A 
HETATM    6  C15 UNL     1      39.110  -1.738  23.110  1.00  0.00     0.093 A 
HETATM    7  C16 UNL     1      40.220  -0.933  23.293  1.00  0.00     0.263 A 
HETATM    8  O4  UNL     1      41.351  -1.424  23.343  1.00  0.00    -0.267 OA
HETATM    9  N13 UNL     1      40.097   0.423  23.422  1.00  0.00    -0.287 N 
ATOM     10  H13 UNL     1      40.936   0.987  23.557  1.00  0.00     0.172 HD
HETATM   11  C17 UNL     1      38.909   1.026  23.376  1.00  0.00     0.282 A 
HETATM   12  O5  UNL     1      38.840   2.283  23.499  1.00  0.00    -0.265 OA
HETATM   13  C18 UNL     1      37.751   0.324  23.199  1.00  0.00     0.148 A 
HETATM   14  C19 UNL     1      37.828  -1.051  23.065  1.00  0.00     0.058 A 
HETATM   15  C20 UNL     1      36.685  -1.794  22.913  1.00  0.00     0.113 A 
HETATM   16  C21 UNL     1      36.827  -3.156  22.812  1.00  0.00     0.146 A 
HETATM   17  C22 UNL     1      35.819  -4.219  22.592  1.00  0.00     0.251 A 
HETATM   18  O8  UNL     1      34.601  -4.015  22.505  1.00  0.00    -0.282 OA
ENDROOT
BRANCH   1  19
HETATM   19  N7  UNL     1      35.929  -6.742  22.297  1.00  0.00    -0.046 N 
HETATM   20  C4  UNL     1      36.377  -7.773  21.477  1.00  0.00     0.737 A 
HETATM   21  N4  UNL     1      35.514  -8.771  21.540  1.00  0.00    -0.113 N 
HETATM   22  N5  UNL     1      34.537  -8.425  22.356  1.00  0.00    -0.213 N 
ATOM     23  H4  UNL     1      35.590  -9.658  21.042  1.00  0.00     0.207 HD
HETATM   24  N6  UNL     1      34.811  -7.187  22.805  1.00  0.00    -0.205 N 
ATOM     25  H5  UNL     1      33.725  -8.992  22.602  1.00  0.00     0.210 HD
ATOM     26  H6  UNL     1      34.224  -6.665  23.455  1.00  0.00     0.211 HD
BRANCH  20  27
HETATM   27  N3  UNL     1      37.588  -7.571  20.782  1.00  0.00    -0.128 N 
HETATM   28  N2  UNL     1      38.567  -8.325  20.662  1.00  0.00    -0.280 N 
ATOM     29  H2  UNL     1      38.590  -9.251  21.089  1.00  0.00     0.188 HD
ATOM     30  H3  UNL     1      37.672  -6.672  20.307  1.00  0.00     0.205 HD
BRANCH  28  31
HETATM   31  C3  UNL     1      39.660  -7.822  19.891  1.00  0.00     0.221 C 
HETATM   32  N1  UNL     1      39.555  -7.455  18.690  1.00  0.00    -0.260 N 
ATOM     33  H1  UNL     1      40.425  -7.122  18.274  1.00  0.00     0.195 HD
BRANCH  32  34
HETATM   34  O1  UNL     1      38.511  -7.427  17.875  1.00  0.00    -0.265 OA
BRANCH  34  35
HETATM   35  C2  UNL     1      37.808  -6.263  17.421  1.00  0.00     0.237 C 
HETATM   36  C1  UNL     1      36.347  -6.601  17.566  1.00  0.00     0.052 C 
BRANCH  35  37
HETATM   37  C23 UNL     1      38.196  -5.100  18.236  1.00  0.00     0.262 C 
HETATM   38  N14 UNL     1      39.155  -4.175  17.758  1.00  0.00    -0.060 NA
HETATM   39  O9  UNL     1      37.661  -4.946  19.357  1.00  0.00    -0.274 OA
ENDBRANCH  35  37
ENDBRANCH  34  35
ENDBRANCH  32  34
ENDBRANCH  28  31
ENDBRANCH  20  27
ENDBRANCH   1  19
BRANCH   5  40
HETATM   40  N10 UNL     1      40.397  -3.800  23.256  1.00  0.00    -0.372 N 
ATOM     41  H10 UNL     1      41.071  -3.979  22.512  1.00  0.00     0.161 HD
BRANCH  40  42
HETATM   42  C7  UNL     1      40.646  -4.225  24.641  1.00  0.00     0.149 C 
BRANCH  42  43
HETATM   43  C8  UNL     1      40.517  -5.768  24.695  1.00  0.00     0.253 C 
BRANCH  43  44
HETATM   44  N11 UNL     1      39.914  -6.139  25.946  1.00  0.00    -0.062 N 
ATOM     45 2H11 UNL     1      39.232  -5.439  26.237  1.00  0.00     0.278 HD
ATOM     46 1H11 UNL     1      39.297  -6.942  25.822  1.00  0.00     0.278 HD
BRANCH  44  47
HETATM   47  C9  UNL     1      40.824  -6.379  26.960  1.00  0.00     0.264 C 
HETATM   48  C10 UNL     1      41.172  -7.823  27.226  1.00  0.00     0.056 C 
HETATM   49  N12 UNL     1      41.037  -8.961  26.415  1.00  0.00    -0.105 NA
HETATM   50  C11 UNL     1      41.671  -7.887  28.478  1.00  0.00     0.037 C 
HETATM   51  C12 UNL     1      41.673  -6.515  29.084  1.00  0.00     0.102 C 
HETATM   52  C13 UNL     1      41.564  -6.502  30.560  1.00  0.00     0.053 C 
HETATM   53  C14 UNL     1      40.382  -5.997  28.378  1.00  0.00     0.192 C 
BRANCH  51  54
HETATM   54  O2  UNL     1      42.684  -5.710  28.586  1.00  0.00    -0.383 OA
ATOM     55  H2  UNL     1      42.437  -4.794  28.544  1.00  0.00     0.211 HD
ENDBRANCH  51  54
BRANCH  53  56
HETATM   56  O3  UNL     1      39.313  -6.789  28.785  1.00  0.00    -0.390 OA
ATOM     57  H3  UNL     1      39.011  -6.523  29.646  1.00  0.00     0.210 HD
ENDBRANCH  53  56
ENDBRANCH  44  47
ENDBRANCH  43  44
ENDBRANCH  42  43
ENDBRANCH  40  42
ENDBRANCH   5  40
BRANCH  15  58
HETATM   58  O7  UNL     1      35.484  -1.163  22.871  1.00  0.00    -0.357 OA
ATOM     59  H7  UNL     1      34.829  -1.368  23.528  1.00  0.00     0.217 HD
ENDBRANCH  15  58
BRANCH  13  60
HETATM   60  O6  UNL     1      36.493   0.884  23.145  1.00  0.00    -0.355 OA
ATOM     61  H6  UNL     1      36.223   1.658  23.625  1.00  0.00     0.218 HD
ENDBRANCH  13  60
TORSDOF 15
ENDMDL
