MODEL 1
REMARK VINA RESULT: -7.278213342      0.000      0.000
REMARK  20 active torsions:
REMARK  status: ('A' for Active; 'I' for Inactive)
REMARK    1  A    between atoms: O1_2  and  C2_3 
REMARK    2  A    between atoms: C2_3  and  C3_5 
REMARK    3  A    between atoms: C5_9  and  O5_10 
REMARK    4  A    between atoms: C6_12  and  C7_13 
REMARK    5  A    between atoms: C8_15  and  N1_16 
REMARK    6  A    between atoms: N1_16  and  N2_18 
REMARK       I    between atoms: N3_23  and  C12_24 
REMARK    7  A    between atoms: C12_24  and  C13_26 
REMARK    8  A    between atoms: C13_26  and  C14_27 
REMARK    9  A    between atoms: C14_27  and  N4_28 
REMARK   10  A    between atoms: C15_30  and  O8_32 
REMARK   11  A    between atoms: O8_32  and  C16_33 
REMARK   12  A    between atoms: C17_35  and  C18_36 
REMARK   13  A    between atoms: C18_36  and  O10_37 
REMARK   14  A    between atoms: C18_36  and  C19_39 
REMARK   15  A    between atoms: C19_39  and  O11_40 
REMARK   16  A    between atoms: C20_42  and  O12_43 
REMARK   17  A    between atoms: C21_45  and  O13_46 
REMARK   18  A    between atoms: C22_48  and  O14_49 
REMARK   19  A    between atoms: C23_51  and  O15_52 
REMARK   20  A    between atoms: C24_54  and  O16_55 
ROOT
HETATM    1  C7  UNL     1      37.956   3.416  21.799  1.00  0.00     0.146 A 
HETATM    2  O6  UNL     1      37.655   3.067  20.568  1.00  0.00    -0.272 OA
HETATM    3  C8  UNL     1      38.771   2.672  19.946  1.00  0.00     0.255 A 
HETATM    4  N3  UNL     1      39.795   2.769  20.783  1.00  0.00    -0.222 N 
HETATM    5  C12 UNL     1      41.150   2.472  20.544  1.00  0.00     0.234 C 
HETATM    6  O7  UNL     1      41.628   2.052  19.453  1.00  0.00    -0.272 OA
HETATM    7  C23 UNL     1      39.290   3.241  21.972  1.00  0.00     0.188 A 
ENDROOT
BRANCH   3   8
HETATM    8  N1  UNL     1      38.688   2.300  18.758  1.00  0.00    -0.264 N 
ATOM      9  H1  UNL     1      38.460   3.102  18.171  1.00  0.00     0.190 HD
BRANCH   8  10
HETATM   10  N2  UNL     1      38.794   1.234  18.009  1.00  0.00    -0.307 N 
HETATM   11  C9  UNL     1      39.464   1.043  16.929  1.00  0.00    -0.004 C 
HETATM   12  C10 UNL     1      39.428  -0.277  16.244  1.00  0.00     0.064 C 
HETATM   13  C11 UNL     1      40.294   2.126  16.329  1.00  0.00     0.064 C 
ATOM     14  H2  UNL     1      38.260   0.427  18.333  1.00  0.00     0.186 HD
ENDBRANCH   8  10
ENDBRANCH   3   8
BRANCH   5  15
HETATM   15  C13 UNL     1      42.150   2.649  21.629  1.00  0.00     0.123 C 
BRANCH  15  16
HETATM   16  C14 UNL     1      42.624   1.311  22.184  1.00  0.00     0.132 C 
BRANCH  16  17
HETATM   17  N4  UNL     1      41.669   0.244  21.973  1.00  0.00    -0.358 N 
HETATM   18  C15 UNL     1      40.876  -0.056  22.934  1.00  0.00     0.229 C 
HETATM   19  N5  UNL     1      40.946   0.649  24.162  1.00  0.00    -0.056 NA
ATOM     20  H4  UNL     1      41.628  -0.255  21.085  1.00  0.00     0.162 HD
BRANCH  18  21
HETATM   21  O8  UNL     1      39.980  -1.079  22.695  1.00  0.00    -0.290 OA
BRANCH  21  22
HETATM   22  C16 UNL     1      38.743  -1.057  23.321  1.00  0.00     0.300 C 
HETATM   23  O9  UNL     1      38.760  -2.168  24.206  1.00  0.00    -0.347 OA
HETATM   24  C17 UNL     1      38.635  -3.347  23.433  1.00  0.00     0.186 C 
HETATM   25  C20 UNL     1      37.252  -3.510  22.861  1.00  0.00     0.181 C 
HETATM   26  C21 UNL     1      36.563  -2.149  23.059  1.00  0.00     0.183 C 
HETATM   27  C22 UNL     1      37.540  -1.137  22.452  1.00  0.00     0.205 C 
BRANCH  24  28
HETATM   28  C18 UNL     1      38.964  -4.516  24.311  1.00  0.00     0.173 C 
BRANCH  28  29
HETATM   29  O10 UNL     1      38.425  -5.699  23.745  1.00  0.00    -0.391 OA
ATOM     30  H10 UNL     1      38.970  -6.440  23.982  1.00  0.00     0.210 HD
ENDBRANCH  28  29
BRANCH  28  31
HETATM   31  C19 UNL     1      40.471  -4.704  24.490  1.00  0.00     0.198 C 
BRANCH  31  32
HETATM   32  O11 UNL     1      41.082  -3.733  23.686  1.00  0.00    -0.398 OA
ATOM     33  H11 UNL     1      41.090  -2.933  24.198  1.00  0.00     0.209 HD
ENDBRANCH  31  32
ENDBRANCH  28  31
ENDBRANCH  24  28
BRANCH  25  34
HETATM   34  O12 UNL     1      37.311  -3.647  21.451  1.00  0.00    -0.390 OA
ATOM     35  H12 UNL     1      37.471  -4.552  21.211  1.00  0.00     0.210 HD
ENDBRANCH  25  34
BRANCH  26  36
HETATM   36  O13 UNL     1      35.374  -2.130  22.340  1.00  0.00    -0.390 OA
ATOM     37  H13 UNL     1      35.506  -1.651  21.530  1.00  0.00     0.210 HD
ENDBRANCH  26  36
BRANCH  27  38
HETATM   38  O14 UNL     1      36.808   0.076  22.435  1.00  0.00    -0.388 OA
ATOM     39  H14 UNL     1      35.967  -0.017  22.003  1.00  0.00     0.210 HD
ENDBRANCH  27  38
ENDBRANCH  21  22
ENDBRANCH  18  21
ENDBRANCH  16  17
ENDBRANCH  15  16
ENDBRANCH   5  15
BRANCH   7  40
HETATM   40  O15 UNL     1      40.092   3.457  23.090  1.00  0.00    -0.344 OA
ATOM     41  H15 UNL     1      40.503   4.253  23.409  1.00  0.00     0.219 HD
ENDBRANCH   7  40
BRANCH   1  42
HETATM   42  C6  UNL     1      36.929   3.893  22.735  1.00  0.00     0.078 A 
HETATM   43  C5  UNL     1      36.603   3.224  23.852  1.00  0.00     0.158 A 
HETATM   44  C4  UNL     1      35.568   3.676  24.691  1.00  0.00     0.323 A 
HETATM   45  O3  UNL     1      34.922   4.758  24.377  1.00  0.00    -0.264 OA
HETATM   46  O4  UNL     1      35.266   3.047  25.729  1.00  0.00    -0.257 OA
HETATM   47  C3  UNL     1      35.168   5.464  23.327  1.00  0.00     0.188 A 
HETATM   48  C24 UNL     1      36.192   5.056  22.454  1.00  0.00     0.122 A 
BRANCH  43  49
HETATM   49  O5  UNL     1      37.240   2.077  24.262  1.00  0.00    -0.355 OA
ATOM     50  H5  UNL     1      37.775   1.648  23.604  1.00  0.00     0.218 HD
ENDBRANCH  43  49
BRANCH  47  51
HETATM   51  C2  UNL     1      34.416   6.667  23.027  1.00  0.00     0.320 C 
HETATM   52  O2  UNL     1      33.173   6.655  23.176  1.00  0.00    -0.257 OA
BRANCH  51  53
HETATM   53  O1  UNL     1      35.067   7.822  22.577  1.00  0.00    -0.321 OA
HETATM   54  C1  UNL     1      34.363   8.643  21.659  1.00  0.00     0.213 C 
ENDBRANCH  51  53
ENDBRANCH  47  51
BRANCH  48  55
HETATM   55  O16 UNL     1      36.427   5.813  21.358  1.00  0.00    -0.357 OA
ATOM     56  H16 UNL     1      37.310   5.823  21.006  1.00  0.00     0.218 HD
ENDBRANCH  48  55
ENDBRANCH   1  42
TORSDOF 20
ENDMDL
MODEL 2
REMARK VINA RESULT: -7.117457161      3.022      7.919
REMARK  20 active torsions:
REMARK  status: ('A' for Active; 'I' for Inactive)
REMARK    1  A    between atoms: O1_2  and  C2_3 
REMARK    2  A    between atoms: C2_3  and  C3_5 
REMARK    3  A    between atoms: C5_9  and  O5_10 
REMARK    4  A    between atoms: C6_12  and  C7_13 
REMARK    5  A    between atoms: C8_15  and  N1_16 
REMARK    6  A    between atoms: N1_16  and  N2_18 
REMARK       I    between atoms: N3_23  and  C12_24 
REMARK    7  A    between atoms: C12_24  and  C13_26 
REMARK    8  A    between atoms: C13_26  and  C14_27 
REMARK    9  A    between atoms: C14_27  and  N4_28 
REMARK   10  A    between atoms: C15_30  and  O8_32 
REMARK   11  A    between atoms: O8_32  and  C16_33 
REMARK   12  A    between atoms: C17_35  and  C18_36 
REMARK   13  A    between atoms: C18_36  and  O10_37 
REMARK   14  A    between atoms: C18_36  and  C19_39 
REMARK   15  A    between atoms: C19_39  and  O11_40 
REMARK   16  A    between atoms: C20_42  and  O12_43 
REMARK   17  A    between atoms: C21_45  and  O13_46 
REMARK   18  A    between atoms: C22_48  and  O14_49 
REMARK   19  A    between atoms: C23_51  and  O15_52 
REMARK   20  A    between atoms: C24_54  and  O16_55 
ROOT
HETATM    1  C7  UNL     1      37.883  -0.513  22.596  1.00  0.00     0.146 A 
HETATM    2  O6  UNL     1      37.076   0.426  23.038  1.00  0.00    -0.272 OA
HETATM    3  C8  UNL     1      37.485   1.606  22.560  1.00  0.00     0.255 A 
HETATM    4  N3  UNL     1      38.561   1.423  21.807  1.00  0.00    -0.222 N 
HETATM    5  C12 UNL     1      39.322   2.389  21.122  1.00  0.00     0.234 C 
HETATM    6  O7  UNL     1      39.097   3.631  21.115  1.00  0.00    -0.272 OA
HETATM    7  C23 UNL     1      38.827   0.074  21.819  1.00  0.00     0.188 A 
ENDROOT
BRANCH   3   8
HETATM    8  N1  UNL     1      36.840   2.628  22.871  1.00  0.00    -0.264 N 
ATOM      9  H1  UNL     1      36.510   2.536  23.832  1.00  0.00     0.190 HD
BRANCH   8  10
HETATM   10  N2  UNL     1      36.444   3.776  22.388  1.00  0.00    -0.307 N 
HETATM   11  C9  UNL     1      35.730   4.700  22.926  1.00  0.00    -0.004 C 
HETATM   12  C10 UNL     1      35.404   5.937  22.167  1.00  0.00     0.064 C 
HETATM   13  C11 UNL     1      35.207   4.566  24.315  1.00  0.00     0.064 C 
ATOM     14  H2  UNL     1      36.750   3.969  21.434  1.00  0.00     0.186 HD
ENDBRANCH   8  10
ENDBRANCH   3   8
BRANCH   5  15
HETATM   15  C13 UNL     1      40.504   1.971  20.324  1.00  0.00     0.123 C 
BRANCH  15  16
HETATM   16  C14 UNL     1      40.215   2.002  18.827  1.00  0.00     0.132 C 
BRANCH  16  17
HETATM   17  N4  UNL     1      39.588   0.787  18.351  1.00  0.00    -0.358 N 
HETATM   18  C15 UNL     1      39.592   0.559  17.090  1.00  0.00     0.229 C 
HETATM   19  N5  UNL     1      40.200   1.481  16.201  1.00  0.00    -0.056 NA
ATOM     20  H4  UNL     1      39.154   0.131  19.001  1.00  0.00     0.162 HD
BRANCH  18  21
HETATM   21  O8  UNL     1      38.985  -0.609  16.674  1.00  0.00    -0.290 OA
BRANCH  21  22
HETATM   22  C16 UNL     1      39.771  -1.675  16.266  1.00  0.00     0.300 C 
HETATM   23  O9  UNL     1      38.979  -2.371  15.313  1.00  0.00    -0.347 OA
HETATM   24  C17 UNL     1      37.958  -3.060  16.011  1.00  0.00     0.186 C 
HETATM   25  C20 UNL     1      38.491  -4.232  16.792  1.00  0.00     0.181 C 
HETATM   26  C21 UNL     1      40.018  -4.054  16.808  1.00  0.00     0.183 C 
HETATM   27  C22 UNL     1      40.228  -2.624  17.314  1.00  0.00     0.205 C 
BRANCH  24  28
HETATM   28  C18 UNL     1      36.947  -3.532  15.009  1.00  0.00     0.173 C 
BRANCH  28  29
HETATM   29  O10 UNL     1      36.050  -4.436  15.633  1.00  0.00    -0.391 OA
ATOM     30  H10 UNL     1      35.394  -3.948  16.115  1.00  0.00     0.210 HD
ENDBRANCH  28  29
BRANCH  28  31
HETATM   31  C19 UNL     1      36.140  -2.379  14.410  1.00  0.00     0.198 C 
BRANCH  31  32
HETATM   32  O11 UNL     1      36.118  -2.597  13.026  1.00  0.00    -0.398 OA
ATOM     33  H11 UNL     1      35.862  -1.772  12.633  1.00  0.00     0.209 HD
ENDBRANCH  31  32
ENDBRANCH  28  31
ENDBRANCH  24  28
BRANCH  25  34
HETATM   34  O12 UNL     1      38.132  -4.121  18.159  1.00  0.00    -0.390 OA
ATOM     35  H12 UNL     1      38.868  -3.804  18.671  1.00  0.00     0.210 HD
ENDBRANCH  25  34
BRANCH  26  36
HETATM   36  O13 UNL     1      40.573  -4.950  17.714  1.00  0.00    -0.390 OA
ATOM     37  H13 UNL     1      40.486  -5.832  17.373  1.00  0.00     0.210 HD
ENDBRANCH  26  36
BRANCH  27  38
HETATM   38  O14 UNL     1      41.625  -2.544  17.538  1.00  0.00    -0.388 OA
ATOM     39  H14 UNL     1      41.940  -1.648  17.537  1.00  0.00     0.210 HD
ENDBRANCH  27  38
ENDBRANCH  21  22
ENDBRANCH  18  21
ENDBRANCH  16  17
ENDBRANCH  15  16
ENDBRANCH   5  15
BRANCH   7  40
HETATM   40  O15 UNL     1      39.894  -0.482  21.118  1.00  0.00    -0.344 OA
ATOM     41  H15 UNL     1      39.908  -0.967  20.300  1.00  0.00     0.219 HD
ENDBRANCH   7  40
BRANCH   1  42
HETATM   42  C6  UNL     1      37.685  -1.925  22.951  1.00  0.00     0.078 A 
HETATM   43  C5  UNL     1      36.492  -2.534  22.855  1.00  0.00     0.158 A 
HETATM   44  C4  UNL     1      36.326  -3.869  23.266  1.00  0.00     0.323 A 
HETATM   45  O3  UNL     1      37.344  -4.519  23.743  1.00  0.00    -0.264 OA
HETATM   46  O4  UNL     1      35.212  -4.431  23.178  1.00  0.00    -0.257 OA
HETATM   47  C3  UNL     1      38.524  -4.016  23.870  1.00  0.00     0.188 A 
HETATM   48  C24 UNL     1      38.745  -2.684  23.475  1.00  0.00     0.122 A 
BRANCH  43  49
HETATM   49  O5  UNL     1      35.368  -1.923  22.354  1.00  0.00    -0.355 OA
ATOM     50  H5  UNL     1      35.175  -1.064  22.711  1.00  0.00     0.218 HD
ENDBRANCH  43  49
BRANCH  47  51
HETATM   51  C2  UNL     1      39.627  -4.789  24.407  1.00  0.00     0.320 C 
HETATM   52  O2  UNL     1      40.727  -4.768  23.807  1.00  0.00    -0.257 OA
BRANCH  51  53
HETATM   53  O1  UNL     1      39.467  -5.546  25.574  1.00  0.00    -0.321 OA
HETATM   54  C1  UNL     1      40.647  -6.022  26.201  1.00  0.00     0.213 C 
ENDBRANCH  51  53
ENDBRANCH  47  51
BRANCH  48  55
HETATM   55  O16 UNL     1      39.992  -2.180  23.621  1.00  0.00    -0.357 OA
ATOM     56  H16 UNL     1      40.531  -2.095  22.843  1.00  0.00     0.218 HD
ENDBRANCH  48  55
ENDBRANCH   1  42
TORSDOF 20
ENDMDL
MODEL 3
REMARK VINA RESULT: -7.075360780      2.239      3.710
REMARK  20 active torsions:
REMARK  status: ('A' for Active; 'I' for Inactive)
REMARK    1  A    between atoms: O1_2  and  C2_3 
REMARK    2  A    between atoms: C2_3  and  C3_5 
REMARK    3  A    between atoms: C5_9  and  O5_10 
REMARK    4  A    between atoms: C6_12  and  C7_13 
REMARK    5  A    between atoms: C8_15  and  N1_16 
REMARK    6  A    between atoms: N1_16  and  N2_18 
REMARK       I    between atoms: N3_23  and  C12_24 
REMARK    7  A    between atoms: C12_24  and  C13_26 
REMARK    8  A    between atoms: C13_26  and  C14_27 
REMARK    9  A    between atoms: C14_27  and  N4_28 
REMARK   10  A    between atoms: C15_30  and  O8_32 
REMARK   11  A    between atoms: O8_32  and  C16_33 
REMARK   12  A    between atoms: C17_35  and  C18_36 
REMARK   13  A    between atoms: C18_36  and  O10_37 
REMARK   14  A    between atoms: C18_36  and  C19_39 
REMARK   15  A    between atoms: C19_39  and  O11_40 
REMARK   16  A    between atoms: C20_42  and  O12_43 
REMARK   17  A    between atoms: C21_45  and  O13_46 
REMARK   18  A    between atoms: C22_48  and  O14_49 
REMARK   19  A    between atoms: C23_51  and  O15_52 
REMARK   20  A    between atoms: C24_54  and  O16_55 
ROOT
HETATM    1  C7  UNL     1      38.450   1.341  22.813  1.00  0.00     0.146 A 
HETATM    2  O6  UNL     1      38.544   0.993  21.549  1.00  0.00    -0.272 OA
HETATM    3  C8  UNL     1      39.432  -0.001  21.440  1.00  0.00     0.255 A 
HETATM    4  N3  UNL     1      39.911  -0.292  22.642  1.00  0.00    -0.222 N 
HETATM    5  C12 UNL     1      40.873  -1.260  22.988  1.00  0.00     0.234 C 
HETATM    6  O7  UNL     1      41.459  -2.033  22.180  1.00  0.00    -0.272 OA
HETATM    7  C23 UNL     1      39.292   0.555  23.530  1.00  0.00     0.188 A 
ENDROOT
BRANCH   3   8
HETATM    8  N1  UNL     1      39.661  -0.470  20.307  1.00  0.00    -0.264 N 
ATOM      9  H1  UNL     1      38.855  -1.015  20.000  1.00  0.00     0.190 HD
BRANCH   8  10
HETATM   10  N2  UNL     1      40.581  -0.502  19.379  1.00  0.00    -0.307 N 
HETATM   11  C9  UNL     1      40.656   0.132  18.263  1.00  0.00    -0.004 C 
HETATM   12  C10 UNL     1      41.818  -0.073  17.357  1.00  0.00     0.064 C 
HETATM   13  C11 UNL     1      39.591   1.085  17.840  1.00  0.00     0.064 C 
ATOM     14  H2  UNL     1      41.363  -1.129  19.570  1.00  0.00     0.186 HD
ENDBRANCH   8  10
ENDBRANCH   3   8
BRANCH   5  15
HETATM   15  C13 UNL     1      41.275  -1.430  24.408  1.00  0.00     0.123 C 
BRANCH  15  16
HETATM   16  C14 UNL     1      41.310  -2.900  24.813  1.00  0.00     0.132 C 
BRANCH  16  17
HETATM   17  N4  UNL     1      40.204  -3.659  24.268  1.00  0.00    -0.358 N 
HETATM   18  C15 UNL     1      40.240  -4.936  24.370  1.00  0.00     0.229 C 
HETATM   19  N5  UNL     1      41.339  -5.570  25.003  1.00  0.00    -0.056 NA
ATOM     20  H4  UNL     1      39.419  -3.191  23.815  1.00  0.00     0.162 HD
BRANCH  18  21
HETATM   21  O8  UNL     1      39.169  -5.626  23.838  1.00  0.00    -0.290 OA
BRANCH  21  22
HETATM   22  C16 UNL     1      38.970  -5.617  22.466  1.00  0.00     0.300 C 
HETATM   23  O9  UNL     1      38.447  -4.327  22.180  1.00  0.00    -0.347 OA
HETATM   24  C17 UNL     1      37.106  -4.287  22.633  1.00  0.00     0.186 C 
HETATM   25  C20 UNL     1      36.189  -5.120  21.776  1.00  0.00     0.181 C 
HETATM   26  C21 UNL     1      37.115  -5.984  20.904  1.00  0.00     0.183 C 
HETATM   27  C22 UNL     1      38.064  -6.652  21.903  1.00  0.00     0.205 C 
BRANCH  24  28
HETATM   28  C18 UNL     1      36.654  -2.858  22.622  1.00  0.00     0.173 C 
BRANCH  28  29
HETATM   29  O10 UNL     1      35.269  -2.802  22.322  1.00  0.00    -0.391 OA
ATOM     30  H10 UNL     1      35.065  -3.440  21.649  1.00  0.00     0.210 HD
ENDBRANCH  28  29
BRANCH  28  31
HETATM   31  C19 UNL     1      36.891  -2.163  23.964  1.00  0.00     0.198 C 
BRANCH  31  32
HETATM   32  O11 UNL     1      37.231  -3.175  24.872  1.00  0.00    -0.398 OA
ATOM     33  H11 UNL     1      36.525  -3.207  25.506  1.00  0.00     0.209 HD
ENDBRANCH  31  32
ENDBRANCH  28  31
ENDBRANCH  24  28
BRANCH  25  34
HETATM   34  O12 UNL     1      35.501  -6.073  22.569  1.00  0.00    -0.390 OA
ATOM     35  H12 UNL     1      35.064  -6.711  22.016  1.00  0.00     0.210 HD
ENDBRANCH  25  34
BRANCH  26  36
HETATM   36  O13 UNL     1      36.360  -6.958  20.263  1.00  0.00    -0.390 OA
ATOM     37  H13 UNL     1      36.944  -7.594  19.866  1.00  0.00     0.210 HD
ENDBRANCH  26  36
BRANCH  27  38
HETATM   38  O14 UNL     1      38.761  -7.609  21.124  1.00  0.00    -0.388 OA
ATOM     39  H14 UNL     1      38.612  -7.493  20.193  1.00  0.00     0.210 HD
ENDBRANCH  27  38
ENDBRANCH  21  22
ENDBRANCH  18  21
ENDBRANCH  16  17
ENDBRANCH  15  16
ENDBRANCH   5  15
BRANCH   7  40
HETATM   40  O15 UNL     1      39.551   0.522  24.898  1.00  0.00    -0.344 OA
ATOM     41  H15 UNL     1      40.310   0.815  25.389  1.00  0.00     0.219 HD
ENDBRANCH   7  40
BRANCH   1  42
HETATM   42  C6  UNL     1      37.542   2.412  23.249  1.00  0.00     0.078 A 
HETATM   43  C5  UNL     1      36.692   2.264  24.277  1.00  0.00     0.158 A 
HETATM   44  C4  UNL     1      35.792   3.288  24.624  1.00  0.00     0.323 A 
HETATM   45  O3  UNL     1      35.788   4.391  23.939  1.00  0.00    -0.264 OA
HETATM   46  O4  UNL     1      34.998   3.144  25.580  1.00  0.00    -0.257 OA
HETATM   47  C3  UNL     1      36.569   4.620  22.940  1.00  0.00     0.188 A 
HETATM   48  C24 UNL     1      37.489   3.629  22.550  1.00  0.00     0.122 A 
BRANCH  43  49
HETATM   49  O5  UNL     1      36.636   1.135  25.058  1.00  0.00    -0.355 OA
ATOM     50  H5  UNL     1      36.331   0.348  24.620  1.00  0.00     0.218 HD
ENDBRANCH  43  49
BRANCH  47  51
HETATM   51  C2  UNL     1      36.525   5.873  22.212  1.00  0.00     0.320 C 
HETATM   52  O2  UNL     1      35.409   6.357  21.912  1.00  0.00    -0.257 OA
BRANCH  51  53
HETATM   53  O1  UNL     1      37.706   6.530  21.848  1.00  0.00    -0.321 OA
HETATM   54  C1  UNL     1      38.341   7.314  22.847  1.00  0.00     0.213 C 
ENDBRANCH  51  53
ENDBRANCH  47  51
BRANCH  48  55
HETATM   55  O16 UNL     1      38.294   3.894  21.496  1.00  0.00    -0.357 OA
ATOM     56  H16 UNL     1      39.144   3.469  21.469  1.00  0.00     0.218 HD
ENDBRANCH  48  55
ENDBRANCH   1  42
TORSDOF 20
ENDMDL
MODEL 4
REMARK VINA RESULT: -7.056576739      4.106      6.549
REMARK  20 active torsions:
REMARK  status: ('A' for Active; 'I' for Inactive)
REMARK    1  A    between atoms: O1_2  and  C2_3 
REMARK    2  A    between atoms: C2_3  and  C3_5 
REMARK    3  A    between atoms: C5_9  and  O5_10 
REMARK    4  A    between atoms: C6_12  and  C7_13 
REMARK    5  A    between atoms: C8_15  and  N1_16 
REMARK    6  A    between atoms: N1_16  and  N2_18 
REMARK       I    between atoms: N3_23  and  C12_24 
REMARK    7  A    between atoms: C12_24  and  C13_26 
REMARK    8  A    between atoms: C13_26  and  C14_27 
REMARK    9  A    between atoms: C14_27  and  N4_28 
REMARK   10  A    between atoms: C15_30  and  O8_32 
REMARK   11  A    between atoms: O8_32  and  C16_33 
REMARK   12  A    between atoms: C17_35  and  C18_36 
REMARK   13  A    between atoms: C18_36  and  O10_37 
REMARK   14  A    between atoms: C18_36  and  C19_39 
REMARK   15  A    between atoms: C19_39  and  O11_40 
REMARK   16  A    between atoms: C20_42  and  O12_43 
REMARK   17  A    between atoms: C21_45  and  O13_46 
REMARK   18  A    between atoms: C22_48  and  O14_49 
REMARK   19  A    between atoms: C23_51  and  O15_52 
REMARK   20  A    between atoms: C24_54  and  O16_55 
ROOT
HETATM    1  C7  UNL     1      37.427  -0.134  23.572  1.00  0.00     0.146 A 
HETATM    2  O6  UNL     1      36.572  -1.016  23.102  1.00  0.00    -0.272 OA
HETATM    3  C8  UNL     1      37.175  -2.208  23.038  1.00  0.00     0.255 A 
HETATM    4  N3  UNL     1      38.424  -2.091  23.469  1.00  0.00    -0.222 N 
HETATM    5  C12 UNL     1      39.414  -3.087  23.560  1.00  0.00     0.234 C 
HETATM    6  O7  UNL     1      39.270  -4.298  23.232  1.00  0.00    -0.272 OA
HETATM    7  C23 UNL     1      38.599  -0.772  23.815  1.00  0.00     0.188 A 
ENDROOT
BRANCH   3   8
HETATM    8  N1  UNL     1      36.520  -3.181  22.613  1.00  0.00    -0.264 N 
ATOM      9  H1  UNL     1      36.872  -3.445  21.692  1.00  0.00     0.190 HD
BRANCH   8  10
HETATM   10  N2  UNL     1      35.538  -3.979  22.944  1.00  0.00    -0.307 N 
HETATM   11  C9  UNL     1      35.431  -5.255  22.827  1.00  0.00    -0.004 C 
HETATM   12  C10 UNL     1      34.198  -5.951  23.281  1.00  0.00     0.064 C 
HETATM   13  C11 UNL     1      36.527  -6.074  22.236  1.00  0.00     0.064 C 
ATOM     14  H2  UNL     1      34.731  -3.516  23.361  1.00  0.00     0.186 HD
ENDBRANCH   8  10
ENDBRANCH   3   8
BRANCH   5  15
HETATM   15  C13 UNL     1      40.765  -2.744  24.077  1.00  0.00     0.123 C 
BRANCH  15  16
HETATM   16  C14 UNL     1      41.654  -3.977  24.192  1.00  0.00     0.132 C 
BRANCH  16  17
HETATM   17  N4  UNL     1      41.451  -4.704  25.427  1.00  0.00    -0.358 N 
HETATM   18  C15 UNL     1      42.481  -5.004  26.128  1.00  0.00     0.229 C 
HETATM   19  N5  UNL     1      43.776  -4.624  25.691  1.00  0.00    -0.056 NA
ATOM     20  H4  UNL     1      40.515  -4.971  25.730  1.00  0.00     0.162 HD
BRANCH  18  21
HETATM   21  O8  UNL     1      42.247  -5.698  27.299  1.00  0.00    -0.290 OA
BRANCH  21  22
HETATM   22  C16 UNL     1      40.953  -5.791  27.785  1.00  0.00     0.300 C 
HETATM   23  O9  UNL     1      41.086  -5.720  29.198  1.00  0.00    -0.347 OA
HETATM   24  C17 UNL     1      41.618  -6.952  29.651  1.00  0.00     0.186 C 
HETATM   25  C20 UNL     1      40.621  -8.075  29.553  1.00  0.00     0.181 C 
HETATM   26  C21 UNL     1      39.478  -7.534  28.679  1.00  0.00     0.183 C 
HETATM   27  C22 UNL     1      40.177  -7.005  27.423  1.00  0.00     0.205 C 
BRANCH  24  28
HETATM   28  C18 UNL     1      42.050  -6.775  31.075  1.00  0.00     0.173 C 
BRANCH  28  29
HETATM   29  O10 UNL     1      42.295  -8.046  31.656  1.00  0.00    -0.391 OA
ATOM     30  H10 UNL     1      41.613  -8.241  32.288  1.00  0.00     0.210 HD
ENDBRANCH  28  29
BRANCH  28  31
HETATM   31  C19 UNL     1      43.319  -5.930  31.198  1.00  0.00     0.198 C 
BRANCH  31  32
HETATM   32  O11 UNL     1      42.998  -4.668  30.681  1.00  0.00    -0.398 OA
ATOM     33  H11 UNL     1      43.266  -4.681  29.770  1.00  0.00     0.209 HD
ENDBRANCH  31  32
ENDBRANCH  28  31
ENDBRANCH  24  28
BRANCH  25  34
HETATM   34  O12 UNL     1      41.148  -9.141  28.782  1.00  0.00    -0.390 OA
ATOM     35  H12 UNL     1      41.390  -8.836  27.915  1.00  0.00     0.210 HD
ENDBRANCH  25  34
BRANCH  26  36
HETATM   36  O13 UNL     1      38.633  -8.581  28.331  1.00  0.00    -0.390 OA
ATOM     37  H13 UNL     1      38.938  -8.972  27.520  1.00  0.00     0.210 HD
ENDBRANCH  26  36
BRANCH  27  38
HETATM   38  O14 UNL     1      39.110  -6.717  26.535  1.00  0.00    -0.388 OA
ATOM     39  H14 UNL     1      39.024  -7.370  25.851  1.00  0.00     0.210 HD
ENDBRANCH  27  38
ENDBRANCH  21  22
ENDBRANCH  18  21
ENDBRANCH  16  17
ENDBRANCH  15  16
ENDBRANCH   5  15
BRANCH   7  40
HETATM   40  O15 UNL     1      39.803  -0.287  24.322  1.00  0.00    -0.344 OA
ATOM     41  H15 UNL     1      40.251  -0.482  25.137  1.00  0.00     0.219 HD
ENDBRANCH   7  40
BRANCH   1  42
HETATM   42  C6  UNL     1      37.051   1.274  23.762  1.00  0.00     0.078 A 
HETATM   43  C5  UNL     1      36.228   1.676  24.743  1.00  0.00     0.158 A 
HETATM   44  C4  UNL     1      35.838   3.023  24.853  1.00  0.00     0.323 A 
HETATM   45  O3  UNL     1      36.284   3.887  23.993  1.00  0.00    -0.264 OA
HETATM   46  O4  UNL     1      35.069   3.392  25.767  1.00  0.00    -0.257 OA
HETATM   47  C3  UNL     1      37.078   3.592  23.021  1.00  0.00     0.188 A 
HETATM   48  C24 UNL     1      37.498   2.258  22.864  1.00  0.00     0.122 A 
BRANCH  43  49
HETATM   49  O5  UNL     1      35.719   0.831  25.699  1.00  0.00    -0.355 OA
ATOM     50  H5  UNL     1      36.324   0.179  26.034  1.00  0.00     0.218 HD
ENDBRANCH  43  49
BRANCH  47  51
HETATM   51  C2  UNL     1      37.548   4.598  22.089  1.00  0.00     0.320 C 
HETATM   52  O2  UNL     1      36.738   5.457  21.671  1.00  0.00    -0.257 OA
BRANCH  51  53
HETATM   53  O1  UNL     1      38.881   4.610  21.664  1.00  0.00    -0.321 OA
HETATM   54  C1  UNL     1      39.826   5.229  22.522  1.00  0.00     0.213 C 
ENDBRANCH  51  53
ENDBRANCH  47  51
BRANCH  48  55
HETATM   55  O16 UNL     1      38.328   1.974  21.834  1.00  0.00    -0.357 OA
ATOM     56  H16 UNL     1      38.032   1.347  21.185  1.00  0.00     0.218 HD
ENDBRANCH  48  55
ENDBRANCH   1  42
TORSDOF 20
ENDMDL
MODEL 5
REMARK VINA RESULT: -6.988770107      3.080      7.627
REMARK  20 active torsions:
REMARK  status: ('A' for Active; 'I' for Inactive)
REMARK    1  A    between atoms: O1_2  and  C2_3 
REMARK    2  A    between atoms: C2_3  and  C3_5 
REMARK    3  A    between atoms: C5_9  and  O5_10 
REMARK    4  A    between atoms: C6_12  and  C7_13 
REMARK    5  A    between atoms: C8_15  and  N1_16 
REMARK    6  A    between atoms: N1_16  and  N2_18 
REMARK       I    between atoms: N3_23  and  C12_24 
REMARK    7  A    between atoms: C12_24  and  C13_26 
REMARK    8  A    between atoms: C13_26  and  C14_27 
REMARK    9  A    between atoms: C14_27  and  N4_28 
REMARK   10  A    between atoms: C15_30  and  O8_32 
REMARK   11  A    between atoms: O8_32  and  C16_33 
REMARK   12  A    between atoms: C17_35  and  C18_36 
REMARK   13  A    between atoms: C18_36  and  O10_37 
REMARK   14  A    between atoms: C18_36  and  C19_39 
REMARK   15  A    between atoms: C19_39  and  O11_40 
REMARK   16  A    between atoms: C20_42  and  O12_43 
REMARK   17  A    between atoms: C21_45  and  O13_46 
REMARK   18  A    between atoms: C22_48  and  O14_49 
REMARK   19  A    between atoms: C23_51  and  O15_52 
REMARK   20  A    between atoms: C24_54  and  O16_55 
ROOT
HETATM    1  C7  UNL     1      38.125  -0.210  22.567  1.00  0.00     0.146 A 
HETATM    2  O6  UNL     1      37.295   0.706  23.013  1.00  0.00    -0.272 OA
HETATM    3  C8  UNL     1      37.617   1.883  22.466  1.00  0.00     0.255 A 
HETATM    4  N3  UNL     1      38.661   1.721  21.663  1.00  0.00    -0.222 N 
HETATM    5  C12 UNL     1      39.334   2.692  20.900  1.00  0.00     0.234 C 
HETATM    6  O7  UNL     1      39.045   3.921  20.854  1.00  0.00    -0.272 OA
HETATM    7  C23 UNL     1      38.995   0.389  21.716  1.00  0.00     0.188 A 
ENDROOT
BRANCH   3   8
HETATM    8  N1  UNL     1      36.938   2.884  22.771  1.00  0.00    -0.264 N 
ATOM      9  H1  UNL     1      36.532   2.745  23.696  1.00  0.00     0.190 HD
BRANCH   8  10
HETATM   10  N2  UNL     1      36.569   4.050  22.309  1.00  0.00    -0.307 N 
HETATM   11  C9  UNL     1      35.788   4.935  22.821  1.00  0.00    -0.004 C 
HETATM   12  C10 UNL     1      35.514   6.205  22.097  1.00  0.00     0.064 C 
HETATM   13  C11 UNL     1      35.135   4.721  24.143  1.00  0.00     0.064 C 
ATOM     14  H2  UNL     1      36.962   4.297  21.401  1.00  0.00     0.186 HD
ENDBRANCH   8  10
ENDBRANCH   3   8
BRANCH   5  15
HETATM   15  C13 UNL     1      40.492   2.299  20.055  1.00  0.00     0.123 C 
BRANCH  15  16
HETATM   16  C14 UNL     1      40.120   2.237  18.578  1.00  0.00     0.132 C 
BRANCH  16  17
HETATM   17  N4  UNL     1      39.538   0.968  18.198  1.00  0.00    -0.358 N 
HETATM   18  C15 UNL     1      39.460   0.688  16.949  1.00  0.00     0.229 C 
HETATM   19  N5  UNL     1      39.937   1.609  15.982  1.00  0.00    -0.056 NA
ATOM     20  H4  UNL     1      39.200   0.313  18.903  1.00  0.00     0.162 HD
BRANCH  18  21
HETATM   21  O8  UNL     1      38.900  -0.531  16.626  1.00  0.00    -0.290 OA
BRANCH  21  22
HETATM   22  C16 UNL     1      39.722  -1.567  16.211  1.00  0.00     0.300 C 
HETATM   23  O9  UNL     1      38.942  -2.301  15.276  1.00  0.00    -0.347 OA
HETATM   24  C17 UNL     1      37.962  -3.026  15.997  1.00  0.00     0.186 C 
HETATM   25  C20 UNL     1      38.555  -4.170  16.775  1.00  0.00     0.181 C 
HETATM   26  C21 UNL     1      40.074  -3.930  16.763  1.00  0.00     0.183 C 
HETATM   27  C22 UNL     1      40.235  -2.489  17.256  1.00  0.00     0.205 C 
BRANCH  24  28
HETATM   28  C18 UNL     1      36.954  -3.545  15.016  1.00  0.00     0.173 C 
BRANCH  28  29
HETATM   29  O10 UNL     1      36.078  -4.448  15.671  1.00  0.00    -0.391 OA
ATOM     30  H10 UNL     1      36.353  -5.340  15.495  1.00  0.00     0.210 HD
ENDBRANCH  28  29
BRANCH  28  31
HETATM   31  C19 UNL     1      36.121  -2.426  14.389  1.00  0.00     0.198 C 
BRANCH  31  32
HETATM   32  O11 UNL     1      36.120  -2.667  13.009  1.00  0.00    -0.398 OA
ATOM     33  H11 UNL     1      36.729  -2.043  12.632  1.00  0.00     0.209 HD
ENDBRANCH  31  32
ENDBRANCH  28  31
ENDBRANCH  24  28
BRANCH  25  34
HETATM   34  O12 UNL     1      38.216  -4.064  18.148  1.00  0.00    -0.390 OA
ATOM     35  H12 UNL     1      37.803  -4.865  18.450  1.00  0.00     0.210 HD
ENDBRANCH  25  34
BRANCH  26  36
HETATM   36  O13 UNL     1      40.681  -4.796  17.665  1.00  0.00    -0.390 OA
ATOM     37  H13 UNL     1      41.144  -5.472  17.185  1.00  0.00     0.210 HD
ENDBRANCH  26  36
BRANCH  27  38
HETATM   38  O14 UNL     1      41.631  -2.351  17.455  1.00  0.00    -0.388 OA
ATOM     39  H14 UNL     1      42.130  -3.007  16.982  1.00  0.00     0.210 HD
ENDBRANCH  27  38
ENDBRANCH  21  22
ENDBRANCH  18  21
ENDBRANCH  16  17
ENDBRANCH  15  16
ENDBRANCH   5  15
BRANCH   7  40
HETATM   40  O15 UNL     1      40.052  -0.145  20.981  1.00  0.00    -0.344 OA
ATOM     41  H15 UNL     1      40.507  -0.974  21.069  1.00  0.00     0.219 HD
ENDBRANCH   7  40
BRANCH   1  42
HETATM   42  C6  UNL     1      38.019  -1.614  22.989  1.00  0.00     0.078 A 
HETATM   43  C5  UNL     1      39.043  -2.281  23.545  1.00  0.00     0.158 A 
HETATM   44  C4  UNL     1      38.924  -3.643  23.875  1.00  0.00     0.323 A 
HETATM   45  O3  UNL     1      37.806  -4.260  23.640  1.00  0.00    -0.264 OA
HETATM   46  O4  UNL     1      39.882  -4.261  24.390  1.00  0.00    -0.257 OA
HETATM   47  C3  UNL     1      36.772  -3.700  23.112  1.00  0.00     0.188 A 
HETATM   48  C24 UNL     1      36.837  -2.339  22.761  1.00  0.00     0.122 A 
BRANCH  43  49
HETATM   49  O5  UNL     1      40.255  -1.703  23.835  1.00  0.00    -0.355 OA
ATOM     50  H5  UNL     1      40.991  -2.301  23.892  1.00  0.00     0.218 HD
ENDBRANCH  43  49
BRANCH  47  51
HETATM   51  C2  UNL     1      35.547  -4.437  22.873  1.00  0.00     0.320 C 
HETATM   52  O2  UNL     1      34.491  -3.797  22.655  1.00  0.00    -0.257 OA
BRANCH  51  53
HETATM   53  O1  UNL     1      35.541  -5.836  22.886  1.00  0.00    -0.321 OA
HETATM   54  C1  UNL     1      34.363  -6.472  23.356  1.00  0.00     0.213 C 
ENDBRANCH  51  53
ENDBRANCH  47  51
BRANCH  48  55
HETATM   55  O16 UNL     1      35.739  -1.777  22.206  1.00  0.00    -0.357 OA
ATOM     56  H16 UNL     1      34.898  -2.188  22.371  1.00  0.00     0.218 HD
ENDBRANCH  48  55
ENDBRANCH   1  42
TORSDOF 20
ENDMDL
