MODEL 1
REMARK VINA RESULT: -8.103486168      0.000      0.000
REMARK  18 active torsions:
REMARK  status: ('A' for Active; 'I' for Inactive)
REMARK    1  A    between atoms: O1_2  and  C2_3 
REMARK    2  A    between atoms: C2_3  and  O2_4 
REMARK    3  A    between atoms: C2_3  and  C3_6 
REMARK    4  A    between atoms: C3_6  and  S1_7 
REMARK    5  A    between atoms: S1_7  and  C4_8 
REMARK    6  A    between atoms: C7_12  and  O4_13 
REMARK    7  A    between atoms: O4_13  and  C8_14 
REMARK    8  A    between atoms: C9_16  and  C10_17 
REMARK    9  A    between atoms: C11_20  and  O8_21 
REMARK   10  A    between atoms: C12_23  and  O9_24 
REMARK   11  A    between atoms: C14_28  and  O11_29 
REMARK   12  A    between atoms: O11_29  and  C15_30 
REMARK   13  A    between atoms: C15_30  and  C16_32 
REMARK   14  A    between atoms: C17_33  and  C19_35 
REMARK   15  A    between atoms: C19_35  and  O13_36 
REMARK   16  A    between atoms: C19_35  and  O14_38 
REMARK   17  A    between atoms: C21_43  and  O17_44 
REMARK   18  A    between atoms: N1_48  and  O19_50 
ROOT
HETATM    1  C4  UNL     1      37.507  -6.202  18.646  1.00  0.00     0.149 A 
HETATM    2  O3  UNL     1      36.859  -6.610  19.709  1.00  0.00    -0.293 OA
HETATM    3  C5  UNL     1      37.262  -5.956  20.770  1.00  0.00     0.165 A 
HETATM    4  C6  UNL     1      38.245  -5.055  20.375  1.00  0.00     0.144 A 
HETATM    5  C7  UNL     1      38.408  -5.203  19.029  1.00  0.00     0.149 A 
HETATM    6  O10 UNL     1      38.890  -4.200  21.250  1.00  0.00    -0.329 OA
HETATM    7  C13 UNL     1      38.733  -3.762  22.558  1.00  0.00     0.258 C 
HETATM    8  C14 UNL     1      38.620  -2.226  22.454  1.00  0.00     0.314 C 
HETATM    9  O15 UNL     1      37.299  -2.168  21.880  1.00  0.00    -0.282 OA
HETATM   10  C20 UNL     1      36.513  -3.098  22.590  1.00  0.00     0.328 C 
HETATM   11  O16 UNL     1      35.270  -3.144  22.684  1.00  0.00    -0.259 OA
HETATM   12  C21 UNL     1      37.442  -4.053  23.232  1.00  0.00     0.291 C 
HETATM   13  O18 UNL     1      36.996  -5.382  23.201  1.00  0.00    -0.282 OA
HETATM   14  C22 UNL     1      36.725  -6.189  22.105  1.00  0.00     0.203 C 
HETATM   15  N1  UNL     1      35.951  -7.187  22.331  1.00  0.00    -0.245 N 
ATOM     16  H1  UNL     1      35.574  -7.352  23.264  1.00  0.00     0.196 HD
ENDROOT
BRANCH   5  17
HETATM   17  O4  UNL     1      39.294  -4.484  18.266  1.00  0.00    -0.311 OA
BRANCH  17  18
HETATM   18  C8  UNL     1      38.992  -3.945  17.017  1.00  0.00     0.299 C 
HETATM   19  O5  UNL     1      38.558  -2.628  17.075  1.00  0.00    -0.340 OA
HETATM   20  C9  UNL     1      39.650  -1.817  16.938  1.00  0.00     0.256 C 
HETATM   21  C11 UNL     1      40.715  -2.584  16.196  1.00  0.00     0.191 C 
HETATM   22  C12 UNL     1      40.141  -3.975  16.041  1.00  0.00     0.205 C 
BRANCH  20  23
HETATM   23  C10 UNL     1      39.277  -0.551  16.281  1.00  0.00     0.206 C 
HETATM   24  O6  UNL     1      40.017   0.469  16.283  1.00  0.00    -0.646 OA
HETATM   25  O7  UNL     1      38.059  -0.458  15.629  1.00  0.00    -0.646 OA
ENDBRANCH  20  23
BRANCH  21  26
HETATM   26  O8  UNL     1      41.059  -2.005  14.988  1.00  0.00    -0.390 OA
ATOM     27  H8  UNL     1      41.363  -1.109  15.077  1.00  0.00     0.210 HD
ENDBRANCH  21  26
BRANCH  22  28
HETATM   28  O9  UNL     1      39.642  -4.170  14.763  1.00  0.00    -0.388 OA
ATOM     29  H9  UNL     1      39.896  -5.034  14.461  1.00  0.00     0.210 HD
ENDBRANCH  22  28
ENDBRANCH  17  18
ENDBRANCH   5  17
BRANCH   1  30
HETATM   30  S1  UNL     1      37.352  -6.750  16.957  1.00  0.00    -0.097 SA
BRANCH  30  31
HETATM   31  C3  UNL     1      36.081  -5.757  16.149  1.00  0.00     0.141 C 
BRANCH  31  32
HETATM   32  C2  UNL     1      36.171  -5.834  14.647  1.00  0.00     0.265 C 
BRANCH  32  33
HETATM   33  O1  UNL     1      35.523  -4.754  14.040  1.00  0.00    -0.366 OA
HETATM   34  C1  UNL     1      36.118  -3.545  14.356  1.00  0.00     0.204 C 
ENDBRANCH  32  33
BRANCH  32  35
HETATM   35  O2  UNL     1      37.489  -5.912  14.211  1.00  0.00    -0.371 OA
ATOM     36  H2  UNL     1      38.082  -5.897  14.953  1.00  0.00     0.212 HD
ENDBRANCH  32  35
ENDBRANCH  31  32
ENDBRANCH  30  31
ENDBRANCH   1  30
BRANCH  15  37
HETATM   37  O19 UNL     1      35.640  -8.027  21.292  1.00  0.00    -0.288 OA
ATOM     38  H19 UNL     1      35.414  -8.929  21.487  1.00  0.00     0.244 HD
ENDBRANCH  15  37
BRANCH   8  39
HETATM   39  O11 UNL     1      38.585  -1.665  23.754  1.00  0.00    -0.283 OA
BRANCH  39  40
HETATM   40  C15 UNL     1      39.307  -0.490  24.059  1.00  0.00     0.285 C 
HETATM   41  O12 UNL     1      40.415  -0.714  24.584  1.00  0.00    -0.260 OA
BRANCH  40  42
HETATM   42  C16 UNL     1      38.778   0.817  23.775  1.00  0.00     0.089 C 
HETATM   43  C17 UNL     1      37.663   1.393  23.899  1.00  0.00    -0.024 C 
HETATM   44  C18 UNL     1      37.602   2.864  23.431  1.00  0.00     0.049 C 
BRANCH  43  45
HETATM   45  C19 UNL     1      36.400   0.899  24.425  1.00  0.00     0.284 C 
BRANCH  45  46
HETATM   46  O13 UNL     1      36.341   0.401  25.693  1.00  0.00    -0.367 OA
ATOM     47  H13 UNL     1      35.548  -0.025  25.997  1.00  0.00     0.213 HD
ENDBRANCH  45  46
BRANCH  45  48
HETATM   48  O14 UNL     1      35.878  -0.037  23.499  1.00  0.00    -0.367 OA
ATOM     49  H14 UNL     1      35.061  -0.372  23.850  1.00  0.00     0.213 HD
ENDBRANCH  45  48
ENDBRANCH  43  45
ENDBRANCH  40  42
ENDBRANCH  39  40
ENDBRANCH   8  39
BRANCH  12  50
HETATM   50  O17 UNL     1      37.612  -3.732  24.598  1.00  0.00    -0.355 OA
ATOM     51  H17 UNL     1      36.767  -3.851  25.015  1.00  0.00     0.213 HD
ENDBRANCH  12  50
TORSDOF 18
ENDMDL
MODEL 2
REMARK VINA RESULT: -7.771407893      1.168      1.972
REMARK  18 active torsions:
REMARK  status: ('A' for Active; 'I' for Inactive)
REMARK    1  A    between atoms: O1_2  and  C2_3 
REMARK    2  A    between atoms: C2_3  and  O2_4 
REMARK    3  A    between atoms: C2_3  and  C3_6 
REMARK    4  A    between atoms: C3_6  and  S1_7 
REMARK    5  A    between atoms: S1_7  and  C4_8 
REMARK    6  A    between atoms: C7_12  and  O4_13 
REMARK    7  A    between atoms: O4_13  and  C8_14 
REMARK    8  A    between atoms: C9_16  and  C10_17 
REMARK    9  A    between atoms: C11_20  and  O8_21 
REMARK   10  A    between atoms: C12_23  and  O9_24 
REMARK   11  A    between atoms: C14_28  and  O11_29 
REMARK   12  A    between atoms: O11_29  and  C15_30 
REMARK   13  A    between atoms: C15_30  and  C16_32 
REMARK   14  A    between atoms: C17_33  and  C19_35 
REMARK   15  A    between atoms: C19_35  and  O13_36 
REMARK   16  A    between atoms: C19_35  and  O14_38 
REMARK   17  A    between atoms: C21_43  and  O17_44 
REMARK   18  A    between atoms: N1_48  and  O19_50 
ROOT
HETATM    1  C4  UNL     1      37.568  -6.120  18.833  1.00  0.00     0.149 A 
HETATM    2  O3  UNL     1      36.904  -6.498  19.898  1.00  0.00    -0.293 OA
HETATM    3  C5  UNL     1      37.281  -5.804  20.943  1.00  0.00     0.165 A 
HETATM    4  C6  UNL     1      38.262  -4.907  20.535  1.00  0.00     0.144 A 
HETATM    5  C7  UNL     1      38.452  -5.098  19.198  1.00  0.00     0.149 A 
HETATM    6  O10 UNL     1      38.882  -4.016  21.392  1.00  0.00    -0.329 OA
HETATM    7  C13 UNL     1      38.697  -3.535  22.681  1.00  0.00     0.258 C 
HETATM    8  C14 UNL     1      38.570  -2.005  22.523  1.00  0.00     0.314 C 
HETATM    9  O15 UNL     1      37.260  -1.981  21.923  1.00  0.00    -0.282 OA
HETATM   10  C20 UNL     1      36.470  -2.894  22.649  1.00  0.00     0.328 C 
HETATM   11  O16 UNL     1      35.226  -2.949  22.722  1.00  0.00    -0.259 OA
HETATM   12  C21 UNL     1      37.396  -3.816  23.341  1.00  0.00     0.291 C 
HETATM   13  O18 UNL     1      36.963  -5.150  23.347  1.00  0.00    -0.282 OA
HETATM   14  C22 UNL     1      36.720  -5.997  22.274  1.00  0.00     0.203 C 
HETATM   15  N1  UNL     1      35.952  -6.995  22.520  1.00  0.00    -0.245 N 
ATOM     16  H1  UNL     1      35.560  -7.132  23.451  1.00  0.00     0.196 HD
ENDROOT
BRANCH   5  17
HETATM   17  O4  UNL     1      39.345  -4.396  18.428  1.00  0.00    -0.311 OA
BRANCH  17  18
HETATM   18  C8  UNL     1      39.044  -3.858  17.178  1.00  0.00     0.299 C 
HETATM   19  O5  UNL     1      38.642  -2.530  17.233  1.00  0.00    -0.340 OA
HETATM   20  C9  UNL     1      39.752  -1.746  17.081  1.00  0.00     0.256 C 
HETATM   21  C11 UNL     1      40.791  -2.542  16.334  1.00  0.00     0.191 C 
HETATM   22  C12 UNL     1      40.183  -3.921  16.192  1.00  0.00     0.205 C 
BRANCH  20  23
HETATM   23  C10 UNL     1      39.402  -0.475  16.420  1.00  0.00     0.206 C 
HETATM   24  O6  UNL     1      40.123   0.556  16.489  1.00  0.00    -0.646 OA
HETATM   25  O7  UNL     1      38.231  -0.392  15.687  1.00  0.00    -0.646 OA
ENDBRANCH  20  23
BRANCH  21  26
HETATM   26  O8  UNL     1      41.138  -1.978  15.120  1.00  0.00    -0.390 OA
ATOM     27  H8  UNL     1      40.496  -1.353  14.802  1.00  0.00     0.210 HD
ENDBRANCH  21  26
BRANCH  22  28
HETATM   28  O9  UNL     1      39.669  -4.111  14.920  1.00  0.00    -0.388 OA
ATOM     29  H9  UNL     1      40.272  -3.742  14.285  1.00  0.00     0.210 HD
ENDBRANCH  22  28
ENDBRANCH  17  18
ENDBRANCH   5  17
BRANCH   1  30
HETATM   30  S1  UNL     1      37.450  -6.726  17.161  1.00  0.00    -0.097 SA
BRANCH  30  31
HETATM   31  C3  UNL     1      35.901  -7.634  16.990  1.00  0.00     0.141 C 
BRANCH  31  32
HETATM   32  C2  UNL     1      35.927  -8.944  17.733  1.00  0.00     0.265 C 
BRANCH  32  33
HETATM   33  O1  UNL     1      37.227  -9.450  17.831  1.00  0.00    -0.366 OA
HETATM   34  C1  UNL     1      37.461 -10.051  19.056  1.00  0.00     0.204 C 
ENDBRANCH  32  33
BRANCH  32  35
HETATM   35  O2  UNL     1      35.357  -8.835  18.997  1.00  0.00    -0.371 OA
ATOM     36  H2  UNL     1      35.012  -9.675  19.275  1.00  0.00     0.212 HD
ENDBRANCH  32  35
ENDBRANCH  31  32
ENDBRANCH  30  31
ENDBRANCH   1  30
BRANCH  15  37
HETATM   37  O19 UNL     1      35.669  -7.873  21.505  1.00  0.00    -0.288 OA
ATOM     38  H19 UNL     1      35.666  -7.552  20.612  1.00  0.00     0.244 HD
ENDBRANCH  15  37
BRANCH   8  39
HETATM   39  O11 UNL     1      38.506  -1.401  23.803  1.00  0.00    -0.283 OA
BRANCH  39  40
HETATM   40  C15 UNL     1      39.216  -0.212  24.082  1.00  0.00     0.285 C 
HETATM   41  O12 UNL     1      40.354  -0.416  24.547  1.00  0.00    -0.260 OA
BRANCH  40  42
HETATM   42  C16 UNL     1      38.644   1.085  23.840  1.00  0.00     0.089 C 
HETATM   43  C17 UNL     1      37.509   1.618  23.977  1.00  0.00    -0.024 C 
HETATM   44  C18 UNL     1      37.400   3.101  23.558  1.00  0.00     0.049 C 
BRANCH  43  45
HETATM   45  C19 UNL     1      36.261   1.064  24.478  1.00  0.00     0.284 C 
BRANCH  45  46
HETATM   46  O13 UNL     1      36.219   0.503  25.720  1.00  0.00    -0.367 OA
ATOM     47  H13 UNL     1      37.026   0.252  26.154  1.00  0.00     0.213 HD
ENDBRANCH  45  46
BRANCH  45  48
HETATM   48  O14 UNL     1      35.764   0.160  23.507  1.00  0.00    -0.367 OA
ATOM     49  H14 UNL     1      35.530  -0.647  23.951  1.00  0.00     0.213 HD
ENDBRANCH  45  48
ENDBRANCH  43  45
ENDBRANCH  40  42
ENDBRANCH  39  40
ENDBRANCH   8  39
BRANCH  12  50
HETATM   50  O17 UNL     1      37.537  -3.448  24.698  1.00  0.00    -0.355 OA
ATOM     51  H17 UNL     1      38.092  -4.103  25.105  1.00  0.00     0.213 HD
ENDBRANCH  12  50
TORSDOF 18
ENDMDL
MODEL 3
REMARK VINA RESULT: -7.739825845      0.963      1.235
REMARK  18 active torsions:
REMARK  status: ('A' for Active; 'I' for Inactive)
REMARK    1  A    between atoms: O1_2  and  C2_3 
REMARK    2  A    between atoms: C2_3  and  O2_4 
REMARK    3  A    between atoms: C2_3  and  C3_6 
REMARK    4  A    between atoms: C3_6  and  S1_7 
REMARK    5  A    between atoms: S1_7  and  C4_8 
REMARK    6  A    between atoms: C7_12  and  O4_13 
REMARK    7  A    between atoms: O4_13  and  C8_14 
REMARK    8  A    between atoms: C9_16  and  C10_17 
REMARK    9  A    between atoms: C11_20  and  O8_21 
REMARK   10  A    between atoms: C12_23  and  O9_24 
REMARK   11  A    between atoms: C14_28  and  O11_29 
REMARK   12  A    between atoms: O11_29  and  C15_30 
REMARK   13  A    between atoms: C15_30  and  C16_32 
REMARK   14  A    between atoms: C17_33  and  C19_35 
REMARK   15  A    between atoms: C19_35  and  O13_36 
REMARK   16  A    between atoms: C19_35  and  O14_38 
REMARK   17  A    between atoms: C21_43  and  O17_44 
REMARK   18  A    between atoms: N1_48  and  O19_50 
ROOT
HETATM    1  C4  UNL     1      37.627  -5.987  18.786  1.00  0.00     0.149 A 
HETATM    2  O3  UNL     1      36.949  -6.422  19.819  1.00  0.00    -0.293 OA
HETATM    3  C5  UNL     1      37.255  -5.734  20.890  1.00  0.00     0.165 A 
HETATM    4  C6  UNL     1      38.202  -4.779  20.535  1.00  0.00     0.144 A 
HETATM    5  C7  UNL     1      38.445  -4.931  19.201  1.00  0.00     0.149 A 
HETATM    6  O10 UNL     1      38.747  -3.877  21.430  1.00  0.00    -0.329 OA
HETATM    7  C13 UNL     1      38.495  -3.435  22.722  1.00  0.00     0.258 C 
HETATM    8  C14 UNL     1      38.295  -1.910  22.591  1.00  0.00     0.314 C 
HETATM    9  O15 UNL     1      37.006  -1.939  21.948  1.00  0.00    -0.282 OA
HETATM   10  C20 UNL     1      36.241  -2.908  22.628  1.00  0.00     0.328 C 
HETATM   11  O16 UNL     1      34.999  -3.027  22.658  1.00  0.00    -0.259 OA
HETATM   12  C21 UNL     1      37.189  -3.797  23.332  1.00  0.00     0.291 C 
HETATM   13  O18 UNL     1      36.826  -5.151  23.296  1.00  0.00    -0.282 OA
HETATM   14  C22 UNL     1      36.662  -5.985  22.198  1.00  0.00     0.203 C 
HETATM   15  N1  UNL     1      35.939  -7.026  22.397  1.00  0.00    -0.245 N 
ATOM     16  H1  UNL     1      35.524  -7.203  23.312  1.00  0.00     0.196 HD
ENDROOT
BRANCH   5  17
HETATM   17  O4  UNL     1      39.325  -4.168  18.476  1.00  0.00    -0.311 OA
BRANCH  17  18
HETATM   18  C8  UNL     1      39.043  -3.628  17.223  1.00  0.00     0.299 C 
HETATM   19  O5  UNL     1      38.734  -2.274  17.263  1.00  0.00    -0.340 OA
HETATM   20  C9  UNL     1      39.894  -1.572  17.083  1.00  0.00     0.256 C 
HETATM   21  C11 UNL     1      40.863  -2.449  16.332  1.00  0.00     0.191 C 
HETATM   22  C12 UNL     1      40.159  -3.784  16.221  1.00  0.00     0.205 C 
BRANCH  20  23
HETATM   23  C10 UNL     1      39.623  -0.290  16.407  1.00  0.00     0.206 C 
HETATM   24  O6  UNL     1      40.485   0.623  16.294  1.00  0.00    -0.646 OA
HETATM   25  O7  UNL     1      38.370  -0.059  15.867  1.00  0.00    -0.646 OA
ENDBRANCH  20  23
BRANCH  21  26
HETATM   26  O8  UNL     1      41.229  -1.929  15.105  1.00  0.00    -0.390 OA
ATOM     27  H8  UNL     1      41.305  -2.590  14.427  1.00  0.00     0.210 HD
ENDBRANCH  21  26
BRANCH  22  28
HETATM   28  O9  UNL     1      39.612  -3.956  14.960  1.00  0.00    -0.388 OA
ATOM     29  H9  UNL     1      39.680  -3.139  14.479  1.00  0.00     0.210 HD
ENDBRANCH  22  28
ENDBRANCH  17  18
ENDBRANCH   5  17
BRANCH   1  30
HETATM   30  S1  UNL     1      37.595  -6.561  17.098  1.00  0.00    -0.097 SA
BRANCH  30  31
HETATM   31  C3  UNL     1      36.077  -5.971  16.323  1.00  0.00     0.141 C 
BRANCH  31  32
HETATM   32  C2  UNL     1      36.350  -5.199  15.059  1.00  0.00     0.265 C 
BRANCH  32  33
HETATM   33  O1  UNL     1      36.494  -3.832  15.315  1.00  0.00    -0.366 OA
HETATM   34  C1  UNL     1      36.144  -3.057  14.223  1.00  0.00     0.204 C 
ENDBRANCH  32  33
BRANCH  32  35
HETATM   35  O2  UNL     1      37.468  -5.683  14.387  1.00  0.00    -0.371 OA
ATOM     36  H2  UNL     1      37.626  -6.589  14.625  1.00  0.00     0.212 HD
ENDBRANCH  32  35
ENDBRANCH  31  32
ENDBRANCH  30  31
ENDBRANCH   1  30
BRANCH  15  37
HETATM   37  O19 UNL     1      35.735  -7.894  21.356  1.00  0.00    -0.288 OA
ATOM     38  H19 UNL     1      35.651  -8.821  21.544  1.00  0.00     0.244 HD
ENDBRANCH  15  37
BRANCH   8  39
HETATM   39  O11 UNL     1      38.158  -1.339  23.880  1.00  0.00    -0.283 OA
BRANCH  39  40
HETATM   40  C15 UNL     1      37.861   0.032  24.040  1.00  0.00     0.285 C 
HETATM   41  O12 UNL     1      36.871   0.240  24.768  1.00  0.00    -0.260 OA
BRANCH  40  42
HETATM   42  C16 UNL     1      38.648   1.055  23.406  1.00  0.00     0.089 C 
HETATM   43  C17 UNL     1      38.416   2.075  22.700  1.00  0.00    -0.024 C 
HETATM   44  C18 UNL     1      39.652   2.883  22.247  1.00  0.00     0.049 C 
BRANCH  43  45
HETATM   45  C19 UNL     1      37.156   2.634  22.237  1.00  0.00     0.284 C 
BRANCH  45  46
HETATM   46  O13 UNL     1      36.020   2.447  22.969  1.00  0.00    -0.367 OA
ATOM     47  H13 UNL     1      35.249   2.972  22.788  1.00  0.00     0.213 HD
ENDBRANCH  45  46
BRANCH  45  48
HETATM   48  O14 UNL     1      36.958   2.213  20.899  1.00  0.00    -0.367 OA
ATOM     49  H14 UNL     1      37.333   2.873  20.326  1.00  0.00     0.213 HD
ENDBRANCH  45  48
ENDBRANCH  43  45
ENDBRANCH  40  42
ENDBRANCH  39  40
ENDBRANCH   8  39
BRANCH  12  50
HETATM   50  O17 UNL     1      37.267  -3.452  24.700  1.00  0.00    -0.355 OA
ATOM     51  H17 UNL     1      37.481  -4.248  25.172  1.00  0.00     0.213 HD
ENDBRANCH  12  50
TORSDOF 18
ENDMDL
MODEL 4
REMARK VINA RESULT: -7.726526908      1.007      1.268
REMARK  18 active torsions:
REMARK  status: ('A' for Active; 'I' for Inactive)
REMARK    1  A    between atoms: O1_2  and  C2_3 
REMARK    2  A    between atoms: C2_3  and  O2_4 
REMARK    3  A    between atoms: C2_3  and  C3_6 
REMARK    4  A    between atoms: C3_6  and  S1_7 
REMARK    5  A    between atoms: S1_7  and  C4_8 
REMARK    6  A    between atoms: C7_12  and  O4_13 
REMARK    7  A    between atoms: O4_13  and  C8_14 
REMARK    8  A    between atoms: C9_16  and  C10_17 
REMARK    9  A    between atoms: C11_20  and  O8_21 
REMARK   10  A    between atoms: C12_23  and  O9_24 
REMARK   11  A    between atoms: C14_28  and  O11_29 
REMARK   12  A    between atoms: O11_29  and  C15_30 
REMARK   13  A    between atoms: C15_30  and  C16_32 
REMARK   14  A    between atoms: C17_33  and  C19_35 
REMARK   15  A    between atoms: C19_35  and  O13_36 
REMARK   16  A    between atoms: C19_35  and  O14_38 
REMARK   17  A    between atoms: C21_43  and  O17_44 
REMARK   18  A    between atoms: N1_48  and  O19_50 
ROOT
HETATM    1  C4  UNL     1      37.576  -6.113  18.835  1.00  0.00     0.149 A 
HETATM    2  O3  UNL     1      36.897  -6.506  19.884  1.00  0.00    -0.293 OA
HETATM    3  C5  UNL     1      37.221  -5.794  20.934  1.00  0.00     0.165 A 
HETATM    4  C6  UNL     1      38.182  -4.866  20.547  1.00  0.00     0.144 A 
HETATM    5  C7  UNL     1      38.414  -5.059  19.217  1.00  0.00     0.149 A 
HETATM    6  O10 UNL     1      38.747  -3.949  21.414  1.00  0.00    -0.329 OA
HETATM    7  C13 UNL     1      38.510  -3.466  22.694  1.00  0.00     0.258 C 
HETATM    8  C14 UNL     1      38.336  -1.943  22.521  1.00  0.00     0.314 C 
HETATM    9  O15 UNL     1      37.043  -1.967  21.886  1.00  0.00    -0.282 OA
HETATM   10  C20 UNL     1      36.265  -2.903  22.597  1.00  0.00     0.328 C 
HETATM   11  O16 UNL     1      35.022  -3.000  22.636  1.00  0.00    -0.259 OA
HETATM   12  C21 UNL     1      37.202  -3.788  23.320  1.00  0.00     0.291 C 
HETATM   13  O18 UNL     1      36.816  -5.136  23.324  1.00  0.00    -0.282 OA
HETATM   14  C22 UNL     1      36.631  -5.998  22.251  1.00  0.00     0.203 C 
HETATM   15  N1  UNL     1      35.891  -7.020  22.483  1.00  0.00    -0.245 N 
ATOM     16  H1  UNL     1      35.478  -7.164  23.404  1.00  0.00     0.196 HD
ENDROOT
BRANCH   5  17
HETATM   17  O4  UNL     1      39.304  -4.332  18.466  1.00  0.00    -0.311 OA
BRANCH  17  18
HETATM   18  C8  UNL     1      38.997  -3.753  17.236  1.00  0.00     0.299 C 
HETATM   19  O5  UNL     1      38.707  -2.397  17.322  1.00  0.00    -0.340 OA
HETATM   20  C9  UNL     1      39.871  -1.704  17.133  1.00  0.00     0.256 C 
HETATM   21  C11 UNL     1      40.810  -2.571  16.334  1.00  0.00     0.191 C 
HETATM   22  C12 UNL     1      40.086  -3.893  16.202  1.00  0.00     0.205 C 
BRANCH  20  23
HETATM   23  C10 UNL     1      39.600  -0.400  16.501  1.00  0.00     0.206 C 
HETATM   24  O6  UNL     1      40.392   0.577  16.575  1.00  0.00    -0.646 OA
HETATM   25  O7  UNL     1      38.425  -0.221  15.792  1.00  0.00    -0.646 OA
ENDBRANCH  20  23
BRANCH  21  26
HETATM   26  O8  UNL     1      41.152  -2.020  15.113  1.00  0.00    -0.390 OA
ATOM     27  H8  UNL     1      41.507  -2.656  14.503  1.00  0.00     0.210 HD
ENDBRANCH  21  26
BRANCH  22  28
HETATM   28  O9  UNL     1      39.506  -4.023  14.951  1.00  0.00    -0.388 OA
ATOM     29  H9  UNL     1      38.915  -3.293  14.808  1.00  0.00     0.210 HD
ENDBRANCH  22  28
ENDBRANCH  17  18
ENDBRANCH   5  17
BRANCH   1  30
HETATM   30  S1  UNL     1      37.525  -6.733  17.165  1.00  0.00    -0.097 SA
BRANCH  30  31
HETATM   31  C3  UNL     1      35.993  -6.173  16.394  1.00  0.00     0.141 C 
BRANCH  31  32
HETATM   32  C2  UNL     1      36.248  -5.348  15.160  1.00  0.00     0.265 C 
BRANCH  32  33
HETATM   33  O1  UNL     1      36.381  -3.991  15.470  1.00  0.00    -0.366 OA
HETATM   34  C1  UNL     1      36.179  -3.182  14.365  1.00  0.00     0.204 C 
ENDBRANCH  32  33
BRANCH  32  35
HETATM   35  O2  UNL     1      37.366  -5.793  14.462  1.00  0.00    -0.371 OA
ATOM     36  H2  UNL     1      37.898  -6.350  15.017  1.00  0.00     0.212 HD
ENDBRANCH  32  35
ENDBRANCH  31  32
ENDBRANCH  30  31
ENDBRANCH   1  30
BRANCH  15  37
HETATM   37  O19 UNL     1      35.666  -7.914  21.468  1.00  0.00    -0.288 OA
ATOM     38  H19 UNL     1      35.681  -8.842  21.666  1.00  0.00     0.244 HD
ENDBRANCH  15  37
BRANCH   8  39
HETATM   39  O11 UNL     1      38.216  -1.333  23.794  1.00  0.00    -0.283 OA
BRANCH  39  40
HETATM   40  C15 UNL     1      38.140   0.071  23.924  1.00  0.00     0.285 C 
HETATM   41  O12 UNL     1      39.189   0.654  23.589  1.00  0.00    -0.260 OA
BRANCH  40  42
HETATM   42  C16 UNL     1      36.950   0.723  24.401  1.00  0.00     0.089 C 
HETATM   43  C17 UNL     1      36.317   1.778  24.122  1.00  0.00    -0.024 C 
HETATM   44  C18 UNL     1      35.043   2.046  24.954  1.00  0.00     0.049 C 
BRANCH  43  45
HETATM   45  C19 UNL     1      36.585   2.803  23.125  1.00  0.00     0.284 C 
BRANCH  45  46
HETATM   46  O13 UNL     1      36.441   2.514  21.800  1.00  0.00    -0.367 OA
ATOM     47  H13 UNL     1      37.205   2.494  21.235  1.00  0.00     0.213 HD
ENDBRANCH  45  46
BRANCH  45  48
HETATM   48  O14 UNL     1      37.872   3.334  23.381  1.00  0.00    -0.367 OA
ATOM     49  H14 UNL     1      38.143   3.828  22.616  1.00  0.00     0.213 HD
ENDBRANCH  45  48
ENDBRANCH  43  45
ENDBRANCH  40  42
ENDBRANCH  39  40
ENDBRANCH   8  39
BRANCH  12  50
HETATM   50  O17 UNL     1      37.293  -3.407  24.678  1.00  0.00    -0.355 OA
ATOM     51  H17 UNL     1      37.839  -4.054  25.109  1.00  0.00     0.213 HD
ENDBRANCH  12  50
TORSDOF 18
ENDMDL
MODEL 5
REMARK VINA RESULT: -7.652166350      1.557      1.823
REMARK  18 active torsions:
REMARK  status: ('A' for Active; 'I' for Inactive)
REMARK    1  A    between atoms: O1_2  and  C2_3 
REMARK    2  A    between atoms: C2_3  and  O2_4 
REMARK    3  A    between atoms: C2_3  and  C3_6 
REMARK    4  A    between atoms: C3_6  and  S1_7 
REMARK    5  A    between atoms: S1_7  and  C4_8 
REMARK    6  A    between atoms: C7_12  and  O4_13 
REMARK    7  A    between atoms: O4_13  and  C8_14 
REMARK    8  A    between atoms: C9_16  and  C10_17 
REMARK    9  A    between atoms: C11_20  and  O8_21 
REMARK   10  A    between atoms: C12_23  and  O9_24 
REMARK   11  A    between atoms: C14_28  and  O11_29 
REMARK   12  A    between atoms: O11_29  and  C15_30 
REMARK   13  A    between atoms: C15_30  and  C16_32 
REMARK   14  A    between atoms: C17_33  and  C19_35 
REMARK   15  A    between atoms: C19_35  and  O13_36 
REMARK   16  A    between atoms: C19_35  and  O14_38 
REMARK   17  A    between atoms: C21_43  and  O17_44 
REMARK   18  A    between atoms: N1_48  and  O19_50 
ROOT
HETATM    1  C4  UNL     1      37.007  -6.799  17.641  1.00  0.00     0.149 A 
HETATM    2  O3  UNL     1      36.496  -7.353  18.713  1.00  0.00    -0.293 OA
HETATM    3  C5  UNL     1      37.107  -6.920  19.787  1.00  0.00     0.165 A 
HETATM    4  C6  UNL     1      38.090  -6.019  19.392  1.00  0.00     0.144 A 
HETATM    5  C7  UNL     1      38.035  -5.935  18.032  1.00  0.00     0.149 A 
HETATM    6  O10 UNL     1      38.928  -5.369  20.279  1.00  0.00    -0.329 OA
HETATM    7  C13 UNL     1      39.008  -5.161  21.650  1.00  0.00     0.258 C 
HETATM    8  C14 UNL     1      39.007  -3.627  21.823  1.00  0.00     0.314 C 
HETATM    9  O15 UNL     1      37.624  -3.397  21.490  1.00  0.00    -0.282 OA
HETATM   10  C20 UNL     1      36.881  -4.393  22.153  1.00  0.00     0.328 C 
HETATM   11  O16 UNL     1      35.667  -4.386  22.440  1.00  0.00    -0.259 OA
HETATM   12  C21 UNL     1      37.814  -5.495  22.468  1.00  0.00     0.291 C 
HETATM   13  O18 UNL     1      37.260  -6.772  22.290  1.00  0.00    -0.282 OA
HETATM   14  C22 UNL     1      36.761  -7.356  21.134  1.00  0.00     0.203 C 
HETATM   15  N1  UNL     1      35.950  -8.334  21.314  1.00  0.00    -0.245 N 
ATOM     16  H1  UNL     1      35.707  -8.640  22.256  1.00  0.00     0.196 HD
ENDROOT
BRANCH   5  17
HETATM   17  O4  UNL     1      38.852  -5.142  17.265  1.00  0.00    -0.311 OA
BRANCH  17  18
HETATM   18  C8  UNL     1      38.738  -3.756  17.178  1.00  0.00     0.299 C 
HETATM   19  O5  UNL     1      39.076  -3.101  18.355  1.00  0.00    -0.340 OA
HETATM   20  C9  UNL     1      40.408  -2.794  18.300  1.00  0.00     0.256 C 
HETATM   21  C11 UNL     1      40.811  -2.713  16.850  1.00  0.00     0.191 C 
HETATM   22  C12 UNL     1      39.575  -3.137  16.088  1.00  0.00     0.205 C 
BRANCH  20  23
HETATM   23  C10 UNL     1      40.687  -1.559  19.055  1.00  0.00     0.206 C 
HETATM   24  O6  UNL     1      41.455  -1.523  20.054  1.00  0.00    -0.646 OA
HETATM   25  O7  UNL     1      40.086  -0.375  18.665  1.00  0.00    -0.646 OA
ENDBRANCH  20  23
BRANCH  21  26
HETATM   26  O8  UNL     1      41.267  -1.460  16.484  1.00  0.00    -0.390 OA
ATOM     27  H8  UNL     1      41.827  -1.060  17.139  1.00  0.00     0.210 HD
ENDBRANCH  21  26
BRANCH  22  28
HETATM   28  O9  UNL     1      38.905  -2.039  15.572  1.00  0.00    -0.388 OA
ATOM     29  H9  UNL     1      39.539  -1.370  15.344  1.00  0.00     0.210 HD
ENDBRANCH  22  28
ENDBRANCH  17  18
ENDBRANCH   5  17
BRANCH   1  30
HETATM   30  S1  UNL     1      36.553  -7.030  15.932  1.00  0.00    -0.097 SA
BRANCH  30  31
HETATM   31  C3  UNL     1      35.506  -5.650  15.428  1.00  0.00     0.141 C 
BRANCH  31  32
HETATM   32  C2  UNL     1      36.211  -4.722  14.474  1.00  0.00     0.265 C 
BRANCH  32  33
HETATM   33  O1  UNL     1      36.182  -3.401  14.929  1.00  0.00    -0.366 OA
HETATM   34  C1  UNL     1      35.991  -2.498  13.897  1.00  0.00     0.204 C 
ENDBRANCH  32  33
BRANCH  32  35
HETATM   35  O2  UNL     1      37.523  -5.121  14.239  1.00  0.00    -0.371 OA
ATOM     36  H2  UNL     1      37.662  -6.002  14.565  1.00  0.00     0.212 HD
ENDBRANCH  32  35
ENDBRANCH  31  32
ENDBRANCH  30  31
ENDBRANCH   1  30
BRANCH  15  37
HETATM   37  O19 UNL     1      35.418  -8.959  20.216  1.00  0.00    -0.288 OA
ATOM     38  H19 UNL     1      35.949  -9.036  19.433  1.00  0.00     0.244 HD
ENDBRANCH  15  37
BRANCH   8  39
HETATM   39  O11 UNL     1      39.216  -3.305  23.186  1.00  0.00    -0.283 OA
BRANCH  39  40
HETATM   40  C15 UNL     1      39.729  -2.045  23.565  1.00  0.00     0.285 C 
HETATM   41  O12 UNL     1      40.769  -2.121  24.247  1.00  0.00    -0.260 OA
BRANCH  40  42
HETATM   42  C16 UNL     1      39.084  -0.819  23.180  1.00  0.00     0.089 C 
HETATM   43  C17 UNL     1      37.901  -0.379  23.168  1.00  0.00    -0.024 C 
HETATM   44  C18 UNL     1      37.717   1.062  22.642  1.00  0.00     0.049 C 
BRANCH  43  45
HETATM   45  C19 UNL     1      36.656  -1.008  23.581  1.00  0.00     0.284 C 
BRANCH  45  46
HETATM   46  O13 UNL     1      36.688  -2.117  24.374  1.00  0.00    -0.367 OA
ATOM     47  H13 UNL     1      37.191  -2.108  25.181  1.00  0.00     0.213 HD
ENDBRANCH  45  46
BRANCH  45  48
HETATM   48  O14 UNL     1      35.884  -1.251  22.419  1.00  0.00    -0.367 OA
ATOM     49  H14 UNL     1      35.817  -2.192  22.303  1.00  0.00     0.213 HD
ENDBRANCH  45  48
ENDBRANCH  43  45
ENDBRANCH  40  42
ENDBRANCH  39  40
ENDBRANCH   8  39
BRANCH  12  50
HETATM   50  O17 UNL     1      38.215  -5.432  23.822  1.00  0.00    -0.355 OA
ATOM     51  H17 UNL     1      37.996  -4.561  24.133  1.00  0.00     0.213 HD
ENDBRANCH  12  50
TORSDOF 18
ENDMDL
