MODEL 1
REMARK VINA RESULT: -5.957953178      0.000      0.000
REMARK  6 active torsions:
REMARK  status: ('A' for Active; 'I' for Inactive)
REMARK    1  A    between atoms: C3_8  and  C4_9 
REMARK       I    between atoms: C4_9  and  N3_11 
REMARK    2  A    between atoms: N3_11  and  N4_13 
REMARK    3  A    between atoms: C5_16  and  N5_17 
REMARK    4  A    between atoms: N5_17  and  C6_19 
REMARK    5  A    between atoms: C6_19  and  C7_20 
REMARK       I    between atoms: C7_20  and  N6_22 
REMARK    6  A    between atoms: N6_22  and  C8_24 
ROOT
HETATM    1  N1  UNL     1      35.785  18.566  14.003  1.00  0.00    -0.234 N 
ATOM      2  H11 UNL     1      36.146  18.895  13.108  1.00  0.00     0.174 HD
ATOM      3  H12 UNL     1      36.235  18.810  14.886  1.00  0.00     0.174 HD
HETATM    4  C1  UNL     1      34.734  17.828  14.012  1.00  0.00     0.677 A 
HETATM    5  N2  UNL     1      34.251  17.387  15.211  1.00  0.00    -0.201 N 
ATOM      6  H2  UNL     1      34.697  17.632  16.095  1.00  0.00     0.183 HD
HETATM    7  C2  UNL     1      33.161  16.617  15.162  1.00  0.00     0.127 A 
HETATM    8  C3  UNL     1      32.514  16.256  13.971  1.00  0.00     0.094 A 
HETATM    9  C5  UNL     1      33.018  16.718  12.783  1.00  0.00     0.138 A 
HETATM   10  N8  UNL     1      34.153  17.513  12.872  1.00  0.00    -0.176 N 
ATOM     11  H8  UNL     1      34.559  17.873  12.008  1.00  0.00     0.186 HD
ENDROOT
BRANCH   9  12
HETATM   12  N5  UNL     1      32.473  16.575  11.698  1.00  0.00    -0.346 N 
ATOM     13  H5  UNL     1      31.632  17.154  11.712  1.00  0.00     0.167 HD
BRANCH  12  14
HETATM   14  C6  UNL     1      32.514  15.963  10.466  1.00  0.00     0.164 C 
BRANCH  14  15
HETATM   15  C7  UNL     1      32.093  14.501  10.580  1.00  0.00     0.261 C 
HETATM   16  O2  UNL     1      32.957  13.775  11.098  1.00  0.00    -0.267 OA
HETATM   17  N6  UNL     1      30.856  14.061  10.136  1.00  0.00    -0.316 N 
ATOM     18  H6  UNL     1      30.239  14.760   9.723  1.00  0.00     0.169 HD
BRANCH  17  19
HETATM   19  C8  UNL     1      30.368  12.733  10.200  1.00  0.00     0.126 A 
HETATM   20  C9  UNL     1      30.852  11.701   9.444  1.00  0.00     0.182 A 
HETATM   21  O3  UNL     1      30.344  10.470   9.591  1.00  0.00    -0.271 OA
HETATM   22  C10 UNL     1      29.396  10.198  10.430  1.00  0.00     0.372 A 
HETATM   23  O4  UNL     1      28.910   9.031  10.571  1.00  0.00    -0.238 OA
HETATM   24  N7  UNL     1      28.857  11.155  11.218  1.00  0.00    -0.267 N 
HETATM   25  C11 UNL     1      29.337  12.425  11.109  1.00  0.00     0.278 A 
ATOM     26  H7  UNL     1      28.109  10.932  11.876  1.00  0.00     0.174 HD
HETATM   27  O5  UNL     1      28.901  13.379  11.794  1.00  0.00    -0.265 OA
ENDBRANCH  17  19
ENDBRANCH  14  15
ENDBRANCH  12  14
ENDBRANCH   9  12
BRANCH   8  28
HETATM   28  C4  UNL     1      31.399  15.295  14.055  1.00  0.00     0.274 C 
HETATM   29  O1  UNL     1      30.204  15.676  14.038  1.00  0.00    -0.266 OA
HETATM   30  N3  UNL     1      31.683  13.922  14.174  1.00  0.00    -0.272 N 
ATOM     31  H3  UNL     1      32.662  13.636  14.174  1.00  0.00     0.189 HD
BRANCH  30  32
HETATM   32  N4  UNL     1      30.699  12.919  14.291  1.00  0.00    -0.342 N 
ATOM     33  H42 UNL     1      30.139  12.920  15.143  1.00  0.00     0.176 HD
ATOM     34  H41 UNL     1      30.522  12.207  13.582  1.00  0.00     0.176 HD
ENDBRANCH  30  32
ENDBRANCH   8  28
TORSDOF 6
ENDMDL
MODEL 2
REMARK VINA RESULT: -5.817158541      3.180      4.051
REMARK  6 active torsions:
REMARK  status: ('A' for Active; 'I' for Inactive)
REMARK    1  A    between atoms: C3_8  and  C4_9 
REMARK       I    between atoms: C4_9  and  N3_11 
REMARK    2  A    between atoms: N3_11  and  N4_13 
REMARK    3  A    between atoms: C5_16  and  N5_17 
REMARK    4  A    between atoms: N5_17  and  C6_19 
REMARK    5  A    between atoms: C6_19  and  C7_20 
REMARK       I    between atoms: C7_20  and  N6_22 
REMARK    6  A    between atoms: N6_22  and  C8_24 
ROOT
HETATM    1  N1  UNL     1      30.888  20.510  14.080  1.00  0.00    -0.234 N 
ATOM      2  H11 UNL     1      31.609  20.035  14.622  1.00  0.00     0.174 HD
ATOM      3  H12 UNL     1      30.405  21.335  14.435  1.00  0.00     0.174 HD
HETATM    4  C1  UNL     1      30.589  20.055  12.917  1.00  0.00     0.677 A 
HETATM    5  N2  UNL     1      29.623  20.691  12.189  1.00  0.00    -0.201 N 
ATOM      6  H2  UNL     1      29.141  21.518  12.542  1.00  0.00     0.183 HD
HETATM    7  C2  UNL     1      29.346  20.171  10.991  1.00  0.00     0.127 A 
HETATM    8  C3  UNL     1      29.984  19.038  10.466  1.00  0.00     0.094 A 
HETATM    9  C5  UNL     1      30.954  18.423  11.216  1.00  0.00     0.138 A 
HETATM   10  N8  UNL     1      31.214  18.989  12.457  1.00  0.00    -0.176 N 
ATOM     11  H8  UNL     1      31.927  18.557  13.045  1.00  0.00     0.186 HD
ENDROOT
BRANCH   9  12
HETATM   12  N5  UNL     1      31.662  17.510  10.816  1.00  0.00    -0.346 N 
ATOM     13  H5  UNL     1      31.392  17.328   9.849  1.00  0.00     0.167 HD
BRANCH  12  14
HETATM   14  C6  UNL     1      32.671  16.624  11.121  1.00  0.00     0.164 C 
BRANCH  14  15
HETATM   15  C7  UNL     1      32.187  15.186  10.961  1.00  0.00     0.261 C 
HETATM   16  O2  UNL     1      32.873  14.360  11.583  1.00  0.00    -0.267 OA
HETATM   17  N6  UNL     1      31.083  14.871  10.184  1.00  0.00    -0.316 N 
ATOM     18  H6  UNL     1      30.610  15.645   9.719  1.00  0.00     0.169 HD
BRANCH  17  19
HETATM   19  C8  UNL     1      30.550  13.575   9.975  1.00  0.00     0.126 A 
HETATM   20  C9  UNL     1      31.312  12.450   9.815  1.00  0.00     0.182 A 
HETATM   21  O3  UNL     1      30.718  11.261   9.647  1.00  0.00    -0.271 OA
HETATM   22  C10 UNL     1      29.432  11.115   9.627  1.00  0.00     0.372 A 
HETATM   23  O4  UNL     1      28.865   9.987   9.466  1.00  0.00    -0.238 OA
HETATM   24  N7  UNL     1      28.601  12.171   9.777  1.00  0.00    -0.267 N 
HETATM   25  C11 UNL     1      29.153  13.404   9.952  1.00  0.00     0.278 A 
ATOM     26  H7  UNL     1      27.588  12.048   9.760  1.00  0.00     0.174 HD
HETATM   27  O5  UNL     1      28.467  14.442  10.098  1.00  0.00    -0.265 OA
ENDBRANCH  17  19
ENDBRANCH  14  15
ENDBRANCH  12  14
ENDBRANCH   9  12
BRANCH   8  28
HETATM   28  C4  UNL     1      29.489  18.496   9.188  1.00  0.00     0.274 C 
HETATM   29  O1  UNL     1      29.665  19.106   8.106  1.00  0.00    -0.266 OA
HETATM   30  N3  UNL     1      28.789  17.276   9.185  1.00  0.00    -0.272 N 
ATOM     31  H3  UNL     1      28.668  16.793  10.075  1.00  0.00     0.189 HD
BRANCH  30  32
HETATM   32  N4  UNL     1      28.245  16.680   8.029  1.00  0.00    -0.342 N 
ATOM     33  H42 UNL     1      27.502  17.191   7.552  1.00  0.00     0.176 HD
ATOM     34  H41 UNL     1      28.550  15.782   7.651  1.00  0.00     0.176 HD
ENDBRANCH  30  32
ENDBRANCH   8  28
TORSDOF 6
ENDMDL
MODEL 3
REMARK VINA RESULT: -5.730077843      1.996      3.584
REMARK  6 active torsions:
REMARK  status: ('A' for Active; 'I' for Inactive)
REMARK    1  A    between atoms: C3_8  and  C4_9 
REMARK       I    between atoms: C4_9  and  N3_11 
REMARK    2  A    between atoms: N3_11  and  N4_13 
REMARK    3  A    between atoms: C5_16  and  N5_17 
REMARK    4  A    between atoms: N5_17  and  C6_19 
REMARK    5  A    between atoms: C6_19  and  C7_20 
REMARK       I    between atoms: C7_20  and  N6_22 
REMARK    6  A    between atoms: N6_22  and  C8_24 
ROOT
HETATM    1  N1  UNL     1      32.248  19.383  17.909  1.00  0.00    -0.234 N 
ATOM      2  H11 UNL     1      31.713  18.867  18.607  1.00  0.00     0.174 HD
ATOM      3  H12 UNL     1      32.616  20.316  18.096  1.00  0.00     0.174 HD
HETATM    4  C1  UNL     1      32.465  18.835  16.768  1.00  0.00     0.677 A 
HETATM    5  N2  UNL     1      33.183  19.526  15.833  1.00  0.00    -0.201 N 
ATOM      6  H2  UNL     1      33.554  20.458  16.019  1.00  0.00     0.183 HD
HETATM    7  C2  UNL     1      33.372  18.913  14.661  1.00  0.00     0.127 A 
HETATM    8  C3  UNL     1      32.882  17.633  14.363  1.00  0.00     0.094 A 
HETATM    9  C5  UNL     1      32.170  16.961  15.322  1.00  0.00     0.138 A 
HETATM   10  N8  UNL     1      31.991  17.629  16.527  1.00  0.00    -0.176 N 
ATOM     11  H8  UNL     1      31.463  17.162  17.264  1.00  0.00     0.186 HD
ENDROOT
BRANCH   9  12
HETATM   12  N5  UNL     1      31.803  15.799  15.224  1.00  0.00    -0.346 N 
ATOM     13  H5  UNL     1      30.890  15.815  14.770  1.00  0.00     0.167 HD
BRANCH  12  14
HETATM   14  C6  UNL     1      32.103  14.477  15.468  1.00  0.00     0.164 C 
BRANCH  14  15
HETATM   15  C7  UNL     1      31.596  13.595  14.331  1.00  0.00     0.261 C 
HETATM   16  O2  UNL     1      31.527  12.393  14.630  1.00  0.00    -0.267 OA
HETATM   17  N6  UNL     1      31.257  14.122  13.095  1.00  0.00    -0.316 N 
ATOM     18  H6  UNL     1      31.366  15.129  12.977  1.00  0.00     0.169 HD
BRANCH  17  19
HETATM   19  C8  UNL     1      30.774  13.395  11.980  1.00  0.00     0.126 A 
HETATM   20  C9  UNL     1      29.478  12.978  11.839  1.00  0.00     0.182 A 
HETATM   21  O3  UNL     1      29.106  12.317  10.735  1.00  0.00    -0.271 OA
HETATM   22  C10 UNL     1      29.926  12.043   9.770  1.00  0.00     0.372 A 
HETATM   23  O4  UNL     1      29.577  11.413   8.722  1.00  0.00    -0.238 OA
HETATM   24  N7  UNL     1      31.225  12.416   9.824  1.00  0.00    -0.267 N 
HETATM   25  C11 UNL     1      31.656  13.092  10.924  1.00  0.00     0.278 A 
ATOM     26  H7  UNL     1      31.865  12.196   9.060  1.00  0.00     0.174 HD
HETATM   27  O5  UNL     1      32.840  13.478  11.066  1.00  0.00    -0.265 OA
ENDBRANCH  17  19
ENDBRANCH  14  15
ENDBRANCH  12  14
ENDBRANCH   9  12
BRANCH   8  28
HETATM   28  C4  UNL     1      33.054  17.132  12.987  1.00  0.00     0.274 C 
HETATM   29  O1  UNL     1      33.650  16.055  12.752  1.00  0.00    -0.266 OA
HETATM   30  N3  UNL     1      32.551  17.890  11.913  1.00  0.00    -0.272 N 
ATOM     31  H3  UNL     1      32.060  18.757  12.129  1.00  0.00     0.189 HD
BRANCH  30  32
HETATM   32  N4  UNL     1      32.683  17.524  10.558  1.00  0.00    -0.342 N 
ATOM     33  H42 UNL     1      33.236  18.143   9.965  1.00  0.00     0.176 HD
ATOM     34  H41 UNL     1      32.263  16.690  10.147  1.00  0.00     0.176 HD
ENDBRANCH  30  32
ENDBRANCH   8  28
TORSDOF 6
ENDMDL
MODEL 4
REMARK VINA RESULT: -5.706033776      4.640      7.712
REMARK  6 active torsions:
REMARK  status: ('A' for Active; 'I' for Inactive)
REMARK    1  A    between atoms: C3_8  and  C4_9 
REMARK       I    between atoms: C4_9  and  N3_11 
REMARK    2  A    between atoms: N3_11  and  N4_13 
REMARK    3  A    between atoms: C5_16  and  N5_17 
REMARK    4  A    between atoms: N5_17  and  C6_19 
REMARK    5  A    between atoms: C6_19  and  C7_20 
REMARK       I    between atoms: C7_20  and  N6_22 
REMARK    6  A    between atoms: N6_22  and  C8_24 
ROOT
HETATM    1  N1  UNL     1      30.006  11.774  10.079  1.00  0.00    -0.234 N 
ATOM      2  H11 UNL     1      29.013  11.767   9.848  1.00  0.00     0.174 HD
ATOM      3  H12 UNL     1      30.557  10.915  10.105  1.00  0.00     0.174 HD
HETATM    4  C1  UNL     1      30.572  12.897  10.339  1.00  0.00     0.677 A 
HETATM    5  N2  UNL     1      31.903  12.905  10.649  1.00  0.00    -0.201 N 
ATOM      6  H2  UNL     1      32.456  12.048  10.672  1.00  0.00     0.183 HD
HETATM    7  C2  UNL     1      32.440  14.098  10.919  1.00  0.00     0.127 A 
HETATM    8  C3  UNL     1      31.718  15.300  10.897  1.00  0.00     0.094 A 
HETATM    9  C5  UNL     1      30.386  15.263  10.577  1.00  0.00     0.138 A 
HETATM   10  N8  UNL     1      29.861  14.005  10.305  1.00  0.00    -0.176 N 
ATOM     11  H8  UNL     1      28.871  13.936  10.067  1.00  0.00     0.186 HD
ENDROOT
BRANCH   9  12
HETATM   12  N5  UNL     1      29.687  16.251  10.405  1.00  0.00    -0.346 N 
ATOM     13  H5  UNL     1      30.011  16.960  11.062  1.00  0.00     0.167 HD
BRANCH  12  14
HETATM   14  C6  UNL     1      28.646  16.810   9.697  1.00  0.00     0.164 C 
BRANCH  14  15
HETATM   15  C7  UNL     1      28.894  18.298   9.469  1.00  0.00     0.261 C 
HETATM   16  O2  UNL     1      27.872  18.993   9.580  1.00  0.00    -0.267 OA
HETATM   17  N6  UNL     1      30.153  18.789   9.164  1.00  0.00    -0.316 N 
ATOM     18  H6  UNL     1      30.910  18.109   9.095  1.00  0.00     0.169 HD
BRANCH  17  19
HETATM   19  C8  UNL     1      30.490  20.146   8.939  1.00  0.00     0.126 A 
HETATM   20  C9  UNL     1      30.649  20.702   7.699  1.00  0.00     0.182 A 
HETATM   21  O3  UNL     1      30.943  22.003   7.582  1.00  0.00    -0.271 OA
HETATM   22  C10 UNL     1      31.090  22.784   8.605  1.00  0.00     0.372 A 
HETATM   23  O4  UNL     1      31.372  24.020   8.499  1.00  0.00    -0.238 OA
HETATM   24  N7  UNL     1      30.951  22.322   9.869  1.00  0.00    -0.267 N 
HETATM   25  C11 UNL     1      30.651  21.005  10.044  1.00  0.00     0.278 A 
ATOM     26  H7  UNL     1      31.069  22.944  10.669  1.00  0.00     0.174 HD
HETATM   27  O5  UNL     1      30.505  20.485  11.174  1.00  0.00    -0.265 OA
ENDBRANCH  17  19
ENDBRANCH  14  15
ENDBRANCH  12  14
ENDBRANCH   9  12
BRANCH   8  28
HETATM   28  C4  UNL     1      32.406  16.526  11.342  1.00  0.00     0.274 C 
HETATM   29  O1  UNL     1      32.359  17.584  10.671  1.00  0.00    -0.266 OA
HETATM   30  N3  UNL     1      33.145  16.503  12.539  1.00  0.00    -0.272 N 
ATOM     31  H3  UNL     1      33.160  15.634  13.074  1.00  0.00     0.189 HD
BRANCH  30  32
HETATM   32  N4  UNL     1      33.865  17.604  13.045  1.00  0.00    -0.342 N 
ATOM     33  H42 UNL     1      34.875  17.493  13.134  1.00  0.00     0.176 HD
ATOM     34  H41 UNL     1      33.438  18.488  13.322  1.00  0.00     0.176 HD
ENDBRANCH  30  32
ENDBRANCH   8  28
TORSDOF 6
ENDMDL
MODEL 5
REMARK VINA RESULT: -5.661131076      2.689      4.026
REMARK  6 active torsions:
REMARK  status: ('A' for Active; 'I' for Inactive)
REMARK    1  A    between atoms: C3_8  and  C4_9 
REMARK       I    between atoms: C4_9  and  N3_11 
REMARK    2  A    between atoms: N3_11  and  N4_13 
REMARK    3  A    between atoms: C5_16  and  N5_17 
REMARK    4  A    between atoms: N5_17  and  C6_19 
REMARK    5  A    between atoms: C6_19  and  C7_20 
REMARK       I    between atoms: C7_20  and  N6_22 
REMARK    6  A    between atoms: N6_22  and  C8_24 
ROOT
HETATM    1  N1  UNL     1      31.801  20.962   9.169  1.00  0.00    -0.234 N 
ATOM      2  H11 UNL     1      32.627  21.123   9.745  1.00  0.00     0.174 HD
ATOM      3  H12 UNL     1      31.519  21.616   8.439  1.00  0.00     0.174 HD
HETATM    4  C1  UNL     1      31.103  19.903   9.373  1.00  0.00     0.677 A 
HETATM    5  N2  UNL     1      29.996  19.686   8.602  1.00  0.00    -0.201 N 
ATOM      6  H2  UNL     1      29.715  20.338   7.869  1.00  0.00     0.183 HD
HETATM    7  C2  UNL     1      29.303  18.575   8.861  1.00  0.00     0.127 A 
HETATM    8  C3  UNL     1      29.653  17.652   9.857  1.00  0.00     0.094 A 
HETATM    9  C5  UNL     1      30.772  17.892  10.612  1.00  0.00     0.138 A 
HETATM   10  N8  UNL     1      31.467  19.058  10.317  1.00  0.00    -0.176 N 
ATOM     11  H8  UNL     1      32.304  19.272  10.860  1.00  0.00     0.186 HD
ENDROOT
BRANCH   9  12
HETATM   12  N5  UNL     1      31.245  17.104  11.418  1.00  0.00    -0.346 N 
ATOM     13  H5  UNL     1      30.600  17.067  12.208  1.00  0.00     0.167 HD
BRANCH  12  14
HETATM   14  C6  UNL     1      32.281  16.245  11.710  1.00  0.00     0.164 C 
BRANCH  14  15
HETATM   15  C7  UNL     1      32.000  14.856  11.144  1.00  0.00     0.261 C 
HETATM   16  O2  UNL     1      32.995  14.319  10.632  1.00  0.00    -0.267 OA
HETATM   17  N6  UNL     1      30.741  14.282  11.212  1.00  0.00    -0.316 N 
ATOM     18  H6  UNL     1      30.005  14.833  11.655  1.00  0.00     0.169 HD
BRANCH  17  19
HETATM   19  C8  UNL     1      30.377  13.003  10.724  1.00  0.00     0.126 A 
HETATM   20  C9  UNL     1      31.136  12.271   9.852  1.00  0.00     0.182 A 
HETATM   21  O3  UNL     1      30.723  11.057   9.465  1.00  0.00    -0.271 OA
HETATM   22  C10 UNL     1      29.617  10.526   9.880  1.00  0.00     0.372 A 
HETATM   23  O4  UNL     1      29.220   9.375   9.512  1.00  0.00    -0.238 OA
HETATM   24  N7  UNL     1      28.804  11.177  10.741  1.00  0.00    -0.267 N 
HETATM   25  C11 UNL     1      29.177  12.415  11.168  1.00  0.00     0.278 A 
ATOM     26  H7  UNL     1      27.934  10.752  11.063  1.00  0.00     0.174 HD
HETATM   27  O5  UNL     1      28.490  13.097  11.965  1.00  0.00    -0.265 OA
ENDBRANCH  17  19
ENDBRANCH  14  15
ENDBRANCH  12  14
ENDBRANCH   9  12
BRANCH   8  28
HETATM   28  C4  UNL     1      28.726  16.536  10.121  1.00  0.00     0.274 C 
HETATM   29  O1  UNL     1      28.297  16.301  11.276  1.00  0.00    -0.266 OA
HETATM   30  N3  UNL     1      28.328  15.708   9.056  1.00  0.00    -0.272 N 
ATOM     31  H3  UNL     1      28.682  15.925   8.124  1.00  0.00     0.189 HD
BRANCH  30  32
HETATM   32  N4  UNL     1      27.472  14.597   9.197  1.00  0.00    -0.342 N 
ATOM     33  H42 UNL     1      27.545  13.866   8.489  1.00  0.00     0.176 HD
ATOM     34  H41 UNL     1      26.796  14.488   9.953  1.00  0.00     0.176 HD
ENDBRANCH  30  32
ENDBRANCH   8  28
TORSDOF 6
ENDMDL
