MODEL 1
REMARK VINA RESULT: -5.816944364      0.000      0.000
REMARK  10 active torsions:
REMARK  status: ('A' for Active; 'I' for Inactive)
REMARK    1  A    between atoms: N1_2  and  C2_4 
REMARK    2  A    between atoms: C4_6  and  C5_7 
REMARK    3  A    between atoms: C5_7  and  O1_8 
REMARK    4  A    between atoms: C5_7  and  C6_10 
REMARK    5  A    between atoms: C6_10  and  N2_11 
REMARK    6  A    between atoms: C6_10  and  C7_15 
REMARK    7  A    between atoms: C7_15  and  N3_16 
REMARK    8  A    between atoms: C7_15  and  C8_20 
REMARK       I    between atoms: C8_20  and  N4_22 
REMARK    9  A    between atoms: N4_22  and  C9_24 
REMARK   10  A    between atoms: C11_31  and  N8_32 
ROOT
HETATM    1  C7  UNL     1      30.111  12.125  10.480  1.00  0.00     0.308 C 
ENDROOT
BRANCH   1   2
HETATM    2  C6  UNL     1      29.702  13.538  10.816  1.00  0.00     0.256 C 
BRANCH   2   3
HETATM    3  C5  UNL     1      30.265  13.981  12.131  1.00  0.00     0.184 C 
BRANCH   3   4
HETATM    4  C4  UNL     1      31.186  15.137  12.003  1.00  0.00    -0.023 A 
HETATM    5  C3  UNL     1      31.082  16.107  11.030  1.00  0.00     0.058 A 
HETATM    6  C2  UNL     1      31.969  17.166  10.956  1.00  0.00     0.100 A 
HETATM    7  N10 UNL     1      32.972  17.280  11.845  1.00  0.00    -0.353 N 
HETATM    8  C13 UNL     1      33.096  16.342  12.810  1.00  0.00     0.090 A 
ATOM      9  H10 UNL     1      33.627  18.059  11.792  1.00  0.00     0.166 HD
HETATM   10  C12 UNL     1      32.222  15.277  12.901  1.00  0.00     0.027 A 
BRANCH   6  11
HETATM   11  N1  UNL     1      31.868  18.068  10.048  1.00  0.00    -0.381 N 
HETATM   12  C1  UNL     1      30.579  18.700   9.862  1.00  0.00     0.147 C 
ATOM     13  H1  UNL     1      32.670  18.331   9.476  1.00  0.00     0.160 HD
ENDBRANCH   6  11
ENDBRANCH   3   4
BRANCH   3  14
HETATM   14  O1  UNL     1      30.964  12.889  12.690  1.00  0.00    -0.389 OA
ATOM     15  H1  UNL     1      30.386  12.412  13.273  1.00  0.00     0.210 HD
ENDBRANCH   3  14
ENDBRANCH   2   3
BRANCH   2  16
HETATM   16  N2  UNL     1      28.278  13.718  10.826  1.00  0.00    -0.070 N 
ATOM     17  H23 UNL     1      27.808  13.120  10.147  1.00  0.00     0.274 HD
ATOM     18  H22 UNL     1      27.847  13.343  11.671  1.00  0.00     0.274 HD
ATOM     19  H21 UNL     1      28.063  14.705  10.687  1.00  0.00     0.274 HD
ENDBRANCH   2  16
ENDBRANCH   1   2
BRANCH   1  20
HETATM   20  N3  UNL     1      31.236  12.176   9.570  1.00  0.00    -0.064 N 
ATOM     21  H33 UNL     1      30.965  12.461   8.629  1.00  0.00     0.275 HD
ATOM     22  H32 UNL     1      31.869  12.950   9.773  1.00  0.00     0.275 HD
ATOM     23  H31 UNL     1      31.706  11.272   9.585  1.00  0.00     0.275 HD
ENDBRANCH   1  20
BRANCH   1  24
HETATM   24  C8  UNL     1      29.029  11.360   9.839  1.00  0.00     0.268 C 
HETATM   25  O2  UNL     1      28.660  11.722   8.692  1.00  0.00    -0.270 OA
HETATM   26  N4  UNL     1      28.375  10.251  10.416  1.00  0.00    -0.157 N 
ATOM     27  H4  UNL     1      27.579  10.420  11.030  1.00  0.00     0.187 HD
BRANCH  26  28
HETATM   28  C9  UNL     1      28.740   9.028  10.203  1.00  0.00     0.702 A 
HETATM   29  N5  UNL     1      29.592   8.378  11.012  1.00  0.00    -0.162 N 
HETATM   30  C10 UNL     1      29.964   7.111  10.782  1.00  0.00     0.221 A 
ATOM     31  H5  UNL     1      29.967   8.863  11.826  1.00  0.00     0.187 HD
HETATM   32  N6  UNL     1      30.868   6.417  11.637  1.00  0.00    -0.062 NA
HETATM   33  N7  UNL     1      29.453   6.476   9.687  1.00  0.00    -0.163 N 
HETATM   34  C11 UNL     1      28.595   7.110   8.861  1.00  0.00     0.692 A 
ATOM     35  H7  UNL     1      29.722   5.511   9.491  1.00  0.00     0.187 HD
HETATM   36  N9  UNL     1      28.251   8.379   9.132  1.00  0.00    -0.022 N 
ATOM     37  H9  UNL     1      27.603   8.863   8.511  1.00  0.00     0.203 HD
BRANCH  34  38
HETATM   38  N8  UNL     1      28.128   6.481   7.833  1.00  0.00    -0.234 N 
ATOM     39  H82 UNL     1      28.632   6.450   6.947  1.00  0.00     0.174 HD
ATOM     40  H81 UNL     1      27.231   6.002   7.907  1.00  0.00     0.174 HD
ENDBRANCH  34  38
ENDBRANCH  26  28
ENDBRANCH   1  24
TORSDOF 10
ENDMDL
MODEL 2
REMARK VINA RESULT: -5.629873627      0.651      1.687
REMARK  10 active torsions:
REMARK  status: ('A' for Active; 'I' for Inactive)
REMARK    1  A    between atoms: N1_2  and  C2_4 
REMARK    2  A    between atoms: C4_6  and  C5_7 
REMARK    3  A    between atoms: C5_7  and  O1_8 
REMARK    4  A    between atoms: C5_7  and  C6_10 
REMARK    5  A    between atoms: C6_10  and  N2_11 
REMARK    6  A    between atoms: C6_10  and  C7_15 
REMARK    7  A    between atoms: C7_15  and  N3_16 
REMARK    8  A    between atoms: C7_15  and  C8_20 
REMARK       I    between atoms: C8_20  and  N4_22 
REMARK    9  A    between atoms: N4_22  and  C9_24 
REMARK   10  A    between atoms: C11_31  and  N8_32 
ROOT
HETATM    1  C7  UNL     1      30.139  12.120  10.583  1.00  0.00     0.308 C 
ENDROOT
BRANCH   1   2
HETATM    2  C6  UNL     1      29.719  13.517  10.969  1.00  0.00     0.256 C 
BRANCH   2   3
HETATM    3  C5  UNL     1      30.354  13.952  12.253  1.00  0.00     0.184 C 
BRANCH   3   4
HETATM    4  C4  UNL     1      31.248  15.125  12.085  1.00  0.00    -0.023 A 
HETATM    5  C3  UNL     1      32.260  15.461  12.956  1.00  0.00     0.058 A 
HETATM    6  C2  UNL     1      33.065  16.567  12.751  1.00  0.00     0.100 A 
HETATM    7  N10 UNL     1      32.878  17.357  11.678  1.00  0.00    -0.353 N 
HETATM    8  C13 UNL     1      31.892  17.050  10.807  1.00  0.00     0.090 A 
ATOM      9  H10 UNL     1      33.469  18.174  11.525  1.00  0.00     0.166 HD
HETATM   10  C12 UNL     1      31.077  15.951  10.994  1.00  0.00     0.027 A 
BRANCH   6  11
HETATM   11  N1  UNL     1      34.008  16.875  13.566  1.00  0.00    -0.381 N 
HETATM   12  C1  UNL     1      33.907  18.135  14.271  1.00  0.00     0.147 C 
ATOM     13  H1  UNL     1      34.803  16.253  13.711  1.00  0.00     0.160 HD
ENDBRANCH   6  11
ENDBRANCH   3   4
BRANCH   3  14
HETATM   14  O1  UNL     1      31.103  12.865  12.753  1.00  0.00    -0.389 OA
ATOM     15  H1  UNL     1      31.406  12.332  12.027  1.00  0.00     0.210 HD
ENDBRANCH   3  14
ENDBRANCH   2   3
BRANCH   2  16
HETATM   16  N2  UNL     1      28.295  13.662  11.072  1.00  0.00    -0.070 N 
ATOM     17  H23 UNL     1      27.794  12.998  10.481  1.00  0.00     0.274 HD
ATOM     18  H22 UNL     1      27.939  13.347  11.975  1.00  0.00     0.274 HD
ATOM     19  H21 UNL     1      28.040  14.628  10.871  1.00  0.00     0.274 HD
ENDBRANCH   2  16
ENDBRANCH   1   2
BRANCH   1  20
HETATM   20  N3  UNL     1      31.272  12.212   9.685  1.00  0.00    -0.064 N 
ATOM     21  H33 UNL     1      31.263  13.067   9.130  1.00  0.00     0.275 HD
ATOM     22  H32 UNL     1      32.149  12.374  10.178  1.00  0.00     0.275 HD
ATOM     23  H31 UNL     1      31.296  11.371   9.108  1.00  0.00     0.275 HD
ENDBRANCH   1  20
BRANCH   1  24
HETATM   24  C8  UNL     1      29.067  11.374   9.903  1.00  0.00     0.268 C 
HETATM   25  O2  UNL     1      28.732  11.756   8.752  1.00  0.00    -0.270 OA
HETATM   26  N4  UNL     1      28.387  10.264  10.448  1.00  0.00    -0.157 N 
ATOM     27  H4  UNL     1      27.576  10.433  11.042  1.00  0.00     0.187 HD
BRANCH  26  28
HETATM   28  C9  UNL     1      28.746   9.040  10.227  1.00  0.00     0.702 A 
HETATM   29  N5  UNL     1      29.602   8.385  11.027  1.00  0.00    -0.162 N 
HETATM   30  C10 UNL     1      29.968   7.117  10.789  1.00  0.00     0.221 A 
ATOM     31  H5  UNL     1      29.986   8.866  11.840  1.00  0.00     0.187 HD
HETATM   32  N6  UNL     1      30.876   6.417  11.634  1.00  0.00    -0.062 NA
HETATM   33  N7  UNL     1      29.445   6.487   9.697  1.00  0.00    -0.163 N 
HETATM   34  C11 UNL     1      28.582   7.127   8.881  1.00  0.00     0.692 A 
ATOM     35  H7  UNL     1      29.708   5.523   9.495  1.00  0.00     0.187 HD
HETATM   36  N9  UNL     1      28.245   8.397   9.159  1.00  0.00    -0.022 N 
ATOM     37  H9  UNL     1      27.593   8.885   8.545  1.00  0.00     0.203 HD
BRANCH  34  38
HETATM   38  N8  UNL     1      28.104   6.504   7.854  1.00  0.00    -0.234 N 
ATOM     39  H82 UNL     1      27.200   6.033   7.884  1.00  0.00     0.174 HD
ATOM     40  H81 UNL     1      28.644   6.482   6.989  1.00  0.00     0.174 HD
ENDBRANCH  34  38
ENDBRANCH  26  28
ENDBRANCH   1  24
TORSDOF 10
ENDMDL
MODEL 3
REMARK VINA RESULT: -5.619376553      3.028      5.077
REMARK  10 active torsions:
REMARK  status: ('A' for Active; 'I' for Inactive)
REMARK    1  A    between atoms: N1_2  and  C2_4 
REMARK    2  A    between atoms: C4_6  and  C5_7 
REMARK    3  A    between atoms: C5_7  and  O1_8 
REMARK    4  A    between atoms: C5_7  and  C6_10 
REMARK    5  A    between atoms: C6_10  and  N2_11 
REMARK    6  A    between atoms: C6_10  and  C7_15 
REMARK    7  A    between atoms: C7_15  and  N3_16 
REMARK    8  A    between atoms: C7_15  and  C8_20 
REMARK       I    between atoms: C8_20  and  N4_22 
REMARK    9  A    between atoms: N4_22  and  C9_24 
REMARK   10  A    between atoms: C11_31  and  N8_32 
ROOT
HETATM    1  C7  UNL     1      31.806  15.270  12.387  1.00  0.00     0.308 C 
ENDROOT
BRANCH   1   2
HETATM    2  C6  UNL     1      32.955  16.181  12.744  1.00  0.00     0.256 C 
BRANCH   2   3
HETATM    3  C5  UNL     1      32.747  16.841  14.072  1.00  0.00     0.184 C 
BRANCH   3   4
HETATM    4  C4  UNL     1      33.640  18.008  14.280  1.00  0.00    -0.023 A 
HETATM    5  C3  UNL     1      33.200  19.281  14.567  1.00  0.00     0.058 A 
HETATM    6  C2  UNL     1      34.077  20.334  14.753  1.00  0.00     0.100 A 
HETATM    7  N10 UNL     1      35.405  20.140  14.657  1.00  0.00    -0.353 N 
HETATM    8  C13 UNL     1      35.864  18.901  14.378  1.00  0.00     0.090 A 
ATOM      9  H10 UNL     1      36.054  20.915  14.793  1.00  0.00     0.166 HD
HETATM   10  C12 UNL     1      35.005  17.836  14.188  1.00  0.00     0.027 A 
BRANCH   6  11
HETATM   11  N1  UNL     1      33.662  21.519  15.020  1.00  0.00    -0.381 N 
HETATM   12  C1  UNL     1      34.193  22.615  14.237  1.00  0.00     0.147 C 
ATOM     13  H1  UNL     1      32.980  21.683  15.760  1.00  0.00     0.160 HD
ENDBRANCH   6  11
ENDBRANCH   3   4
BRANCH   3  14
HETATM   14  O1  UNL     1      32.995  15.879  15.074  1.00  0.00    -0.389 OA
ATOM     15  H1  UNL     1      32.551  15.070  14.850  1.00  0.00     0.210 HD
ENDBRANCH   3  14
ENDBRANCH   2   3
BRANCH   2  16
HETATM   16  N2  UNL     1      33.200  17.185  11.748  1.00  0.00    -0.070 N 
ATOM     17  H23 UNL     1      33.884  17.876  12.056  1.00  0.00     0.274 HD
ATOM     18  H22 UNL     1      33.714  16.819  10.948  1.00  0.00     0.274 HD
ATOM     19  H21 UNL     1      32.314  17.612  11.477  1.00  0.00     0.274 HD
ENDBRANCH   2  16
ENDBRANCH   1   2
BRANCH   1  20
HETATM   20  N3  UNL     1      31.860  14.104  13.243  1.00  0.00    -0.064 N 
ATOM     21  H33 UNL     1      32.581  13.442  12.958  1.00  0.00     0.275 HD
ATOM     22  H32 UNL     1      32.224  14.317  14.172  1.00  0.00     0.275 HD
ATOM     23  H31 UNL     1      30.932  13.682  13.274  1.00  0.00     0.275 HD
ENDBRANCH   1  20
BRANCH   1  24
HETATM   24  C8  UNL     1      31.856  14.820  10.986  1.00  0.00     0.268 C 
HETATM   25  O2  UNL     1      32.964  14.424  10.540  1.00  0.00    -0.270 OA
HETATM   26  N4  UNL     1      30.753  14.800  10.106  1.00  0.00    -0.157 N 
ATOM     27  H4  UNL     1      30.531  15.648   9.584  1.00  0.00     0.187 HD
BRANCH  26  28
HETATM   28  C9  UNL     1      30.009  13.756   9.931  1.00  0.00     0.702 A 
HETATM   29  N5  UNL     1      30.502  12.507   9.955  1.00  0.00    -0.162 N 
HETATM   30  C10 UNL     1      29.722  11.432   9.773  1.00  0.00     0.221 A 
ATOM     31  H5  UNL     1      31.499  12.373  10.118  1.00  0.00     0.187 HD
HETATM   32  N6  UNL     1      30.240  10.105   9.798  1.00  0.00    -0.062 NA
HETATM   33  N7  UNL     1      28.389  11.630   9.556  1.00  0.00    -0.163 N 
HETATM   34  C11 UNL     1      27.873  12.875   9.528  1.00  0.00     0.692 A 
ATOM     35  H7  UNL     1      27.776  10.827   9.414  1.00  0.00     0.187 HD
HETATM   36  N9  UNL     1      28.693  13.922   9.716  1.00  0.00    -0.022 N 
ATOM     37  H9  UNL     1      28.308  14.867   9.696  1.00  0.00     0.203 HD
BRANCH  34  38
HETATM   38  N8  UNL     1      26.607  13.029   9.320  1.00  0.00    -0.234 N 
ATOM     39  H82 UNL     1      25.906  12.590   9.917  1.00  0.00     0.174 HD
ATOM     40  H81 UNL     1      26.297  13.607   8.539  1.00  0.00     0.174 HD
ENDBRANCH  34  38
ENDBRANCH  26  28
ENDBRANCH   1  24
TORSDOF 10
ENDMDL
MODEL 4
REMARK VINA RESULT: -5.592837210      2.426      4.807
REMARK  10 active torsions:
REMARK  status: ('A' for Active; 'I' for Inactive)
REMARK    1  A    between atoms: N1_2  and  C2_4 
REMARK    2  A    between atoms: C4_6  and  C5_7 
REMARK    3  A    between atoms: C5_7  and  O1_8 
REMARK    4  A    between atoms: C5_7  and  C6_10 
REMARK    5  A    between atoms: C6_10  and  N2_11 
REMARK    6  A    between atoms: C6_10  and  C7_15 
REMARK    7  A    between atoms: C7_15  and  N3_16 
REMARK    8  A    between atoms: C7_15  and  C8_20 
REMARK       I    between atoms: C8_20  and  N4_22 
REMARK    9  A    between atoms: N4_22  and  C9_24 
REMARK   10  A    between atoms: C11_31  and  N8_32 
ROOT
HETATM    1  C7  UNL     1      31.583  15.698  11.830  1.00  0.00     0.308 C 
ENDROOT
BRANCH   1   2
HETATM    2  C6  UNL     1      31.838  17.103  11.343  1.00  0.00     0.256 C 
BRANCH   2   3
HETATM    3  C5  UNL     1      30.717  17.605  10.486  1.00  0.00     0.184 C 
BRANCH   3   4
HETATM    4  C4  UNL     1      30.627  19.086  10.467  1.00  0.00    -0.023 A 
HETATM    5  C3  UNL     1      30.863  19.864   9.354  1.00  0.00     0.058 A 
HETATM    6  C2  UNL     1      30.765  21.243   9.392  1.00  0.00     0.100 A 
HETATM    7  N10 UNL     1      30.431  21.872  10.533  1.00  0.00    -0.353 N 
HETATM    8  C13 UNL     1      30.194  21.134  11.638  1.00  0.00     0.090 A 
ATOM      9  H10 UNL     1      30.359  22.889  10.563  1.00  0.00     0.166 HD
HETATM   10  C12 UNL     1      30.287  19.756  11.623  1.00  0.00     0.027 A 
BRANCH   6  11
HETATM   11  N1  UNL     1      30.985  21.963   8.352  1.00  0.00    -0.381 N 
HETATM   12  C1  UNL     1      30.602  21.426   7.063  1.00  0.00     0.147 C 
ATOM     13  H1  UNL     1      31.417  22.883   8.431  1.00  0.00     0.160 HD
ENDBRANCH   6  11
ENDBRANCH   3   4
BRANCH   3  14
HETATM   14  O1  UNL     1      29.514  17.072  10.996  1.00  0.00    -0.389 OA
ATOM     15  H1  UNL     1      29.211  16.377  10.424  1.00  0.00     0.210 HD
ENDBRANCH   3  14
ENDBRANCH   2   3
BRANCH   2  16
HETATM   16  N2  UNL     1      33.075  17.227  10.625  1.00  0.00    -0.070 N 
ATOM     17  H23 UNL     1      33.307  16.382  10.104  1.00  0.00     0.274 HD
ATOM     18  H22 UNL     1      33.001  17.868   9.835  1.00  0.00     0.274 HD
ATOM     19  H21 UNL     1      33.814  17.497  11.274  1.00  0.00     0.274 HD
ENDBRANCH   2  16
ENDBRANCH   1   2
BRANCH   1  20
HETATM   20  N3  UNL     1      32.483  15.421  12.930  1.00  0.00    -0.064 N 
ATOM     21  H33 UNL     1      32.971  14.532  12.822  1.00  0.00     0.275 HD
ATOM     22  H32 UNL     1      33.301  16.030  12.928  1.00  0.00     0.275 HD
ATOM     23  H31 UNL     1      31.956  15.475  13.801  1.00  0.00     0.275 HD
ENDBRANCH   1  20
BRANCH   1  24
HETATM   24  C8  UNL     1      31.804  14.687  10.783  1.00  0.00     0.268 C 
HETATM   25  O2  UNL     1      32.934  14.135  10.736  1.00  0.00    -0.270 OA
HETATM   26  N4  UNL     1      30.843  14.291   9.828  1.00  0.00    -0.157 N 
ATOM     27  H4  UNL     1      30.762  14.830   8.967  1.00  0.00     0.187 HD
BRANCH  26  28
HETATM   28  C9  UNL     1      30.059  13.275   9.996  1.00  0.00     0.702 A 
HETATM   29  N5  UNL     1      30.478  12.009   9.848  1.00  0.00    -0.162 N 
HETATM   30  C10 UNL     1      29.657  10.963  10.024  1.00  0.00     0.221 A 
ATOM     31  H5  UNL     1      31.451  11.836   9.595  1.00  0.00     0.187 HD
HETATM   32  N6  UNL     1      30.097   9.617   9.868  1.00  0.00    -0.062 NA
HETATM   33  N7  UNL     1      28.358  11.211  10.362  1.00  0.00    -0.163 N 
HETATM   34  C11 UNL     1      27.917  12.476  10.517  1.00  0.00     0.692 A 
ATOM     35  H7  UNL     1      27.715  10.432  10.501  1.00  0.00     0.187 HD
HETATM   36  N9  UNL     1      28.776  13.492  10.330  1.00  0.00    -0.022 N 
ATOM     37  H9  UNL     1      28.446  14.450  10.446  1.00  0.00     0.203 HD
BRANCH  34  38
HETATM   38  N8  UNL     1      26.681  12.678  10.838  1.00  0.00    -0.234 N 
ATOM     39  H82 UNL     1      26.383  13.519  11.331  1.00  0.00     0.174 HD
ATOM     40  H81 UNL     1      25.981  11.978  10.591  1.00  0.00     0.174 HD
ENDBRANCH  34  38
ENDBRANCH  26  28
ENDBRANCH   1  24
TORSDOF 10
ENDMDL
MODEL 5
REMARK VINA RESULT: -5.581028643      0.141      1.626
REMARK  10 active torsions:
REMARK  status: ('A' for Active; 'I' for Inactive)
REMARK    1  A    between atoms: N1_2  and  C2_4 
REMARK    2  A    between atoms: C4_6  and  C5_7 
REMARK    3  A    between atoms: C5_7  and  O1_8 
REMARK    4  A    between atoms: C5_7  and  C6_10 
REMARK    5  A    between atoms: C6_10  and  N2_11 
REMARK    6  A    between atoms: C6_10  and  C7_15 
REMARK    7  A    between atoms: C7_15  and  N3_16 
REMARK    8  A    between atoms: C7_15  and  C8_20 
REMARK       I    between atoms: C8_20  and  N4_22 
REMARK    9  A    between atoms: N4_22  and  C9_24 
REMARK   10  A    between atoms: C11_31  and  N8_32 
ROOT
HETATM    1  C7  UNL     1      30.159  12.062  10.436  1.00  0.00     0.308 C 
ENDROOT
BRANCH   1   2
HETATM    2  C6  UNL     1      29.831  13.498  10.760  1.00  0.00     0.256 C 
BRANCH   2   3
HETATM    3  C5  UNL     1      30.399  13.912  12.083  1.00  0.00     0.184 C 
BRANCH   3   4
HETATM    4  C4  UNL     1      31.279  15.103  11.984  1.00  0.00    -0.023 A 
HETATM    5  C3  UNL     1      31.168  16.071  11.010  1.00  0.00     0.058 A 
HETATM    6  C2  UNL     1      32.016  17.162  10.965  1.00  0.00     0.100 A 
HETATM    7  N10 UNL     1      32.987  17.311  11.884  1.00  0.00    -0.353 N 
HETATM    8  C13 UNL     1      33.117  16.376  12.851  1.00  0.00     0.090 A 
ATOM      9  H10 UNL     1      33.614  18.115  11.852  1.00  0.00     0.166 HD
HETATM   10  C12 UNL     1      32.281  15.279  12.914  1.00  0.00     0.027 A 
BRANCH   6  11
HETATM   11  N1  UNL     1      31.909  18.062  10.055  1.00  0.00    -0.381 N 
HETATM   12  C1  UNL     1      30.676  18.817   9.992  1.00  0.00     0.147 C 
ATOM     13  H1  UNL     1      32.669  18.239   9.398  1.00  0.00     0.160 HD
ENDBRANCH   6  11
ENDBRANCH   3   4
BRANCH   3  14
HETATM   14  O1  UNL     1      31.141  12.825  12.591  1.00  0.00    -0.389 OA
ATOM     15  H1  UNL     1      30.902  12.034  12.122  1.00  0.00     0.210 HD
ENDBRANCH   3  14
ENDBRANCH   2   3
BRANCH   2  16
HETATM   16  N2  UNL     1      28.421  13.764  10.746  1.00  0.00    -0.070 N 
ATOM     17  H23 UNL     1      28.215  14.761  10.680  1.00  0.00     0.274 HD
ATOM     18  H22 UNL     1      27.980  13.468   9.876  1.00  0.00     0.274 HD
ATOM     19  H21 UNL     1      27.989  13.334  11.564  1.00  0.00     0.274 HD
ENDBRANCH   2  16
ENDBRANCH   1   2
BRANCH   1  20
HETATM   20  N3  UNL     1      31.245  12.043   9.478  1.00  0.00    -0.064 N 
ATOM     21  H33 UNL     1      32.020  12.648   9.753  1.00  0.00     0.275 HD
ATOM     22  H32 UNL     1      31.753  11.158   9.479  1.00  0.00     0.275 HD
ATOM     23  H31 UNL     1      30.872  12.279   8.559  1.00  0.00     0.275 HD
ENDBRANCH   1  20
BRANCH   1  24
HETATM   24  C8  UNL     1      29.016  11.337   9.856  1.00  0.00     0.268 C 
HETATM   25  O2  UNL     1      28.601  11.711   8.728  1.00  0.00    -0.270 OA
HETATM   26  N4  UNL     1      28.352  10.256  10.472  1.00  0.00    -0.157 N 
ATOM     27  H4  UNL     1      27.596  10.457  11.126  1.00  0.00     0.187 HD
BRANCH  26  28
HETATM   28  C9  UNL     1      28.658   9.019  10.245  1.00  0.00     0.702 A 
HETATM   29  N5  UNL     1      28.201   8.348   9.175  1.00  0.00    -0.162 N 
HETATM   30  C10 UNL     1      28.524   7.066   8.950  1.00  0.00     0.221 A 
ATOM     31  H5  UNL     1      27.591   8.827   8.514  1.00  0.00     0.187 HD
HETATM   32  N6  UNL     1      28.042   6.349   7.817  1.00  0.00    -0.062 NA
HETATM   33  N7  UNL     1      29.342   6.438   9.845  1.00  0.00    -0.163 N 
HETATM   34  C11 UNL     1      29.812   7.094  10.925  1.00  0.00     0.692 A 
ATOM     35  H7  UNL     1      29.601   5.463   9.694  1.00  0.00     0.187 HD
HETATM   36  N9  UNL     1      29.462   8.378  11.110  1.00  0.00    -0.022 N 
ATOM     37  H9  UNL     1      29.815   8.878  11.926  1.00  0.00     0.203 HD
BRANCH  34  38
HETATM   38  N8  UNL     1      30.585   6.472  11.754  1.00  0.00    -0.234 N 
ATOM     39  H82 UNL     1      30.496   6.588  12.763  1.00  0.00     0.174 HD
ATOM     40  H81 UNL     1      31.303   5.846  11.391  1.00  0.00     0.174 HD
ENDBRANCH  34  38
ENDBRANCH  26  28
ENDBRANCH   1  24
TORSDOF 10
ENDMDL
