MODEL 1
REMARK VINA RESULT: -5.613070961      0.000      0.000
REMARK  9 active torsions:
REMARK  status: ('A' for Active; 'I' for Inactive)
REMARK    1  A    between atoms: N1_1  and  C1_4 
REMARK    2  A    between atoms: C5_16  and  C6_17 
REMARK    3  A    between atoms: N8_23  and  C8_25 
REMARK    4  A    between atoms: C8_25  and  C9_26 
REMARK    5  A    between atoms: C9_26  and  O1_27 
REMARK    6  A    between atoms: C10_29  and  C11_30 
REMARK    7  A    between atoms: C11_30  and  N10_35 
REMARK    8  A    between atoms: N9_31  and  O2_33 
REMARK    9  A    between atoms: N10_35  and  N11_37 
ROOT
HETATM    1  C6  UNL     1      31.851  15.332  13.498  1.00  0.00     0.096 A 
HETATM    2  N6  UNL     1      31.617  14.199  14.176  1.00  0.00    -0.296 N 
ATOM      3  H6  UNL     1      31.903  14.036  15.141  1.00  0.00     0.187 HD
HETATM    4  N7  UNL     1      30.957  13.307  13.422  1.00  0.00    -0.284 N 
ATOM      5  H7  UNL     1      30.669  12.375  13.723  1.00  0.00     0.188 HD
HETATM    6  C7  UNL     1      30.739  13.827  12.226  1.00  0.00     0.132 A 
HETATM    7  N8  UNL     1      30.155  13.337  11.211  1.00  0.00    -0.372 N 
ATOM      8  H8  UNL     1      30.102  13.926  10.380  1.00  0.00     0.161 HD
HETATM    9  C10 UNL     1      31.301  15.110  12.255  1.00  0.00     0.086 A 
ENDROOT
BRANCH   1  10
HETATM   10  C5  UNL     1      32.519  16.547  13.952  1.00  0.00     0.107 A 
HETATM   11  C1  UNL     1      31.926  17.555  14.669  1.00  0.00     0.130 A 
HETATM   12  N2  UNL     1      32.616  18.644  15.049  1.00  0.00    -0.324 N 
HETATM   13  C2  UNL     1      33.912  18.824  14.762  1.00  0.00     0.152 A 
ATOM     14  H2  UNL     1      32.131  19.366  15.582  1.00  0.00     0.169 HD
HETATM   15  N3  UNL     1      34.850  19.740  14.977  1.00  0.00    -0.335 N 
HETATM   16  C4  UNL     1      34.538  17.815  14.035  1.00  0.00     0.152 A 
HETATM   17  C3  UNL     1      36.038  19.365  14.423  1.00  0.00     0.183 A 
ATOM     18  H3  UNL     1      34.701  20.609  15.489  1.00  0.00     0.168 HD
HETATM   19  N4  UNL     1      35.812  18.171  13.849  1.00  0.00    -0.335 N 
ATOM     20  H4  UNL     1      36.508  17.620  13.346  1.00  0.00     0.168 HD
HETATM   21  N5  UNL     1      33.826  16.741  13.669  1.00  0.00    -0.334 N 
ATOM     22  H5  UNL     1      34.306  16.015  13.136  1.00  0.00     0.168 HD
BRANCH  11  23
HETATM   23  N1  UNL     1      30.702  17.500  15.002  1.00  0.00    -0.384 N 
ATOM     24  H12 UNL     1      30.420  17.315  15.964  1.00  0.00     0.157 HD
ATOM     25  H11 UNL     1      30.013  17.651  14.266  1.00  0.00     0.157 HD
ENDBRANCH  11  23
ENDBRANCH   1  10
BRANCH   9  26
HETATM   26  C11 UNL     1      31.301  15.983  11.091  1.00  0.00     0.155 C 
HETATM   27  N9  UNL     1      30.235  16.627  10.793  1.00  0.00    -0.251 N 
ATOM     28  H9  UNL     1      29.392  16.536  11.360  1.00  0.00     0.196 HD
BRANCH  27  29
HETATM   29  O2  UNL     1      30.260  17.445   9.692  1.00  0.00    -0.288 OA
ATOM     30  H2  UNL     1      30.611  18.321   9.791  1.00  0.00     0.244 HD
ENDBRANCH  27  29
BRANCH  26  31
HETATM   31  N10 UNL     1      32.479  16.107  10.302  1.00  0.00    -0.290 N 
ATOM     32  H10 UNL     1      32.766  15.339   9.696  1.00  0.00     0.188 HD
BRANCH  31  33
HETATM   33  N11 UNL     1      33.243  17.276  10.352  1.00  0.00    -0.344 N 
ATOM     34 2H11 UNL     1      33.020  17.979  11.056  1.00  0.00     0.176 HD
ATOM     35 1H11 UNL     1      34.011  17.419   9.695  1.00  0.00     0.176 HD
ENDBRANCH  31  33
ENDBRANCH  26  31
ENDBRANCH   9  26
BRANCH   7  36
HETATM   36  C8  UNL     1      29.567  12.042  11.123  1.00  0.00     0.147 C 
BRANCH  36  37
HETATM   37  C9  UNL     1      29.827  11.337   9.805  1.00  0.00     0.183 C 
BRANCH  37  38
HETATM   38  O1  UNL     1      31.178  11.310   9.500  1.00  0.00    -0.399 OA
ATOM     39  H1  UNL     1      31.333  11.502   8.582  1.00  0.00     0.209 HD
ENDBRANCH  37  38
ENDBRANCH  36  37
ENDBRANCH   7  36
TORSDOF 9
ENDMDL
MODEL 2
REMARK VINA RESULT: -5.603504196      2.774      5.148
REMARK  9 active torsions:
REMARK  status: ('A' for Active; 'I' for Inactive)
REMARK    1  A    between atoms: N1_1  and  C1_4 
REMARK    2  A    between atoms: C5_16  and  C6_17 
REMARK    3  A    between atoms: N8_23  and  C8_25 
REMARK    4  A    between atoms: C8_25  and  C9_26 
REMARK    5  A    between atoms: C9_26  and  O1_27 
REMARK    6  A    between atoms: C10_29  and  C11_30 
REMARK    7  A    between atoms: C11_30  and  N10_35 
REMARK    8  A    between atoms: N9_31  and  O2_33 
REMARK    9  A    between atoms: N10_35  and  N11_37 
ROOT
HETATM    1  C6  UNL     1      31.465  18.224  12.747  1.00  0.00     0.096 A 
HETATM    2  N6  UNL     1      31.095  19.512  12.691  1.00  0.00    -0.296 N 
ATOM      3  H6  UNL     1      31.109  20.150  13.486  1.00  0.00     0.187 HD
HETATM    4  N7  UNL     1      30.705  19.854  11.454  1.00  0.00    -0.284 N 
ATOM      5  H7  UNL     1      30.382  20.779  11.169  1.00  0.00     0.188 HD
HETATM    6  C7  UNL     1      30.806  18.801  10.661  1.00  0.00     0.132 A 
HETATM    7  N8  UNL     1      30.546  18.674   9.425  1.00  0.00    -0.372 N 
ATOM      8  H8  UNL     1      30.700  17.754   9.012  1.00  0.00     0.161 HD
HETATM    9  C10 UNL     1      31.284  17.758  11.464  1.00  0.00     0.086 A 
ENDROOT
BRANCH   1  10
HETATM   10  C5  UNL     1      31.965  17.467  13.889  1.00  0.00     0.107 A 
HETATM   11  C1  UNL     1      33.288  17.298  14.207  1.00  0.00     0.130 A 
HETATM   12  N2  UNL     1      33.664  16.582  15.282  1.00  0.00    -0.324 N 
HETATM   13  C2  UNL     1      32.791  15.991  16.107  1.00  0.00     0.152 A 
ATOM     14  H2  UNL     1      34.661  16.486  15.478  1.00  0.00     0.169 HD
HETATM   15  N3  UNL     1      32.824  15.247  17.208  1.00  0.00    -0.335 N 
HETATM   16  C4  UNL     1      31.440  16.147  15.807  1.00  0.00     0.152 A 
HETATM   17  C3  UNL     1      31.566  14.922  17.619  1.00  0.00     0.183 A 
ATOM     18  H3  UNL     1      33.679  14.956  17.682  1.00  0.00     0.168 HD
HETATM   19  N4  UNL     1      30.734  15.494  16.733  1.00  0.00    -0.335 N 
ATOM     20  H4  UNL     1      29.716  15.438  16.762  1.00  0.00     0.168 HD
HETATM   21  N5  UNL     1      31.095  16.866  14.730  1.00  0.00    -0.334 N 
ATOM     22  H5  UNL     1      30.099  16.966  14.529  1.00  0.00     0.168 HD
BRANCH  11  23
HETATM   23  N1  UNL     1      34.211  17.810  13.502  1.00  0.00    -0.384 N 
ATOM     24  H12 UNL     1      34.957  17.239  13.106  1.00  0.00     0.157 HD
ATOM     25  H11 UNL     1      34.173  18.817  13.347  1.00  0.00     0.157 HD
ENDBRANCH  11  23
ENDBRANCH   1  10
BRANCH   9  26
HETATM   26  C11 UNL     1      31.482  16.411  10.951  1.00  0.00     0.155 C 
HETATM   27  N9  UNL     1      32.624  16.086  10.471  1.00  0.00    -0.251 N 
ATOM     28  H9  UNL     1      33.392  16.758  10.445  1.00  0.00     0.196 HD
BRANCH  27  29
HETATM   29  O2  UNL     1      32.787  14.811   9.992  1.00  0.00    -0.288 OA
ATOM     30  H2  UNL     1      32.432  14.605   9.135  1.00  0.00     0.244 HD
ENDBRANCH  27  29
BRANCH  26  31
HETATM   31  N10 UNL     1      30.409  15.477  10.986  1.00  0.00    -0.290 N 
ATOM     32  H10 UNL     1      30.108  15.084  11.878  1.00  0.00     0.188 HD
BRANCH  31  33
HETATM   33  N11 UNL     1      29.765  15.094   9.807  1.00  0.00    -0.344 N 
ATOM     34 2H11 UNL     1      28.932  15.605   9.513  1.00  0.00     0.176 HD
ATOM     35 1H11 UNL     1      30.123  14.317   9.251  1.00  0.00     0.176 HD
ENDBRANCH  31  33
ENDBRANCH  26  31
ENDBRANCH   9  26
BRANCH   7  36
HETATM   36  C8  UNL     1      30.058  19.697   8.560  1.00  0.00     0.147 C 
BRANCH  36  37
HETATM   37  C9  UNL     1      31.067  20.793   8.274  1.00  0.00     0.183 C 
BRANCH  37  38
HETATM   38  O1  UNL     1      31.095  21.121   6.929  1.00  0.00    -0.399 OA
ATOM     39  H1  UNL     1      30.385  21.709   6.698  1.00  0.00     0.209 HD
ENDBRANCH  37  38
ENDBRANCH  36  37
ENDBRANCH   7  36
TORSDOF 9
ENDMDL
MODEL 3
REMARK VINA RESULT: -5.599871115      2.858      5.132
REMARK  9 active torsions:
REMARK  status: ('A' for Active; 'I' for Inactive)
REMARK    1  A    between atoms: N1_1  and  C1_4 
REMARK    2  A    between atoms: C5_16  and  C6_17 
REMARK    3  A    between atoms: N8_23  and  C8_25 
REMARK    4  A    between atoms: C8_25  and  C9_26 
REMARK    5  A    between atoms: C9_26  and  O1_27 
REMARK    6  A    between atoms: C10_29  and  C11_30 
REMARK    7  A    between atoms: C11_30  and  N10_35 
REMARK    8  A    between atoms: N9_31  and  O2_33 
REMARK    9  A    between atoms: N10_35  and  N11_37 
ROOT
HETATM    1  C6  UNL     1      31.523  15.645  13.457  1.00  0.00     0.096 A 
HETATM    2  N6  UNL     1      31.669  15.941  14.757  1.00  0.00    -0.296 N 
ATOM      3  H6  UNL     1      31.714  16.889  15.130  1.00  0.00     0.187 HD
HETATM    4  N7  UNL     1      31.750  14.830  15.505  1.00  0.00    -0.284 N 
ATOM      5  H7  UNL     1      31.863  14.805  16.518  1.00  0.00     0.188 HD
HETATM    6  C7  UNL     1      31.660  13.771  14.718  1.00  0.00     0.132 A 
HETATM    7  N8  UNL     1      31.688  12.533  14.999  1.00  0.00    -0.372 N 
ATOM      8  H8  UNL     1      31.601  11.880  14.220  1.00  0.00     0.161 HD
HETATM    9  C10 UNL     1      31.518  14.268  13.416  1.00  0.00     0.086 A 
ENDROOT
BRANCH   1  10
HETATM   10  C5  UNL     1      31.382  16.553  12.324  1.00  0.00     0.107 A 
HETATM   11  C1  UNL     1      32.384  17.335  11.808  1.00  0.00     0.130 A 
HETATM   12  N2  UNL     1      32.167  18.147  10.759  1.00  0.00    -0.324 N 
HETATM   13  C2  UNL     1      30.979  18.253  10.150  1.00  0.00     0.152 A 
ATOM     14  H2  UNL     1      32.945  18.708  10.410  1.00  0.00     0.169 HD
HETATM   15  N3  UNL     1      30.449  18.927   9.135  1.00  0.00    -0.335 N 
HETATM   16  C4  UNL     1      29.945  17.470  10.655  1.00  0.00     0.152 A 
HETATM   17  C3  UNL     1      29.133  18.613   8.971  1.00  0.00     0.183 A 
ATOM     18  H3  UNL     1      30.960  19.592   8.555  1.00  0.00     0.168 HD
HETATM   19  N4  UNL     1      28.852  17.710   9.926  1.00  0.00    -0.335 N 
ATOM     20  H4  UNL     1      27.942  17.273  10.072  1.00  0.00     0.168 HD
HETATM   21  N5  UNL     1      30.189  16.669  11.701  1.00  0.00    -0.334 N 
ATOM     22  H5  UNL     1      29.415  16.105  12.055  1.00  0.00     0.168 HD
BRANCH  11  23
HETATM   23  N1  UNL     1      33.554  17.322  12.299  1.00  0.00    -0.384 N 
ATOM     24  H12 UNL     1      34.304  16.778  11.873  1.00  0.00     0.157 HD
ATOM     25  H11 UNL     1      33.713  17.882  13.136  1.00  0.00     0.157 HD
ENDBRANCH  11  23
ENDBRANCH   1  10
BRANCH   9  26
HETATM   26  C11 UNL     1      31.435  13.394  12.256  1.00  0.00     0.155 C 
HETATM   27  N9  UNL     1      32.475  13.222  11.528  1.00  0.00    -0.251 N 
ATOM     28  H9  UNL     1      33.355  13.689  11.752  1.00  0.00     0.196 HD
BRANCH  27  29
HETATM   29  O2  UNL     1      32.374  12.393  10.440  1.00  0.00    -0.288 OA
ATOM     30  H2  UNL     1      31.871  12.694   9.692  1.00  0.00     0.244 HD
ENDBRANCH  27  29
BRANCH  26  31
HETATM   31  N10 UNL     1      30.208  12.745  11.946  1.00  0.00    -0.290 N 
ATOM     32  H10 UNL     1      29.906  11.942  12.496  1.00  0.00     0.188 HD
BRANCH  31  33
HETATM   33  N11 UNL     1      29.413  13.203  10.891  1.00  0.00    -0.344 N 
ATOM     34 2H11 UNL     1      28.929  12.521  10.309  1.00  0.00     0.176 HD
ATOM     35 1H11 UNL     1      29.321  14.203  10.711  1.00  0.00     0.176 HD
ENDBRANCH  31  33
ENDBRANCH  26  31
ENDBRANCH   9  26
BRANCH   7  36
HETATM   36  C8  UNL     1      31.831  11.970  16.300  1.00  0.00     0.147 C 
BRANCH  36  37
HETATM   37  C9  UNL     1      33.231  11.470  16.604  1.00  0.00     0.183 C 
BRANCH  37  38
HETATM   38  O1  UNL     1      33.703  11.977  17.803  1.00  0.00    -0.399 OA
ATOM     39  H1  UNL     1      34.593  11.692  17.976  1.00  0.00     0.209 HD
ENDBRANCH  37  38
ENDBRANCH  36  37
ENDBRANCH   7  36
TORSDOF 9
ENDMDL
MODEL 4
REMARK VINA RESULT: -5.360938596      5.937      8.314
REMARK  9 active torsions:
REMARK  status: ('A' for Active; 'I' for Inactive)
REMARK    1  A    between atoms: N1_1  and  C1_4 
REMARK    2  A    between atoms: C5_16  and  C6_17 
REMARK    3  A    between atoms: N8_23  and  C8_25 
REMARK    4  A    between atoms: C8_25  and  C9_26 
REMARK    5  A    between atoms: C9_26  and  O1_27 
REMARK    6  A    between atoms: C10_29  and  C11_30 
REMARK    7  A    between atoms: C11_30  and  N10_35 
REMARK    8  A    between atoms: N9_31  and  O2_33 
REMARK    9  A    between atoms: N10_35  and  N11_37 
ROOT
HETATM    1  C6  UNL     1      30.656  20.931   8.614  1.00  0.00     0.096 A 
HETATM    2  N6  UNL     1      30.373  20.905   7.303  1.00  0.00    -0.296 N 
ATOM      3  H6  UNL     1      30.168  20.057   6.775  1.00  0.00     0.187 HD
HETATM    4  N7  UNL     1      30.394  22.138   6.775  1.00  0.00    -0.284 N 
ATOM      5  H7  UNL     1      30.209  22.367   5.798  1.00  0.00     0.188 HD
HETATM    6  C7  UNL     1      30.692  23.010   7.723  1.00  0.00     0.132 A 
HETATM    7  N8  UNL     1      30.817  24.273   7.669  1.00  0.00    -0.372 N 
ATOM      8  H8  UNL     1      31.056  24.751   8.538  1.00  0.00     0.161 HD
HETATM    9  C10 UNL     1      30.864  22.263   8.895  1.00  0.00     0.086 A 
ENDROOT
BRANCH   1  10
HETATM   10  C5  UNL     1      30.720  19.819   9.556  1.00  0.00     0.107 A 
HETATM   11  C1  UNL     1      29.714  19.449  10.411  1.00  0.00     0.130 A 
HETATM   12  N2  UNL     1      29.856  18.407  11.250  1.00  0.00    -0.324 N 
HETATM   13  C2  UNL     1      30.970  17.668  11.313  1.00  0.00     0.152 A 
ATOM     14  H2  UNL     1      29.078  18.170  11.866  1.00  0.00     0.169 HD
HETATM   15  N3  UNL     1      31.419  16.620  11.996  1.00  0.00    -0.335 N 
HETATM   16  C4  UNL     1      32.008  18.023  10.456  1.00  0.00     0.152 A 
HETATM   17  C3  UNL     1      32.687  16.293  11.617  1.00  0.00     0.183 A 
ATOM     18  H3  UNL     1      30.885  16.125  12.710  1.00  0.00     0.168 HD
HETATM   19  N4  UNL     1      33.021  17.179  10.663  1.00  0.00    -0.335 N 
ATOM     20  H4  UNL     1      33.915  17.204  10.172  1.00  0.00     0.168 HD
HETATM   21  N5  UNL     1      31.839  19.065   9.630  1.00  0.00    -0.334 N 
ATOM     22  H5  UNL     1      32.613  19.307   9.011  1.00  0.00     0.168 HD
BRANCH  11  23
HETATM   23  N1  UNL     1      28.609  20.072  10.444  1.00  0.00    -0.384 N 
ATOM     24  H12 UNL     1      27.718  19.577  10.466  1.00  0.00     0.157 HD
ATOM     25  H11 UNL     1      28.650  21.091  10.450  1.00  0.00     0.157 HD
ENDBRANCH  11  23
ENDBRANCH   1  10
BRANCH   9  26
HETATM   26  C11 UNL     1      31.251  22.876  10.156  1.00  0.00     0.155 C 
HETATM   27  N9  UNL     1      30.339  23.286  10.958  1.00  0.00    -0.251 N 
ATOM     28  H9  UNL     1      29.351  23.187  10.722  1.00  0.00     0.196 HD
BRANCH  27  29
HETATM   29  O2  UNL     1      30.728  23.860  12.141  1.00  0.00    -0.288 OA
ATOM     30  H2  UNL     1      30.569  24.789  12.262  1.00  0.00     0.244 HD
ENDBRANCH  27  29
BRANCH  26  31
HETATM   31  N10 UNL     1      32.629  23.014  10.482  1.00  0.00    -0.290 N 
ATOM     32  H10 UNL     1      33.153  22.206  10.818  1.00  0.00     0.188 HD
BRANCH  31  33
HETATM   33  N11 UNL     1      33.268  24.248  10.343  1.00  0.00    -0.344 N 
ATOM     34 2H11 UNL     1      32.819  25.080  10.726  1.00  0.00     0.176 HD
ATOM     35 1H11 UNL     1      34.169  24.313   9.867  1.00  0.00     0.176 HD
ENDBRANCH  31  33
ENDBRANCH  26  31
ENDBRANCH   9  26
BRANCH   7  36
HETATM   36  C8  UNL     1      30.655  25.084   6.508  1.00  0.00     0.147 C 
BRANCH  36  37
HETATM   37  C9  UNL     1      31.913  25.216   5.670  1.00  0.00     0.183 C 
BRANCH  37  38
HETATM   38  O1  UNL     1      32.158  24.068   4.935  1.00  0.00    -0.399 OA
ATOM     39  H1  UNL     1      33.027  23.722   5.107  1.00  0.00     0.209 HD
ENDBRANCH  37  38
ENDBRANCH  36  37
ENDBRANCH   7  36
TORSDOF 9
ENDMDL
MODEL 5
REMARK VINA RESULT: -5.315976539      3.184      7.326
REMARK  9 active torsions:
REMARK  status: ('A' for Active; 'I' for Inactive)
REMARK    1  A    between atoms: N1_1  and  C1_4 
REMARK    2  A    between atoms: C5_16  and  C6_17 
REMARK    3  A    between atoms: N8_23  and  C8_25 
REMARK    4  A    between atoms: C8_25  and  C9_26 
REMARK    5  A    between atoms: C9_26  and  O1_27 
REMARK    6  A    between atoms: C10_29  and  C11_30 
REMARK    7  A    between atoms: C11_30  and  N10_35 
REMARK    8  A    between atoms: N9_31  and  O2_33 
REMARK    9  A    between atoms: N10_35  and  N11_37 
ROOT
HETATM    1  C6  UNL     1      34.561  18.202  13.998  1.00  0.00     0.096 A 
HETATM    2  N6  UNL     1      35.900  18.234  13.929  1.00  0.00    -0.296 N 
ATOM      3  H6  UNL     1      36.478  17.460  13.599  1.00  0.00     0.187 HD
HETATM    4  N7  UNL     1      36.383  19.413  14.348  1.00  0.00    -0.284 N 
ATOM      5  H7  UNL     1      37.369  19.669  14.386  1.00  0.00     0.188 HD
HETATM    6  C7  UNL     1      35.375  20.190  14.707  1.00  0.00     0.132 A 
HETATM    7  N8  UNL     1      35.372  21.377  15.159  1.00  0.00    -0.372 N 
ATOM      8  H8  UNL     1      34.463  21.788  15.373  1.00  0.00     0.161 HD
HETATM    9  C10 UNL     1      34.212  19.438  14.493  1.00  0.00     0.086 A 
ENDROOT
BRANCH   1  10
HETATM   10  C5  UNL     1      33.653  17.123  13.624  1.00  0.00     0.107 A 
HETATM   11  C1  UNL     1      33.091  16.225  14.495  1.00  0.00     0.130 A 
HETATM   12  N2  UNL     1      32.261  15.258  14.065  1.00  0.00    -0.324 N 
HETATM   13  C2  UNL     1      31.929  15.101  12.777  1.00  0.00     0.152 A 
ATOM     14  H2  UNL     1      31.867  14.615  14.751  1.00  0.00     0.169 HD
HETATM   15  N3  UNL     1      31.172  14.288  12.048  1.00  0.00    -0.335 N 
HETATM   16  C4  UNL     1      32.487  15.999  11.872  1.00  0.00     0.152 A 
HETATM   17  C3  UNL     1      31.222  14.624  10.727  1.00  0.00     0.183 A 
ATOM     18  H3  UNL     1      30.625  13.514  12.426  1.00  0.00     0.168 HD
HETATM   19  N4  UNL     1      32.042  15.685  10.652  1.00  0.00    -0.335 N 
ATOM     20  H4  UNL     1      32.289  16.177   9.793  1.00  0.00     0.168 HD
HETATM   21  N5  UNL     1      33.310  16.953  12.328  1.00  0.00    -0.334 N 
ATOM     22  H5  UNL     1      33.707  17.600  11.646  1.00  0.00     0.168 HD
BRANCH  11  23
HETATM   23  N1  UNL     1      33.329  16.271  15.740  1.00  0.00    -0.384 N 
ATOM     24  H12 UNL     1      32.861  15.646  16.396  1.00  0.00     0.157 HD
ATOM     25  H11 UNL     1      34.010  16.960  16.058  1.00  0.00     0.157 HD
ENDBRANCH  11  23
ENDBRANCH   1  10
BRANCH   9  26
HETATM   26  C11 UNL     1      32.889  19.946  14.820  1.00  0.00     0.155 C 
HETATM   27  N9  UNL     1      32.404  19.723  15.985  1.00  0.00    -0.251 N 
ATOM     28  H9  UNL     1      32.933  19.197  16.680  1.00  0.00     0.196 HD
BRANCH  27  29
HETATM   29  O2  UNL     1      31.155  20.212  16.270  1.00  0.00    -0.288 OA
ATOM     30  H2  UNL     1      30.453  19.590  16.418  1.00  0.00     0.244 HD
ENDBRANCH  27  29
BRANCH  26  31
HETATM   31  N10 UNL     1      32.153  20.679  13.848  1.00  0.00    -0.290 N 
ATOM     32  H10 UNL     1      32.310  21.681  13.743  1.00  0.00     0.188 HD
BRANCH  31  33
HETATM   33  N11 UNL     1      31.217  20.034  13.035  1.00  0.00    -0.344 N 
ATOM     34 2H11 UNL     1      30.883  20.509  12.197  1.00  0.00     0.176 HD
ATOM     35 1H11 UNL     1      30.876  19.103  13.279  1.00  0.00     0.176 HD
ENDBRANCH  31  33
ENDBRANCH  26  31
ENDBRANCH   9  26
BRANCH   7  36
HETATM   36  C8  UNL     1      36.520  22.188  15.397  1.00  0.00     0.147 C 
BRANCH  36  37
HETATM   37  C9  UNL     1      36.715  23.291  14.374  1.00  0.00     0.183 C 
BRANCH  37  38
HETATM   38  O1  UNL     1      37.845  23.075  13.602  1.00  0.00    -0.399 OA
ATOM     39  H1  UNL     1      38.486  23.767  13.719  1.00  0.00     0.209 HD
ENDBRANCH  37  38
ENDBRANCH  36  37
ENDBRANCH   7  36
TORSDOF 9
ENDMDL
