MODEL 1
REMARK VINA RESULT: -6.187820878      0.000      0.000
REMARK  15 active torsions:
REMARK  status: ('A' for Active; 'I' for Inactive)
REMARK    1  A    between atoms: O1_2  and  C2_3 
REMARK    2  A    between atoms: C6_7  and  C7_8 
REMARK    3  A    between atoms: C9_11  and  C10_12 
REMARK    4  A    between atoms: C10_12  and  O2_13 
REMARK    5  A    between atoms: O2_13  and  C11_14 
REMARK    6  A    between atoms: C11_14  and  C12_16 
REMARK    7  A    between atoms: C13_19  and  C14_20 
REMARK    8  A    between atoms: C14_20  and  C15_21 
REMARK    9  A    between atoms: C15_21  and  O6_22 
REMARK   10  A    between atoms: C15_21  and  O7_24 
REMARK   11  A    between atoms: O7_24  and  C16_25 
REMARK   12  A    between atoms: C16_25  and  O8_26 
REMARK   13  A    between atoms: C16_25  and  C17_28 
REMARK   14  A    between atoms: C17_28  and  O9_29 
REMARK   15  A    between atoms: C17_28  and  O10_31 
ROOT
HETATM    1  C7  UNL     1      20.224  36.570  11.464  1.00  0.00     0.022 A 
HETATM    2  S1  UNL     1      19.276  35.556  12.523  1.00  0.00    -0.100 SA
HETATM    3  C8  UNL     1      18.493  34.605  11.380  1.00  0.00     0.060 A 
HETATM    4  C9  UNL     1      18.966  35.076  10.196  1.00  0.00    -0.020 A 
HETATM    5  C13 UNL     1      19.881  36.109  10.238  1.00  0.00    -0.027 A 
ENDROOT
BRANCH   5   6
HETATM    6  C14 UNL     1      20.502  36.671   8.964  1.00  0.00     0.101 C 
BRANCH   6   7
HETATM    7  C15 UNL     1      20.065  35.976   7.719  1.00  0.00     0.264 C 
BRANCH   7   8
HETATM    8  O6  UNL     1      21.323  35.717   7.035  1.00  0.00    -0.371 OA
ATOM      9  H6  UNL     1      21.299  36.328   6.309  1.00  0.00     0.212 HD
ENDBRANCH   7   8
BRANCH   7  10
HETATM   10  O7  UNL     1      19.386  36.774   6.820  1.00  0.00    -0.327 OA
BRANCH  10  11
HETATM   11  C16 UNL     1      18.523  36.131   5.978  1.00  0.00     0.315 C 
BRANCH  11  12
HETATM   12  O8  UNL     1      19.173  35.055   5.313  1.00  0.00    -0.367 OA
ATOM     13  H8  UNL     1      19.283  34.314   5.897  1.00  0.00     0.212 HD
ENDBRANCH  11  12
BRANCH  11  14
HETATM   14  C17 UNL     1      17.769  36.978   5.016  1.00  0.00     0.309 C 
BRANCH  14  15
HETATM   15  O9  UNL     1      16.512  37.253   5.499  1.00  0.00    -0.367 OA
ATOM     16  H9  UNL     1      16.059  37.857   4.922  1.00  0.00     0.212 HD
ENDBRANCH  14  15
BRANCH  14  17
HETATM   17  O10 UNL     1      17.604  36.204   3.842  1.00  0.00    -0.367 OA
ATOM     18  H10 UNL     1      17.522  36.818   3.122  1.00  0.00     0.212 HD
ENDBRANCH  14  17
ENDBRANCH  11  14
ENDBRANCH  10  11
ENDBRANCH   7  10
ENDBRANCH   6   7
ENDBRANCH   5   6
BRANCH   1  19
HETATM   19  C6  UNL     1      21.145  37.618  11.974  1.00  0.00    -0.016 A 
HETATM   20  C5  UNL     1      20.831  38.820  12.466  1.00  0.00     0.013 A 
HETATM   21  C4  UNL     1      21.843  39.709  12.854  1.00  0.00     0.004 A 
HETATM   22  C3  UNL     1      23.159  39.372  12.742  1.00  0.00     0.037 A 
HETATM   23  C2  UNL     1      23.525  38.143  12.241  1.00  0.00     0.069 A 
HETATM   24  C18 UNL     1      22.521  37.308  11.875  1.00  0.00     0.049 A 
BRANCH  23  25
HETATM   25  O1  UNL     1      24.870  37.788  12.122  1.00  0.00    -0.356 OA
HETATM   26  C1  UNL     1      25.856  38.804  12.209  1.00  0.00     0.210 C 
ENDBRANCH  23  25
ENDBRANCH   1  19
BRANCH   4  27
HETATM   27  C10 UNL     1      18.510  34.449   8.877  1.00  0.00     0.219 C 
BRANCH  27  28
HETATM   28  O2  UNL     1      18.304  33.103   8.975  1.00  0.00    -0.308 OA
BRANCH  28  29
HETATM   29  C11 UNL     1      18.996  32.180   8.218  1.00  0.00     0.360 C 
HETATM   30  O3  UNL     1      18.426  31.164   7.748  1.00  0.00    -0.252 OA
BRANCH  29  31
HETATM   31  C12 UNL     1      20.434  32.359   7.935  1.00  0.00     0.277 C 
HETATM   32  O4  UNL     1      21.257  31.828   8.730  1.00  0.00    -0.640 OA
HETATM   33  O5  UNL     1      20.843  33.088   6.827  1.00  0.00    -0.640 OA
ENDBRANCH  29  31
ENDBRANCH  28  29
ENDBRANCH  27  28
ENDBRANCH   4  27
TORSDOF 15
ENDMDL
MODEL 2
REMARK VINA RESULT: -5.584976501      1.170      1.554
REMARK  15 active torsions:
REMARK  status: ('A' for Active; 'I' for Inactive)
REMARK    1  A    between atoms: O1_2  and  C2_3 
REMARK    2  A    between atoms: C6_7  and  C7_8 
REMARK    3  A    between atoms: C9_11  and  C10_12 
REMARK    4  A    between atoms: C10_12  and  O2_13 
REMARK    5  A    between atoms: O2_13  and  C11_14 
REMARK    6  A    between atoms: C11_14  and  C12_16 
REMARK    7  A    between atoms: C13_19  and  C14_20 
REMARK    8  A    between atoms: C14_20  and  C15_21 
REMARK    9  A    between atoms: C15_21  and  O6_22 
REMARK   10  A    between atoms: C15_21  and  O7_24 
REMARK   11  A    between atoms: O7_24  and  C16_25 
REMARK   12  A    between atoms: C16_25  and  O8_26 
REMARK   13  A    between atoms: C16_25  and  C17_28 
REMARK   14  A    between atoms: C17_28  and  O9_29 
REMARK   15  A    between atoms: C17_28  and  O10_31 
ROOT
HETATM    1  C7  UNL     1      20.573  37.008  12.458  1.00  0.00     0.022 A 
HETATM    2  S1  UNL     1      19.396  36.730  13.717  1.00  0.00    -0.100 SA
HETATM    3  C8  UNL     1      18.397  35.630  12.932  1.00  0.00     0.060 A 
HETATM    4  C9  UNL     1      18.976  35.487  11.711  1.00  0.00    -0.020 A 
HETATM    5  C13 UNL     1      20.126  36.211  11.460  1.00  0.00    -0.027 A 
ENDROOT
BRANCH   5   6
HETATM    6  C14 UNL     1      20.871  36.079  10.137  1.00  0.00     0.101 C 
BRANCH   6   7
HETATM    7  C15 UNL     1      20.253  36.839   9.013  1.00  0.00     0.264 C 
BRANCH   7   8
HETATM    8  O6  UNL     1      18.980  37.268   9.573  1.00  0.00    -0.371 OA
ATOM      9  H6  UNL     1      18.347  36.834   9.014  1.00  0.00     0.212 HD
ENDBRANCH   7   8
BRANCH   7  10
HETATM   10  O7  UNL     1      19.869  36.066   7.935  1.00  0.00    -0.327 OA
BRANCH  10  11
HETATM   11  C16 UNL     1      18.758  36.487   7.261  1.00  0.00     0.315 C 
BRANCH  11  12
HETATM   12  O8  UNL     1      17.597  35.811   7.727  1.00  0.00    -0.367 OA
ATOM     13  H8  UNL     1      16.959  36.429   8.065  1.00  0.00     0.212 HD
ENDBRANCH  11  12
BRANCH  11  14
HETATM   14  C17 UNL     1      18.828  36.467   5.776  1.00  0.00     0.309 C 
BRANCH  14  15
HETATM   15  O9  UNL     1      17.780  37.172   5.234  1.00  0.00    -0.367 OA
ATOM     16  H9  UNL     1      17.423  36.714   4.483  1.00  0.00     0.212 HD
ENDBRANCH  14  15
BRANCH  14  17
HETATM   17  O10 UNL     1      18.669  35.116   5.383  1.00  0.00    -0.367 OA
ATOM     18  H10 UNL     1      19.267  34.972   4.659  1.00  0.00     0.212 HD
ENDBRANCH  14  17
ENDBRANCH  11  14
ENDBRANCH  10  11
ENDBRANCH   7  10
ENDBRANCH   6   7
ENDBRANCH   5   6
BRANCH   1  19
HETATM   19  C6  UNL     1      21.732  37.920  12.635  1.00  0.00    -0.016 A 
HETATM   20  C5  UNL     1      21.724  39.186  13.064  1.00  0.00     0.013 A 
HETATM   21  C4  UNL     1      22.917  39.920  13.119  1.00  0.00     0.004 A 
HETATM   22  C3  UNL     1      24.104  39.365  12.740  1.00  0.00     0.037 A 
HETATM   23  C2  UNL     1      24.156  38.064  12.293  1.00  0.00     0.069 A 
HETATM   24  C18 UNL     1      22.984  37.384  12.253  1.00  0.00     0.049 A 
BRANCH  23  25
HETATM   25  O1  UNL     1      25.366  37.488  11.903  1.00  0.00    -0.356 OA
HETATM   26  C1  UNL     1      26.482  37.583  12.773  1.00  0.00     0.210 C 
ENDBRANCH  23  25
ENDBRANCH   1  19
BRANCH   4  27
HETATM   27  C10 UNL     1      18.376  34.533  10.677  1.00  0.00     0.219 C 
BRANCH  27  28
HETATM   28  O2  UNL     1      19.302  33.687  10.137  1.00  0.00    -0.308 OA
BRANCH  28  29
HETATM   29  C11 UNL     1      19.129  33.062   8.919  1.00  0.00     0.360 C 
HETATM   30  O3  UNL     1      17.982  32.827   8.464  1.00  0.00    -0.252 OA
BRANCH  29  31
HETATM   31  C12 UNL     1      20.292  32.649   8.109  1.00  0.00     0.277 C 
HETATM   32  O4  UNL     1      21.037  31.745   8.574  1.00  0.00    -0.640 OA
HETATM   33  O5  UNL     1      20.538  33.248   6.881  1.00  0.00    -0.640 OA
ENDBRANCH  29  31
ENDBRANCH  28  29
ENDBRANCH  27  28
ENDBRANCH   4  27
TORSDOF 15
ENDMDL
MODEL 3
REMARK VINA RESULT: -5.489672069      1.240      1.798
REMARK  15 active torsions:
REMARK  status: ('A' for Active; 'I' for Inactive)
REMARK    1  A    between atoms: O1_2  and  C2_3 
REMARK    2  A    between atoms: C6_7  and  C7_8 
REMARK    3  A    between atoms: C9_11  and  C10_12 
REMARK    4  A    between atoms: C10_12  and  O2_13 
REMARK    5  A    between atoms: O2_13  and  C11_14 
REMARK    6  A    between atoms: C11_14  and  C12_16 
REMARK    7  A    between atoms: C13_19  and  C14_20 
REMARK    8  A    between atoms: C14_20  and  C15_21 
REMARK    9  A    between atoms: C15_21  and  O6_22 
REMARK   10  A    between atoms: C15_21  and  O7_24 
REMARK   11  A    between atoms: O7_24  and  C16_25 
REMARK   12  A    between atoms: C16_25  and  O8_26 
REMARK   13  A    between atoms: C16_25  and  C17_28 
REMARK   14  A    between atoms: C17_28  and  O9_29 
REMARK   15  A    between atoms: C17_28  and  O10_31 
ROOT
HETATM    1  C7  UNL     1      20.589  36.936  11.639  1.00  0.00     0.022 A 
HETATM    2  S1  UNL     1      19.548  36.220  12.844  1.00  0.00    -0.100 SA
HETATM    3  C8  UNL     1      18.462  35.421  11.841  1.00  0.00     0.060 A 
HETATM    4  C9  UNL     1      18.909  35.712  10.590  1.00  0.00    -0.020 A 
HETATM    5  C13 UNL     1      20.032  36.508  10.482  1.00  0.00    -0.027 A 
ENDROOT
BRANCH   5   6
HETATM    6  C14 UNL     1      20.633  36.848   9.123  1.00  0.00     0.101 C 
BRANCH   6   7
HETATM    7  C15 UNL     1      20.086  36.039   7.997  1.00  0.00     0.264 C 
BRANCH   7   8
HETATM    8  O6  UNL     1      21.285  35.496   7.377  1.00  0.00    -0.371 OA
ATOM      9  H6  UNL     1      20.942  34.805   6.823  1.00  0.00     0.212 HD
ENDBRANCH   7   8
BRANCH   7  10
HETATM   10  O7  UNL     1      19.521  36.777   6.976  1.00  0.00    -0.327 OA
BRANCH  10  11
HETATM   11  C16 UNL     1      18.719  36.089   6.110  1.00  0.00     0.315 C 
BRANCH  11  12
HETATM   12  O8  UNL     1      19.458  35.084   5.427  1.00  0.00    -0.367 OA
ATOM     13  H8  UNL     1      18.927  34.308   5.291  1.00  0.00     0.212 HD
ENDBRANCH  11  12
BRANCH  11  14
HETATM   14  C17 UNL     1      17.909  36.897   5.160  1.00  0.00     0.309 C 
BRANCH  14  15
HETATM   15  O9  UNL     1      16.680  37.189   5.701  1.00  0.00    -0.367 OA
ATOM     16  H9  UNL     1      16.780  37.601   6.551  1.00  0.00     0.212 HD
ENDBRANCH  14  15
BRANCH  14  17
HETATM   17  O10 UNL     1      17.681  36.078   4.027  1.00  0.00    -0.367 OA
ATOM     18  H10 UNL     1      18.238  36.413   3.335  1.00  0.00     0.212 HD
ENDBRANCH  14  17
ENDBRANCH  11  14
ENDBRANCH  10  11
ENDBRANCH   7  10
ENDBRANCH   6   7
ENDBRANCH   5   6
BRANCH   1  19
HETATM   19  C6  UNL     1      21.769  37.767  11.993  1.00  0.00    -0.016 A 
HETATM   20  C5  UNL     1      23.040  37.591  11.618  1.00  0.00     0.013 A 
HETATM   21  C4  UNL     1      24.040  38.449  12.095  1.00  0.00     0.004 A 
HETATM   22  C3  UNL     1      23.744  39.474  12.944  1.00  0.00     0.037 A 
HETATM   23  C2  UNL     1      22.447  39.691  13.353  1.00  0.00     0.069 A 
HETATM   24  C18 UNL     1      21.506  38.841  12.873  1.00  0.00     0.049 A 
BRANCH  23  25
HETATM   25  O1  UNL     1      22.134  40.738  14.221  1.00  0.00    -0.356 OA
HETATM   26  C1  UNL     1      22.870  40.872  15.427  1.00  0.00     0.210 C 
ENDBRANCH  23  25
ENDBRANCH   1  19
BRANCH   4  27
HETATM   27  C10 UNL     1      18.194  35.144   9.363  1.00  0.00     0.219 C 
BRANCH  27  28
HETATM   28  O2  UNL     1      18.230  33.780   9.314  1.00  0.00    -0.308 OA
BRANCH  28  29
HETATM   29  C11 UNL     1      19.403  33.063   9.191  1.00  0.00     0.360 C 
HETATM   30  O3  UNL     1      20.238  33.014  10.128  1.00  0.00    -0.252 OA
BRANCH  29  31
HETATM   31  C12 UNL     1      19.713  32.326   7.949  1.00  0.00     0.277 C 
HETATM   32  O4  UNL     1      19.109  31.237   7.750  1.00  0.00    -0.640 OA
HETATM   33  O5  UNL     1      20.637  32.834   7.048  1.00  0.00    -0.640 OA
ENDBRANCH  29  31
ENDBRANCH  28  29
ENDBRANCH  27  28
ENDBRANCH   4  27
TORSDOF 15
ENDMDL
MODEL 4
REMARK VINA RESULT: -5.174896393      1.069      1.452
REMARK  15 active torsions:
REMARK  status: ('A' for Active; 'I' for Inactive)
REMARK    1  A    between atoms: O1_2  and  C2_3 
REMARK    2  A    between atoms: C6_7  and  C7_8 
REMARK    3  A    between atoms: C9_11  and  C10_12 
REMARK    4  A    between atoms: C10_12  and  O2_13 
REMARK    5  A    between atoms: O2_13  and  C11_14 
REMARK    6  A    between atoms: C11_14  and  C12_16 
REMARK    7  A    between atoms: C13_19  and  C14_20 
REMARK    8  A    between atoms: C14_20  and  C15_21 
REMARK    9  A    between atoms: C15_21  and  O6_22 
REMARK   10  A    between atoms: C15_21  and  O7_24 
REMARK   11  A    between atoms: O7_24  and  C16_25 
REMARK   12  A    between atoms: C16_25  and  O8_26 
REMARK   13  A    between atoms: C16_25  and  C17_28 
REMARK   14  A    between atoms: C17_28  and  O9_29 
REMARK   15  A    between atoms: C17_28  and  O10_31 
ROOT
HETATM    1  C7  UNL     1      20.488  36.575  11.360  1.00  0.00     0.022 A 
HETATM    2  S1  UNL     1      19.534  35.634  12.479  1.00  0.00    -0.100 SA
HETATM    3  C8  UNL     1      18.630  34.728  11.390  1.00  0.00     0.060 A 
HETATM    4  C9  UNL     1      19.070  35.156  10.177  1.00  0.00    -0.020 A 
HETATM    5  C13 UNL     1      20.051  36.128  10.159  1.00  0.00    -0.027 A 
ENDROOT
BRANCH   5   6
HETATM    6  C14 UNL     1      20.638  36.636   8.847  1.00  0.00     0.101 C 
BRANCH   6   7
HETATM    7  C15 UNL     1      20.137  35.920   7.640  1.00  0.00     0.264 C 
BRANCH   7   8
HETATM    8  O6  UNL     1      21.361  35.609   6.916  1.00  0.00    -0.371 OA
ATOM      9  H6  UNL     1      21.841  36.427   6.952  1.00  0.00     0.212 HD
ENDBRANCH   7   8
BRANCH   7  10
HETATM   10  O7  UNL     1      19.445  36.711   6.744  1.00  0.00    -0.327 OA
BRANCH  10  11
HETATM   11  C16 UNL     1      18.566  36.062   5.924  1.00  0.00     0.315 C 
BRANCH  11  12
HETATM   12  O8  UNL     1      19.213  35.005   5.226  1.00  0.00    -0.367 OA
ATOM     13  H8  UNL     1      18.718  34.756   4.455  1.00  0.00     0.212 HD
ENDBRANCH  11  12
BRANCH  11  14
HETATM   14  C17 UNL     1      17.768  36.905   4.996  1.00  0.00     0.309 C 
BRANCH  14  15
HETATM   15  O9  UNL     1      16.549  37.212   5.551  1.00  0.00    -0.367 OA
ATOM     16  H9  UNL     1      15.872  36.640   5.208  1.00  0.00     0.212 HD
ENDBRANCH  14  15
BRANCH  14  17
HETATM   17  O10 UNL     1      17.515  36.115   3.848  1.00  0.00    -0.367 OA
ATOM     18  H10 UNL     1      16.823  35.509   4.084  1.00  0.00     0.212 HD
ENDBRANCH  14  17
ENDBRANCH  11  14
ENDBRANCH  10  11
ENDBRANCH   7  10
ENDBRANCH   6   7
ENDBRANCH   5   6
BRANCH   1  19
HETATM   19  C6  UNL     1      21.502  37.563  11.808  1.00  0.00    -0.016 A 
HETATM   20  C5  UNL     1      22.517  38.075  11.105  1.00  0.00     0.013 A 
HETATM   21  C4  UNL     1      23.417  38.964  11.709  1.00  0.00     0.004 A 
HETATM   22  C3  UNL     1      23.278  39.326  13.017  1.00  0.00     0.037 A 
HETATM   23  C2  UNL     1      22.245  38.823  13.776  1.00  0.00     0.069 A 
HETATM   24  C18 UNL     1      21.395  37.965  13.159  1.00  0.00     0.049 A 
BRANCH  23  25
HETATM   25  O1  UNL     1      22.095  39.188  15.115  1.00  0.00    -0.356 OA
HETATM   26  C1  UNL     1      22.593  40.446  15.541  1.00  0.00     0.210 C 
ENDBRANCH  23  25
ENDBRANCH   1  19
BRANCH   4  27
HETATM   27  C10 UNL     1      18.503  34.550   8.892  1.00  0.00     0.219 C 
BRANCH  27  28
HETATM   28  O2  UNL     1      18.260  33.211   9.001  1.00  0.00    -0.308 OA
BRANCH  28  29
HETATM   29  C11 UNL     1      18.924  32.263   8.249  1.00  0.00     0.360 C 
HETATM   30  O3  UNL     1      18.322  31.265   7.780  1.00  0.00    -0.252 OA
BRANCH  29  31
HETATM   31  C12 UNL     1      20.369  32.393   7.972  1.00  0.00     0.277 C 
HETATM   32  O4  UNL     1      21.170  31.867   8.791  1.00  0.00    -0.640 OA
HETATM   33  O5  UNL     1      20.806  33.072   6.844  1.00  0.00    -0.640 OA
ENDBRANCH  29  31
ENDBRANCH  28  29
ENDBRANCH  27  28
ENDBRANCH   4  27
TORSDOF 15
ENDMDL
MODEL 5
REMARK VINA RESULT: -5.037352032      2.285      7.804
REMARK  15 active torsions:
REMARK  status: ('A' for Active; 'I' for Inactive)
REMARK    1  A    between atoms: O1_2  and  C2_3 
REMARK    2  A    between atoms: C6_7  and  C7_8 
REMARK    3  A    between atoms: C9_11  and  C10_12 
REMARK    4  A    between atoms: C10_12  and  O2_13 
REMARK    5  A    between atoms: O2_13  and  C11_14 
REMARK    6  A    between atoms: C11_14  and  C12_16 
REMARK    7  A    between atoms: C13_19  and  C14_20 
REMARK    8  A    between atoms: C14_20  and  C15_21 
REMARK    9  A    between atoms: C15_21  and  O6_22 
REMARK   10  A    between atoms: C15_21  and  O7_24 
REMARK   11  A    between atoms: O7_24  and  C16_25 
REMARK   12  A    between atoms: C16_25  and  O8_26 
REMARK   13  A    between atoms: C16_25  and  C17_28 
REMARK   14  A    between atoms: C17_28  and  O9_29 
REMARK   15  A    between atoms: C17_28  and  O10_31 
ROOT
HETATM    1  C7  UNL     1      19.255  35.335  10.596  1.00  0.00     0.022 A 
HETATM    2  S1  UNL     1      18.070  34.752  11.738  1.00  0.00    -0.100 SA
HETATM    3  C8  UNL     1      18.342  35.826  13.001  1.00  0.00     0.060 A 
HETATM    4  C9  UNL     1      19.341  36.622  12.535  1.00  0.00    -0.020 A 
HETATM    5  C13 UNL     1      19.821  36.366  11.266  1.00  0.00    -0.027 A 
ENDROOT
BRANCH   5   6
HETATM    6  C14 UNL     1      20.907  37.235  10.640  1.00  0.00     0.101 C 
BRANCH   6   7
HETATM    7  C15 UNL     1      21.937  37.711  11.607  1.00  0.00     0.264 C 
BRANCH   7   8
HETATM    8  O6  UNL     1      21.780  39.157  11.561  1.00  0.00    -0.371 OA
ATOM      9  H6  UNL     1      22.615  39.470  11.888  1.00  0.00     0.212 HD
ENDBRANCH   7   8
BRANCH   7  10
HETATM   10  O7  UNL     1      23.242  37.530  11.197  1.00  0.00    -0.327 OA
BRANCH  10  11
HETATM   11  C16 UNL     1      24.202  38.115  11.974  1.00  0.00     0.315 C 
BRANCH  11  12
HETATM   12  O8  UNL     1      24.459  39.446  11.545  1.00  0.00    -0.367 OA
ATOM     13  H8  UNL     1      25.122  39.460  10.865  1.00  0.00     0.212 HD
ENDBRANCH  11  12
BRANCH  11  14
HETATM   14  C17 UNL     1      25.469  37.358  12.157  1.00  0.00     0.309 C 
BRANCH  14  15
HETATM   15  O9  UNL     1      25.983  37.574  13.413  1.00  0.00    -0.367 OA
ATOM     16  H9  UNL     1      26.166  36.748  13.845  1.00  0.00     0.212 HD
ENDBRANCH  14  15
BRANCH  14  17
HETATM   17  O10 UNL     1      26.396  37.893  11.229  1.00  0.00    -0.367 OA
ATOM     18  H10 UNL     1      25.975  38.645  10.830  1.00  0.00     0.212 HD
ENDBRANCH  14  17
ENDBRANCH  11  14
ENDBRANCH  10  11
ENDBRANCH   7  10
ENDBRANCH   6   7
ENDBRANCH   5   6
BRANCH   1  19
HETATM   19  C6  UNL     1      19.436  34.729   9.252  1.00  0.00    -0.016 A 
HETATM   20  C5  UNL     1      19.834  33.487   8.957  1.00  0.00     0.013 A 
HETATM   21  C4  UNL     1      20.002  33.099   7.620  1.00  0.00     0.004 A 
HETATM   22  C3  UNL     1      19.764  33.971   6.599  1.00  0.00     0.037 A 
HETATM   23  C2  UNL     1      19.352  35.258   6.859  1.00  0.00     0.069 A 
HETATM   24  C18 UNL     1      19.200  35.599   8.163  1.00  0.00     0.049 A 
BRANCH  23  25
HETATM   25  O1  UNL     1      19.106  36.157   5.820  1.00  0.00    -0.356 OA
HETATM   26  C1  UNL     1      17.795  36.244   5.285  1.00  0.00     0.210 C 
ENDBRANCH  23  25
ENDBRANCH   1  19
BRANCH   4  27
HETATM   27  C10 UNL     1      19.877  37.771  13.390  1.00  0.00     0.219 C 
BRANCH  27  28
HETATM   28  O2  UNL     1      20.907  37.390  14.201  1.00  0.00    -0.308 OA
BRANCH  28  29
HETATM   29  C11 UNL     1      21.506  38.242  15.107  1.00  0.00     0.360 C 
HETATM   30  O3  UNL     1      21.227  38.192  16.331  1.00  0.00    -0.252 OA
BRANCH  29  31
HETATM   31  C12 UNL     1      22.498  39.242  14.663  1.00  0.00     0.277 C 
HETATM   32  O4  UNL     1      23.676  38.844  14.455  1.00  0.00    -0.640 OA
HETATM   33  O5  UNL     1      22.124  40.566  14.487  1.00  0.00    -0.640 OA
ENDBRANCH  29  31
ENDBRANCH  28  29
ENDBRANCH  27  28
ENDBRANCH   4  27
TORSDOF 15
ENDMDL
