MODEL 1
REMARK VINA RESULT: -9.356254354      0.000      0.000
REMARK  13 active torsions:
REMARK  status: ('A' for Active; 'I' for Inactive)
REMARK    1  A    between atoms: C2_2  and  C4_4 
REMARK    2  A    between atoms: C4_4  and  N1_5 
REMARK    3  A    between atoms: C4_4  and  C12_22 
REMARK    4  A    between atoms: N1_5  and  C5_7 
REMARK    5  A    between atoms: C6_8  and  N2_9 
REMARK    6  A    between atoms: N2_9  and  C7_11 
REMARK    7  A    between atoms: C7_11  and  C8_12 
REMARK    8  A    between atoms: C8_12  and  O1_13 
REMARK    9  A    between atoms: O1_13  and  S1_14 
REMARK   10  A    between atoms: C14_24  and  C15_25 
REMARK   11  A    between atoms: C15_25  and  O6_26 
REMARK   12  A    between atoms: C15_25  and  O7_28 
REMARK   13  A    between atoms: C16_31  and  O9_32 
ROOT
HETATM    1  N1  UNL     1      20.160  36.559   9.531  1.00  0.00    -0.376 N 
ATOM      2  H1  UNL     1      20.737  37.016   8.825  1.00  0.00     0.160 HD
ENDROOT
BRANCH   1   3
HETATM    3  C4  UNL     1      19.096  35.706   9.012  1.00  0.00     0.123 C 
BRANCH   3   4
HETATM    4  C2  UNL     1      19.451  34.313   9.313  1.00  0.00     0.005 C 
HETATM    5  C1  UNL     1      19.472  33.238   8.321  1.00  0.00     0.012 C 
HETATM    6  C3  UNL     1      18.602  33.804  10.506  1.00  0.00     0.012 C 
ENDBRANCH   3   4
BRANCH   3   7
HETATM    7  C12 UNL     1      18.999  36.059   7.543  1.00  0.00     0.025 A 
HETATM    8  C13 UNL     1      17.830  36.315   6.828  1.00  0.00     0.052 A 
HETATM    9  C14 UNL     1      18.161  36.266   5.469  1.00  0.00     0.111 A 
HETATM   10  O8  UNL     1      19.438  36.015   5.419  1.00  0.00    -0.287 OA
HETATM   11  C16 UNL     1      19.981  35.882   6.604  1.00  0.00     0.192 A 
BRANCH   9  12
HETATM   12  C15 UNL     1      17.297  36.441   4.297  1.00  0.00     0.312 C 
BRANCH  12  13
HETATM   13  O6  UNL     1      15.966  36.769   4.617  1.00  0.00    -0.365 OA
ATOM     14  H6  UNL     1      15.359  36.651   3.896  1.00  0.00     0.213 HD
ENDBRANCH  12  13
BRANCH  12  15
HETATM   15  O7  UNL     1      17.301  35.291   3.505  1.00  0.00    -0.365 OA
ATOM     16  H7  UNL     1      16.506  35.236   2.989  1.00  0.00     0.213 HD
ENDBRANCH  12  15
ENDBRANCH   9  12
BRANCH  11  17
HETATM   17  O9  UNL     1      21.341  35.607   6.760  1.00  0.00    -0.340 OA
ATOM     18  H9  UNL     1      21.808  34.780   6.735  1.00  0.00     0.220 HD
ENDBRANCH  11  17
ENDBRANCH   3   7
ENDBRANCH   1   3
BRANCH   1  19
HETATM   19  C5  UNL     1      20.499  36.836  10.840  1.00  0.00     0.114 A 
HETATM   20  C6  UNL     1      21.496  37.247  11.668  1.00  0.00     0.114 A 
HETATM   21  C10 UNL     1      20.668  37.257  12.760  1.00  0.00     0.252 A 
HETATM   22  O4  UNL     1      20.825  37.547  13.994  1.00  0.00    -0.281 OA
HETATM   23  C11 UNL     1      19.656  36.857  12.001  1.00  0.00     0.252 A 
HETATM   24  O5  UNL     1      18.432  36.573  12.136  1.00  0.00    -0.281 OA
BRANCH  20  25
HETATM   25  N2  UNL     1      22.912  37.536  11.586  1.00  0.00    -0.383 N 
ATOM     26  H2  UNL     1      23.529  37.008  10.968  1.00  0.00     0.160 HD
BRANCH  25  27
HETATM   27  C7  UNL     1      23.418  38.618  12.426  1.00  0.00     0.147 C 
BRANCH  27  28
HETATM   28  C8  UNL     1      24.916  38.763  12.294  1.00  0.00     0.209 C 
BRANCH  28  29
HETATM   29  O1  UNL     1      25.620  37.853  13.061  1.00  0.00    -0.274 OA
BRANCH  29  30
HETATM   30  S1  UNL     1      27.003  37.329  12.256  1.00  0.00     0.261 S 
HETATM   31  C9  UNL     1      28.331  36.984  13.379  1.00  0.00     0.194 C 
HETATM   32  O2  UNL     1      27.449  38.337  11.224  1.00  0.00    -0.199 OA
HETATM   33  O3  UNL     1      26.702  36.042  11.519  1.00  0.00    -0.199 OA
ENDBRANCH  29  30
ENDBRANCH  28  29
ENDBRANCH  27  28
ENDBRANCH  25  27
ENDBRANCH  20  25
ENDBRANCH   1  19
TORSDOF 13
ENDMDL
MODEL 2
REMARK VINA RESULT: -8.448249327      0.924      1.076
REMARK  13 active torsions:
REMARK  status: ('A' for Active; 'I' for Inactive)
REMARK    1  A    between atoms: C2_2  and  C4_4 
REMARK    2  A    between atoms: C4_4  and  N1_5 
REMARK    3  A    between atoms: C4_4  and  C12_22 
REMARK    4  A    between atoms: N1_5  and  C5_7 
REMARK    5  A    between atoms: C6_8  and  N2_9 
REMARK    6  A    between atoms: N2_9  and  C7_11 
REMARK    7  A    between atoms: C7_11  and  C8_12 
REMARK    8  A    between atoms: C8_12  and  O1_13 
REMARK    9  A    between atoms: O1_13  and  S1_14 
REMARK   10  A    between atoms: C14_24  and  C15_25 
REMARK   11  A    between atoms: C15_25  and  O6_26 
REMARK   12  A    between atoms: C15_25  and  O7_28 
REMARK   13  A    between atoms: C16_31  and  O9_32 
ROOT
HETATM    1  N1  UNL     1      20.084  36.178   9.497  1.00  0.00    -0.376 N 
ATOM      2  H1  UNL     1      20.869  36.375   8.876  1.00  0.00     0.160 HD
ENDROOT
BRANCH   1   3
HETATM    3  C4  UNL     1      18.985  35.429   8.897  1.00  0.00     0.123 C 
BRANCH   3   4
HETATM    4  C2  UNL     1      19.274  33.998   9.065  1.00  0.00     0.005 C 
HETATM    5  C1  UNL     1      19.702  33.114   7.981  1.00  0.00     0.012 C 
HETATM    6  C3  UNL     1      18.077  33.303   9.763  1.00  0.00     0.012 C 
ENDBRANCH   3   4
BRANCH   3   7
HETATM    7  C12 UNL     1      18.914  35.923   7.468  1.00  0.00     0.025 A 
HETATM    8  C13 UNL     1      17.755  36.182   6.738  1.00  0.00     0.052 A 
HETATM    9  C14 UNL     1      18.132  36.292   5.395  1.00  0.00     0.111 A 
HETATM   10  O8  UNL     1      19.423  36.122   5.369  1.00  0.00    -0.287 OA
HETATM   11  C16 UNL     1      19.935  35.900   6.555  1.00  0.00     0.192 A 
BRANCH   9  12
HETATM   12  C15 UNL     1      17.297  36.535   4.213  1.00  0.00     0.312 C 
BRANCH  12  13
HETATM   13  O6  UNL     1      15.954  36.829   4.519  1.00  0.00    -0.365 OA
ATOM     14  H6  UNL     1      15.527  36.162   5.042  1.00  0.00     0.213 HD
ENDBRANCH  12  13
BRANCH  12  15
HETATM   15  O7  UNL     1      17.335  35.440   3.349  1.00  0.00    -0.365 OA
ATOM     16  H7  UNL     1      16.456  35.157   3.128  1.00  0.00     0.213 HD
ENDBRANCH  12  15
ENDBRANCH   9  12
BRANCH  11  17
HETATM   17  O9  UNL     1      21.303  35.690   6.734  1.00  0.00    -0.340 OA
ATOM     18  H9  UNL     1      21.973  35.432   6.111  1.00  0.00     0.220 HD
ENDBRANCH  11  17
ENDBRANCH   3   7
ENDBRANCH   1   3
BRANCH   1  19
HETATM   19  C5  UNL     1      20.215  36.659  10.784  1.00  0.00     0.114 A 
HETATM   20  C6  UNL     1      20.881  37.535  11.582  1.00  0.00     0.114 A 
HETATM   21  C10 UNL     1      20.110  37.223  12.672  1.00  0.00     0.252 A 
HETATM   22  O4  UNL     1      20.078  37.626  13.883  1.00  0.00    -0.281 OA
HETATM   23  C11 UNL     1      19.424  36.354  11.942  1.00  0.00     0.252 A 
HETATM   24  O5  UNL     1      18.468  35.541  12.096  1.00  0.00    -0.281 OA
BRANCH  20  25
HETATM   25  N2  UNL     1      22.003  38.445  11.479  1.00  0.00    -0.383 N 
ATOM     26  H2  UNL     1      22.421  38.676  10.577  1.00  0.00     0.160 HD
BRANCH  25  27
HETATM   27  C7  UNL     1      22.509  39.016  12.724  1.00  0.00     0.147 C 
BRANCH  27  28
HETATM   28  C8  UNL     1      23.880  38.477  13.060  1.00  0.00     0.209 C 
BRANCH  28  29
HETATM   29  O1  UNL     1      24.482  37.826  11.999  1.00  0.00    -0.274 OA
BRANCH  29  30
HETATM   30  S1  UNL     1      26.129  37.612  12.280  1.00  0.00     0.261 S 
HETATM   31  C9  UNL     1      27.074  39.028  11.785  1.00  0.00     0.194 C 
HETATM   32  O2  UNL     1      26.645  36.377  11.579  1.00  0.00    -0.199 OA
HETATM   33  O3  UNL     1      26.368  37.416  13.761  1.00  0.00    -0.199 OA
ENDBRANCH  29  30
ENDBRANCH  28  29
ENDBRANCH  27  28
ENDBRANCH  25  27
ENDBRANCH  20  25
ENDBRANCH   1  19
TORSDOF 13
ENDMDL
MODEL 3
REMARK VINA RESULT: -7.608606863      2.126      2.693
REMARK  13 active torsions:
REMARK  status: ('A' for Active; 'I' for Inactive)
REMARK    1  A    between atoms: C2_2  and  C4_4 
REMARK    2  A    between atoms: C4_4  and  N1_5 
REMARK    3  A    between atoms: C4_4  and  C12_22 
REMARK    4  A    between atoms: N1_5  and  C5_7 
REMARK    5  A    between atoms: C6_8  and  N2_9 
REMARK    6  A    between atoms: N2_9  and  C7_11 
REMARK    7  A    between atoms: C7_11  and  C8_12 
REMARK    8  A    between atoms: C8_12  and  O1_13 
REMARK    9  A    between atoms: O1_13  and  S1_14 
REMARK   10  A    between atoms: C14_24  and  C15_25 
REMARK   11  A    between atoms: C15_25  and  O6_26 
REMARK   12  A    between atoms: C15_25  and  O7_28 
REMARK   13  A    between atoms: C16_31  and  O9_32 
ROOT
HETATM    1  N1  UNL     1      19.870  36.135   9.591  1.00  0.00    -0.376 N 
ATOM      2  H1  UNL     1      20.708  36.376   9.063  1.00  0.00     0.160 HD
ENDROOT
BRANCH   1   3
HETATM    3  C4  UNL     1      18.896  35.316   8.877  1.00  0.00     0.123 C 
BRANCH   3   4
HETATM    4  C2  UNL     1      19.328  33.915   8.978  1.00  0.00     0.005 C 
HETATM    5  C1  UNL     1      19.777  33.110   7.843  1.00  0.00     0.012 C 
HETATM    6  C3  UNL     1      18.243  33.087   9.714  1.00  0.00     0.012 C 
ENDBRANCH   3   4
BRANCH   3   7
HETATM    7  C12 UNL     1      18.857  35.893   7.478  1.00  0.00     0.025 A 
HETATM    8  C13 UNL     1      17.715  36.174   6.730  1.00  0.00     0.052 A 
HETATM    9  C14 UNL     1      18.128  36.370   5.407  1.00  0.00     0.111 A 
HETATM   10  O8  UNL     1      19.423  36.224   5.410  1.00  0.00    -0.287 OA
HETATM   11  C16 UNL     1      19.904  35.942   6.596  1.00  0.00     0.192 A 
BRANCH   9  12
HETATM   12  C15 UNL     1      17.324  36.668   4.217  1.00  0.00     0.312 C 
BRANCH  12  13
HETATM   13  O6  UNL     1      15.953  36.842   4.489  1.00  0.00    -0.365 OA
ATOM     14  H6  UNL     1      15.405  36.143   4.152  1.00  0.00     0.213 HD
ENDBRANCH  12  13
BRANCH  12  15
HETATM   15  O7  UNL     1      17.471  35.665   3.258  1.00  0.00    -0.365 OA
ATOM     16  H7  UNL     1      18.387  35.440   3.146  1.00  0.00     0.213 HD
ENDBRANCH  12  15
ENDBRANCH   9  12
BRANCH  11  17
HETATM   17  O9  UNL     1      21.271  35.745   6.803  1.00  0.00    -0.340 OA
ATOM     18  H9  UNL     1      21.997  35.784   6.193  1.00  0.00     0.220 HD
ENDBRANCH  11  17
ENDBRANCH   3   7
ENDBRANCH   1   3
BRANCH   1  19
HETATM   19  C5  UNL     1      19.820  36.630  10.879  1.00  0.00     0.114 A 
HETATM   20  C6  UNL     1      20.295  37.583  11.723  1.00  0.00     0.114 A 
HETATM   21  C10 UNL     1      19.469  37.181  12.740  1.00  0.00     0.252 A 
HETATM   22  O4  UNL     1      19.274  37.578  13.938  1.00  0.00    -0.281 OA
HETATM   23  C11 UNL     1      18.966  36.233  11.961  1.00  0.00     0.252 A 
HETATM   24  O5  UNL     1      18.106  35.309  12.036  1.00  0.00    -0.281 OA
BRANCH  20  25
HETATM   25  N2  UNL     1      21.303  38.623  11.714  1.00  0.00    -0.383 N 
ATOM     26  H2  UNL     1      21.057  39.604  11.848  1.00  0.00     0.160 HD
BRANCH  25  27
HETATM   27  C7  UNL     1      22.686  38.204  11.504  1.00  0.00     0.147 C 
BRANCH  27  28
HETATM   28  C8  UNL     1      23.517  38.404  12.750  1.00  0.00     0.209 C 
BRANCH  28  29
HETATM   29  O1  UNL     1      23.671  39.735  13.092  1.00  0.00    -0.274 OA
BRANCH  29  30
HETATM   30  S1  UNL     1      22.659  40.150  14.373  1.00  0.00     0.261 S 
HETATM   31  C9  UNL     1      21.977  38.720  15.167  1.00  0.00     0.194 C 
HETATM   32  O2  UNL     1      21.549  41.066  13.915  1.00  0.00    -0.199 OA
HETATM   33  O3  UNL     1      23.452  40.901  15.419  1.00  0.00    -0.199 OA
ENDBRANCH  29  30
ENDBRANCH  28  29
ENDBRANCH  27  28
ENDBRANCH  25  27
ENDBRANCH  20  25
ENDBRANCH   1  19
TORSDOF 13
ENDMDL
MODEL 4
REMARK VINA RESULT: -7.340477166      1.643      2.029
REMARK  13 active torsions:
REMARK  status: ('A' for Active; 'I' for Inactive)
REMARK    1  A    between atoms: C2_2  and  C4_4 
REMARK    2  A    between atoms: C4_4  and  N1_5 
REMARK    3  A    between atoms: C4_4  and  C12_22 
REMARK    4  A    between atoms: N1_5  and  C5_7 
REMARK    5  A    between atoms: C6_8  and  N2_9 
REMARK    6  A    between atoms: N2_9  and  C7_11 
REMARK    7  A    between atoms: C7_11  and  C8_12 
REMARK    8  A    between atoms: C8_12  and  O1_13 
REMARK    9  A    between atoms: O1_13  and  S1_14 
REMARK   10  A    between atoms: C14_24  and  C15_25 
REMARK   11  A    between atoms: C15_25  and  O6_26 
REMARK   12  A    between atoms: C15_25  and  O7_28 
REMARK   13  A    between atoms: C16_31  and  O9_32 
ROOT
HETATM    1  N1  UNL     1      19.963  35.400   9.096  1.00  0.00    -0.376 N 
ATOM      2  H1  UNL     1      20.849  35.549   8.612  1.00  0.00     0.160 HD
ENDROOT
BRANCH   1   3
HETATM    3  C4  UNL     1      18.995  34.572   8.385  1.00  0.00     0.123 C 
BRANCH   3   4
HETATM    4  C2  UNL     1      19.293  33.167   8.693  1.00  0.00     0.005 C 
HETATM    5  C1  UNL     1      20.383  32.406   8.084  1.00  0.00     0.012 C 
HETATM    6  C3  UNL     1      18.009  32.315   8.535  1.00  0.00     0.012 C 
ENDBRANCH   3   4
BRANCH   3   7
HETATM    7  C12 UNL     1      19.137  34.972   6.932  1.00  0.00     0.025 A 
HETATM    8  C13 UNL     1      18.158  34.870   5.944  1.00  0.00     0.052 A 
HETATM    9  C14 UNL     1      18.799  35.028   4.711  1.00  0.00     0.111 A 
HETATM   10  O8  UNL     1      20.058  35.223   4.984  1.00  0.00    -0.287 OA
HETATM   11  C16 UNL     1      20.315  35.199   6.268  1.00  0.00     0.192 A 
BRANCH   9  12
HETATM   12  C15 UNL     1      18.235  34.983   3.358  1.00  0.00     0.312 C 
BRANCH  12  13
HETATM   13  O6  UNL     1      19.094  34.403   2.405  1.00  0.00    -0.365 OA
ATOM     14  H6  UNL     1      18.645  33.875   1.756  1.00  0.00     0.213 HD
ENDBRANCH  12  13
BRANCH  12  15
HETATM   15  O7  UNL     1      17.882  36.263   2.928  1.00  0.00    -0.365 OA
ATOM     16  H7  UNL     1      17.974  36.338   1.986  1.00  0.00     0.213 HD
ENDBRANCH  12  15
ENDBRANCH   9  12
BRANCH  11  17
HETATM   17  O9  UNL     1      21.607  35.385   6.761  1.00  0.00    -0.340 OA
ATOM     18  H9  UNL     1      22.108  36.182   6.890  1.00  0.00     0.220 HD
ENDBRANCH  11  17
ENDBRANCH   3   7
ENDBRANCH   1   3
BRANCH   1  19
HETATM   19  C5  UNL     1      19.853  36.011  10.328  1.00  0.00     0.114 A 
HETATM   20  C6  UNL     1      20.286  37.042  11.101  1.00  0.00     0.114 A 
HETATM   21  C10 UNL     1      19.418  36.728  12.114  1.00  0.00     0.252 A 
HETATM   22  O4  UNL     1      19.168  37.233  13.260  1.00  0.00    -0.281 OA
HETATM   23  C11 UNL     1      18.955  35.708  11.405  1.00  0.00     0.252 A 
HETATM   24  O5  UNL     1      18.097  34.787  11.528  1.00  0.00    -0.281 OA
BRANCH  20  25
HETATM   25  N2  UNL     1      21.288  38.087  11.039  1.00  0.00    -0.383 N 
ATOM     26  H2  UNL     1      21.845  38.242  10.198  1.00  0.00     0.160 HD
BRANCH  25  27
HETATM   27  C7  UNL     1      21.465  38.907  12.234  1.00  0.00     0.147 C 
BRANCH  27  28
HETATM   28  C8  UNL     1      22.865  38.779  12.787  1.00  0.00     0.209 C 
BRANCH  28  29
HETATM   29  O1  UNL     1      23.694  38.006  11.994  1.00  0.00    -0.274 OA
BRANCH  29  30
HETATM   30  S1  UNL     1      25.277  38.036  12.568  1.00  0.00     0.261 S 
HETATM   31  C9  UNL     1      26.328  36.929  11.667  1.00  0.00     0.194 C 
HETATM   32  O2  UNL     1      25.329  37.712  14.042  1.00  0.00    -0.199 OA
HETATM   33  O3  UNL     1      25.849  39.426  12.397  1.00  0.00    -0.199 OA
ENDBRANCH  29  30
ENDBRANCH  28  29
ENDBRANCH  27  28
ENDBRANCH  25  27
ENDBRANCH  20  25
ENDBRANCH   1  19
TORSDOF 13
ENDMDL
MODEL 5
REMARK VINA RESULT: -7.074275541      2.863      8.195
REMARK  13 active torsions:
REMARK  status: ('A' for Active; 'I' for Inactive)
REMARK    1  A    between atoms: C2_2  and  C4_4 
REMARK    2  A    between atoms: C4_4  and  N1_5 
REMARK    3  A    between atoms: C4_4  and  C12_22 
REMARK    4  A    between atoms: N1_5  and  C5_7 
REMARK    5  A    between atoms: C6_8  and  N2_9 
REMARK    6  A    between atoms: N2_9  and  C7_11 
REMARK    7  A    between atoms: C7_11  and  C8_12 
REMARK    8  A    between atoms: C8_12  and  O1_13 
REMARK    9  A    between atoms: O1_13  and  S1_14 
REMARK   10  A    between atoms: C14_24  and  C15_25 
REMARK   11  A    between atoms: C15_25  and  O6_26 
REMARK   12  A    between atoms: C15_25  and  O7_28 
REMARK   13  A    between atoms: C16_31  and  O9_32 
ROOT
HETATM    1  N1  UNL     1      20.129  36.626  10.952  1.00  0.00    -0.376 N 
ATOM      2  H1  UNL     1      19.810  37.576  10.759  1.00  0.00     0.160 HD
ENDROOT
BRANCH   1   3
HETATM    3  C4  UNL     1      20.962  36.477  12.141  1.00  0.00     0.123 C 
BRANCH   3   4
HETATM    4  C2  UNL     1      20.084  36.553  13.316  1.00  0.00     0.005 C 
HETATM    5  C1  UNL     1      18.693  37.000  13.275  1.00  0.00     0.012 C 
HETATM    6  C3  UNL     1      20.782  37.364  14.437  1.00  0.00     0.012 C 
ENDBRANCH   3   4
BRANCH   3   7
HETATM    7  C12 UNL     1      22.003  37.571  12.025  1.00  0.00     0.025 A 
HETATM    8  C13 UNL     1      23.385  37.414  12.115  1.00  0.00     0.052 A 
HETATM    9  C14 UNL     1      23.934  38.689  12.285  1.00  0.00     0.111 A 
HETATM   10  O8  UNL     1      22.928  39.517  12.277  1.00  0.00    -0.287 OA
HETATM   11  C16 UNL     1      21.772  38.918  12.129  1.00  0.00     0.192 A 
BRANCH   9  12
HETATM   12  C15 UNL     1      25.337  39.081  12.456  1.00  0.00     0.312 C 
BRANCH  12  13
HETATM   13  O6  UNL     1      25.945  39.538  11.271  1.00  0.00    -0.365 OA
ATOM     14  H6  UNL     1      26.883  39.666  11.348  1.00  0.00     0.213 HD
ENDBRANCH  12  13
BRANCH  12  15
HETATM   15  O7  UNL     1      26.086  38.022  12.969  1.00  0.00    -0.365 OA
ATOM     16  H7  UNL     1      26.974  38.300  13.159  1.00  0.00     0.213 HD
ENDBRANCH  12  15
ENDBRANCH   9  12
BRANCH  11  17
HETATM   17  O9  UNL     1      20.575  39.635  12.098  1.00  0.00    -0.340 OA
ATOM     18  H9  UNL     1      20.042  39.973  12.807  1.00  0.00     0.220 HD
ENDBRANCH  11  17
ENDBRANCH   3   7
ENDBRANCH   1   3
BRANCH   1  19
HETATM   19  C5  UNL     1      19.711  35.668  10.051  1.00  0.00     0.114 A 
HETATM   20  C6  UNL     1      19.839  35.206   8.779  1.00  0.00     0.114 A 
HETATM   21  C10 UNL     1      19.023  34.133   9.022  1.00  0.00     0.252 A 
HETATM   22  O4  UNL     1      18.609  33.153   8.316  1.00  0.00    -0.281 OA
HETATM   23  C11 UNL     1      18.862  34.534  10.275  1.00  0.00     0.252 A 
HETATM   24  O5  UNL     1      18.240  34.162  11.312  1.00  0.00    -0.281 OA
BRANCH  20  25
HETATM   25  N2  UNL     1      20.486  35.610   7.548  1.00  0.00    -0.383 N 
ATOM     26  H2  UNL     1      20.821  36.564   7.410  1.00  0.00     0.160 HD
BRANCH  25  27
HETATM   27  C7  UNL     1      20.638  34.590   6.514  1.00  0.00     0.147 C 
BRANCH  27  28
HETATM   28  C8  UNL     1      19.935  34.990   5.239  1.00  0.00     0.209 C 
BRANCH  28  29
HETATM   29  O1  UNL     1      18.560  34.866   5.315  1.00  0.00    -0.274 OA
BRANCH  29  30
HETATM   30  S1  UNL     1      17.838  36.348   5.659  1.00  0.00     0.261 S 
HETATM   31  C9  UNL     1      16.616  36.785   4.452  1.00  0.00     0.194 C 
HETATM   32  O2  UNL     1      18.871  37.444   5.769  1.00  0.00    -0.199 OA
HETATM   33  O3  UNL     1      17.131  36.267   6.995  1.00  0.00    -0.199 OA
ENDBRANCH  29  30
ENDBRANCH  28  29
ENDBRANCH  27  28
ENDBRANCH  25  27
ENDBRANCH  20  25
ENDBRANCH   1  19
TORSDOF 13
ENDMDL
