MODEL 1
REMARK VINA RESULT: -8.611388151      0.000      0.000
REMARK  14 active torsions:
REMARK  status: ('A' for Active; 'I' for Inactive)
REMARK    1  A    between atoms: O1_2  and  C2_3 
REMARK    2  A    between atoms: C2_3  and  C3_5 
REMARK    3  A    between atoms: C6_8  and  C7_9 
REMARK    4  A    between atoms: C7_9  and  C8_11 
REMARK    5  A    between atoms: C8_11  and  C19_30 
REMARK    6  A    between atoms: N1_12  and  N2_14 
REMARK    7  A    between atoms: N2_14  and  C9_16 
REMARK    8  A    between atoms: C9_16  and  O4_17 
REMARK    9  A    between atoms: C9_16  and  C10_19 
REMARK   10  A    between atoms: C10_19  and  C11_20 
REMARK   11  A    between atoms: C11_20  and  C12_22 
REMARK   12  A    between atoms: C15_25  and  O6_26 
REMARK   13  A    between atoms: C19_30  and  O7_31 
REMARK   14  A    between atoms: C19_30  and  O8_33 
ROOT
HETATM    1  C8  UNL     1      19.459  36.188  11.549  1.00  0.00     0.133 C 
HETATM    2  N1  UNL     1      20.306  36.900  10.898  1.00  0.00    -0.298 N 
ATOM      3  H1  UNL     1      20.524  36.589   9.951  1.00  0.00     0.186 HD
ENDROOT
BRANCH   2   4
HETATM    4  N2  UNL     1      20.950  38.024  11.327  1.00  0.00    -0.307 N 
ATOM      5  H2  UNL     1      20.517  38.932  11.157  1.00  0.00     0.183 HD
BRANCH   4   6
HETATM    6  C9  UNL     1      22.224  37.982  12.016  1.00  0.00     0.240 C 
BRANCH   6   7
HETATM    7  O4  UNL     1      22.051  38.065  13.400  1.00  0.00    -0.375 OA
ATOM      8  H4  UNL     1      22.831  37.777  13.860  1.00  0.00     0.212 HD
ENDBRANCH   6   7
BRANCH   6   9
HETATM    9  C10 UNL     1      23.125  39.116  11.616  1.00  0.00     0.138 C 
BRANCH   9  10
HETATM   10  C11 UNL     1      24.136  39.312  12.704  1.00  0.00     0.163 C 
HETATM   11  O5  UNL     1      23.885  40.062  13.671  1.00  0.00    -0.292 OA
BRANCH  10  12
HETATM   12  C12 UNL     1      25.431  38.639  12.663  1.00  0.00     0.010 A 
HETATM   13  C13 UNL     1      25.645  37.506  13.404  1.00  0.00     0.018 A 
HETATM   14  C14 UNL     1      26.886  36.884  13.346  1.00  0.00     0.037 A 
HETATM   15  C15 UNL     1      27.875  37.425  12.541  1.00  0.00     0.068 A 
HETATM   16  C17 UNL     1      27.648  38.556  11.807  1.00  0.00     0.037 A 
HETATM   17  C18 UNL     1      26.418  39.166  11.868  1.00  0.00     0.018 A 
BRANCH  15  18
HETATM   18  O6  UNL     1      29.104  36.764  12.518  1.00  0.00    -0.356 OA
HETATM   19  C16 UNL     1      29.512  36.039  13.650  1.00  0.00     0.210 C 
ENDBRANCH  15  18
ENDBRANCH  10  12
ENDBRANCH   9  10
ENDBRANCH   6   9
ENDBRANCH   4   6
ENDBRANCH   2   4
BRANCH   1  20
HETATM   20  C7  UNL     1      18.873  35.013  10.917  1.00  0.00     0.234 C 
HETATM   21  O3  UNL     1      17.989  34.365  11.538  1.00  0.00    -0.283 OA
BRANCH  20  22
HETATM   22  C6  UNL     1      19.266  34.544   9.583  1.00  0.00     0.128 A 
HETATM   23  C5  UNL     1      19.197  33.228   9.134  1.00  0.00     0.044 A 
HETATM   24  C4  UNL     1      19.658  33.231   7.844  1.00  0.00     0.046 A 
HETATM   25  C3  UNL     1      19.998  34.531   7.526  1.00  0.00     0.151 A 
HETATM   26  O9  UNL     1      19.741  35.238   8.588  1.00  0.00    -0.300 OA
BRANCH  25  27
HETATM   27  C2  UNL     1      20.540  35.000   6.234  1.00  0.00     0.317 C 
HETATM   28  O2  UNL     1      21.690  35.508   6.214  1.00  0.00    -0.257 OA
BRANCH  27  29
HETATM   29  O1  UNL     1      19.839  34.902   5.067  1.00  0.00    -0.321 OA
HETATM   30  C1  UNL     1      18.500  35.364   4.960  1.00  0.00     0.213 C 
ENDBRANCH  27  29
ENDBRANCH  25  27
ENDBRANCH  20  22
ENDBRANCH   1  20
BRANCH   1  31
HETATM   31  C19 UNL     1      19.114  36.575  12.935  1.00  0.00     0.310 C 
BRANCH  31  32
HETATM   32  O7  UNL     1      20.132  36.170  13.802  1.00  0.00    -0.366 OA
ATOM     33  H7  UNL     1      20.031  36.609  14.639  1.00  0.00     0.213 HD
ENDBRANCH  31  32
BRANCH  31  34
HETATM   34  O8  UNL     1      18.944  37.937  13.124  1.00  0.00    -0.366 OA
ATOM     35  H8  UNL     1      19.635  38.352  13.628  1.00  0.00     0.213 HD
ENDBRANCH  31  34
ENDBRANCH   1  31
TORSDOF 14
ENDMDL
MODEL 2
REMARK VINA RESULT: -8.555374156      1.257      1.899
REMARK  14 active torsions:
REMARK  status: ('A' for Active; 'I' for Inactive)
REMARK    1  A    between atoms: O1_2  and  C2_3 
REMARK    2  A    between atoms: C2_3  and  C3_5 
REMARK    3  A    between atoms: C6_8  and  C7_9 
REMARK    4  A    between atoms: C7_9  and  C8_11 
REMARK    5  A    between atoms: C8_11  and  C19_30 
REMARK    6  A    between atoms: N1_12  and  N2_14 
REMARK    7  A    between atoms: N2_14  and  C9_16 
REMARK    8  A    between atoms: C9_16  and  O4_17 
REMARK    9  A    between atoms: C9_16  and  C10_19 
REMARK   10  A    between atoms: C10_19  and  C11_20 
REMARK   11  A    between atoms: C11_20  and  C12_22 
REMARK   12  A    between atoms: C15_25  and  O6_26 
REMARK   13  A    between atoms: C19_30  and  O7_31 
REMARK   14  A    between atoms: C19_30  and  O8_33 
ROOT
HETATM    1  C8  UNL     1      19.691  36.003  10.436  1.00  0.00     0.133 C 
HETATM    2  N1  UNL     1      20.544  36.910  10.122  1.00  0.00    -0.298 N 
ATOM      3  H1  UNL     1      20.970  36.829   9.199  1.00  0.00     0.186 HD
ENDROOT
BRANCH   2   4
HETATM    4  N2  UNL     1      20.947  37.970  10.882  1.00  0.00    -0.307 N 
ATOM      5  H2  UNL     1      20.416  38.839  10.830  1.00  0.00     0.183 HD
BRANCH   4   6
HETATM    6  C9  UNL     1      22.097  37.912  11.760  1.00  0.00     0.240 C 
BRANCH   6   7
HETATM    7  O4  UNL     1      21.706  37.857  13.101  1.00  0.00    -0.375 OA
ATOM      8  H4  UNL     1      21.413  36.985  13.336  1.00  0.00     0.212 HD
ENDBRANCH   6   7
BRANCH   6   9
HETATM    9  C10 UNL     1      22.989  39.112  11.611  1.00  0.00     0.138 C 
BRANCH   9  10
HETATM   10  C11 UNL     1      23.907  39.159  12.794  1.00  0.00     0.163 C 
HETATM   11  O5  UNL     1      23.545  39.717  13.851  1.00  0.00    -0.292 OA
BRANCH  10  12
HETATM   12  C12 UNL     1      25.238  38.561  12.743  1.00  0.00     0.010 A 
HETATM   13  C13 UNL     1      25.527  37.452  13.495  1.00  0.00     0.018 A 
HETATM   14  C14 UNL     1      26.800  36.902  13.427  1.00  0.00     0.037 A 
HETATM   15  C15 UNL     1      27.745  37.488  12.601  1.00  0.00     0.068 A 
HETATM   16  C17 UNL     1      27.444  38.595  11.856  1.00  0.00     0.037 A 
HETATM   17  C18 UNL     1      26.182  39.134  11.928  1.00  0.00     0.018 A 
BRANCH  15  18
HETATM   18  O6  UNL     1      29.010  36.898  12.569  1.00  0.00    -0.356 OA
HETATM   19  C16 UNL     1      29.440  36.143  13.672  1.00  0.00     0.210 C 
ENDBRANCH  15  18
ENDBRANCH  10  12
ENDBRANCH   9  10
ENDBRANCH   6   9
ENDBRANCH   4   6
ENDBRANCH   2   4
BRANCH   1  20
HETATM   20  C7  UNL     1      19.389  34.941   9.485  1.00  0.00     0.234 C 
HETATM   21  O3  UNL     1      19.210  33.771   9.914  1.00  0.00    -0.283 OA
BRANCH  20  22
HETATM   22  C6  UNL     1      19.282  35.172   8.039  1.00  0.00     0.128 A 
HETATM   23  C5  UNL     1      20.255  34.856   7.094  1.00  0.00     0.044 A 
HETATM   24  C4  UNL     1      19.755  35.235   5.877  1.00  0.00     0.046 A 
HETATM   25  C3  UNL     1      18.500  35.771   6.091  1.00  0.00     0.151 A 
HETATM   26  O9  UNL     1      18.294  35.700   7.374  1.00  0.00    -0.300 OA
BRANCH  25  27
HETATM   27  C2  UNL     1      17.593  36.310   5.056  1.00  0.00     0.317 C 
HETATM   28  O2  UNL     1      16.577  36.952   5.424  1.00  0.00    -0.257 OA
BRANCH  27  29
HETATM   29  O1  UNL     1      17.820  36.135   3.721  1.00  0.00    -0.321 OA
HETATM   30  C1  UNL     1      17.995  34.843   3.157  1.00  0.00     0.213 C 
ENDBRANCH  27  29
ENDBRANCH  25  27
ENDBRANCH  20  22
ENDBRANCH   1  20
BRANCH   1  31
HETATM   31  C19 UNL     1      19.051  36.052  11.770  1.00  0.00     0.310 C 
BRANCH  31  32
HETATM   32  O7  UNL     1      18.640  37.358  12.045  1.00  0.00    -0.366 OA
ATOM     33  H7  UNL     1      18.590  37.486  12.985  1.00  0.00     0.213 HD
ENDBRANCH  31  32
BRANCH  31  34
HETATM   34  O8  UNL     1      17.932  35.245  11.897  1.00  0.00    -0.366 OA
ATOM     35  H8  UNL     1      17.747  34.968  12.787  1.00  0.00     0.213 HD
ENDBRANCH  31  34
ENDBRANCH   1  31
TORSDOF 14
ENDMDL
MODEL 3
REMARK VINA RESULT: -8.439303203      1.603      8.541
REMARK  14 active torsions:
REMARK  status: ('A' for Active; 'I' for Inactive)
REMARK    1  A    between atoms: O1_2  and  C2_3 
REMARK    2  A    between atoms: C2_3  and  C3_5 
REMARK    3  A    between atoms: C6_8  and  C7_9 
REMARK    4  A    between atoms: C7_9  and  C8_11 
REMARK    5  A    between atoms: C8_11  and  C19_30 
REMARK    6  A    between atoms: N1_12  and  N2_14 
REMARK    7  A    between atoms: N2_14  and  C9_16 
REMARK    8  A    between atoms: C9_16  and  O4_17 
REMARK    9  A    between atoms: C9_16  and  C10_19 
REMARK   10  A    between atoms: C10_19  and  C11_20 
REMARK   11  A    between atoms: C11_20  and  C12_22 
REMARK   12  A    between atoms: C15_25  and  O6_26 
REMARK   13  A    between atoms: C19_30  and  O7_31 
REMARK   14  A    between atoms: C19_30  and  O8_33 
ROOT
HETATM    1  C8  UNL     1      21.662  37.672  12.837  1.00  0.00     0.133 C 
HETATM    2  N1  UNL     1      21.610  37.077  11.700  1.00  0.00    -0.298 N 
ATOM      3  H1  UNL     1      22.261  37.407  10.988  1.00  0.00     0.186 HD
ENDROOT
BRANCH   2   4
HETATM    4  N2  UNL     1      20.783  36.054  11.336  1.00  0.00    -0.307 N 
ATOM      5  H2  UNL     1      20.966  35.121  11.708  1.00  0.00     0.183 HD
BRANCH   4   6
HETATM    6  C9  UNL     1      19.658  36.237  10.442  1.00  0.00     0.240 C 
BRANCH   6   7
HETATM    7  O4  UNL     1      18.843  37.289  10.868  1.00  0.00    -0.375 OA
ATOM      8  H4  UNL     1      18.076  36.965  11.325  1.00  0.00     0.212 HD
ENDBRANCH   6   7
BRANCH   6   9
HETATM    9  C10 UNL     1      18.790  35.013  10.362  1.00  0.00     0.138 C 
BRANCH   9  10
HETATM   10  C11 UNL     1      19.243  34.198   9.189  1.00  0.00     0.163 C 
HETATM   11  O5  UNL     1      19.827  33.108   9.367  1.00  0.00    -0.292 OA
BRANCH  10  12
HETATM   12  C12 UNL     1      19.018  34.652   7.820  1.00  0.00     0.010 A 
HETATM   13  C13 UNL     1      19.699  34.077   6.780  1.00  0.00     0.018 A 
HETATM   14  C14 UNL     1      19.466  34.528   5.487  1.00  0.00     0.037 A 
HETATM   15  C15 UNL     1      18.551  35.547   5.283  1.00  0.00     0.068 A 
HETATM   16  C17 UNL     1      17.878  36.113   6.330  1.00  0.00     0.037 A 
HETATM   17  C18 UNL     1      18.113  35.662   7.607  1.00  0.00     0.018 A 
BRANCH  15  18
HETATM   18  O6  UNL     1      18.353  35.965   3.965  1.00  0.00    -0.356 OA
HETATM   19  C16 UNL     1      18.263  35.000   2.949  1.00  0.00     0.210 C 
ENDBRANCH  15  18
ENDBRANCH  10  12
ENDBRANCH   9  10
ENDBRANCH   6   9
ENDBRANCH   4   6
ENDBRANCH   2   4
BRANCH   1  20
HETATM   20  C7  UNL     1      22.619  38.752  13.038  1.00  0.00     0.234 C 
HETATM   21  O3  UNL     1      22.224  39.825  13.566  1.00  0.00    -0.283 OA
BRANCH  20  22
HETATM   22  C6  UNL     1      24.032  38.649  12.654  1.00  0.00     0.128 A 
HETATM   23  C5  UNL     1      24.905  39.721  12.480  1.00  0.00     0.044 A 
HETATM   24  C4  UNL     1      26.114  39.186  12.124  1.00  0.00     0.046 A 
HETATM   25  C3  UNL     1      25.967  37.813  12.085  1.00  0.00     0.151 A 
HETATM   26  O9  UNL     1      24.728  37.576  12.405  1.00  0.00    -0.300 OA
BRANCH  25  27
HETATM   27  C2  UNL     1      27.019  36.831  11.746  1.00  0.00     0.317 C 
HETATM   28  O2  UNL     1      27.429  36.778  10.559  1.00  0.00    -0.257 OA
BRANCH  27  29
HETATM   29  O1  UNL     1      27.557  35.986  12.673  1.00  0.00    -0.321 OA
HETATM   30  C1  UNL     1      28.581  36.409  13.562  1.00  0.00     0.213 C 
ENDBRANCH  27  29
ENDBRANCH  25  27
ENDBRANCH  20  22
ENDBRANCH   1  20
BRANCH   1  31
HETATM   31  C19 UNL     1      20.731  37.253  13.908  1.00  0.00     0.310 C 
BRANCH  31  32
HETATM   32  O7  UNL     1      21.088  37.872  15.108  1.00  0.00    -0.366 OA
ATOM     33  H7  UNL     1      20.352  38.377  15.438  1.00  0.00     0.213 HD
ENDBRANCH  31  32
BRANCH  31  34
HETATM   34  O8  UNL     1      19.404  37.573  13.671  1.00  0.00    -0.366 OA
ATOM     35  H8  UNL     1      19.192  38.490  13.801  1.00  0.00     0.213 HD
ENDBRANCH  31  34
ENDBRANCH   1  31
TORSDOF 14
ENDMDL
MODEL 4
REMARK VINA RESULT: -8.168083159      1.570      8.570
REMARK  14 active torsions:
REMARK  status: ('A' for Active; 'I' for Inactive)
REMARK    1  A    between atoms: O1_2  and  C2_3 
REMARK    2  A    between atoms: C2_3  and  C3_5 
REMARK    3  A    between atoms: C6_8  and  C7_9 
REMARK    4  A    between atoms: C7_9  and  C8_11 
REMARK    5  A    between atoms: C8_11  and  C19_30 
REMARK    6  A    between atoms: N1_12  and  N2_14 
REMARK    7  A    between atoms: N2_14  and  C9_16 
REMARK    8  A    between atoms: C9_16  and  O4_17 
REMARK    9  A    between atoms: C9_16  and  C10_19 
REMARK   10  A    between atoms: C10_19  and  C11_20 
REMARK   11  A    between atoms: C11_20  and  C12_22 
REMARK   12  A    between atoms: C15_25  and  O6_26 
REMARK   13  A    between atoms: C19_30  and  O7_31 
REMARK   14  A    between atoms: C19_30  and  O8_33 
ROOT
HETATM    1  C8  UNL     1      21.431  37.574  12.814  1.00  0.00     0.133 C 
HETATM    2  N1  UNL     1      21.348  36.895  11.727  1.00  0.00    -0.298 N 
ATOM      3  H1  UNL     1      21.949  37.196  10.960  1.00  0.00     0.186 HD
ENDROOT
BRANCH   2   4
HETATM    4  N2  UNL     1      20.547  35.818  11.479  1.00  0.00    -0.307 N 
ATOM      5  H2  UNL     1      20.895  34.887  11.708  1.00  0.00     0.183 HD
BRANCH   4   6
HETATM    6  C9  UNL     1      19.223  35.942  10.906  1.00  0.00     0.240 C 
BRANCH   6   7
HETATM    7  O4  UNL     1      18.241  35.526  11.809  1.00  0.00    -0.375 OA
ATOM      8  H4  UNL     1      17.848  34.706  11.533  1.00  0.00     0.212 HD
ENDBRANCH   6   7
BRANCH   6   9
HETATM    9  C10 UNL     1      19.060  35.111   9.665  1.00  0.00     0.138 C 
BRANCH   9  10
HETATM   10  C11 UNL     1      19.698  35.846   8.525  1.00  0.00     0.163 C 
HETATM   11  O5  UNL     1      20.676  36.595   8.728  1.00  0.00    -0.292 OA
BRANCH  10  12
HETATM   12  C12 UNL     1      19.196  35.709   7.161  1.00  0.00     0.010 A 
HETATM   13  C13 UNL     1      19.812  34.859   6.280  1.00  0.00     0.018 A 
HETATM   14  C14 UNL     1      19.314  34.746   4.988  1.00  0.00     0.037 A 
HETATM   15  C15 UNL     1      18.208  35.495   4.624  1.00  0.00     0.068 A 
HETATM   16  C17 UNL     1      17.602  36.340   5.513  1.00  0.00     0.037 A 
HETATM   17  C18 UNL     1      18.100  36.446   6.790  1.00  0.00     0.018 A 
BRANCH  15  18
HETATM   18  O6  UNL     1      17.746  35.347   3.315  1.00  0.00    -0.356 OA
HETATM   19  C16 UNL     1      18.528  34.634   2.391  1.00  0.00     0.210 C 
ENDBRANCH  15  18
ENDBRANCH  10  12
ENDBRANCH   9  10
ENDBRANCH   6   9
ENDBRANCH   4   6
ENDBRANCH   2   4
BRANCH   1  20
HETATM   20  C7  UNL     1      22.352  38.701  12.889  1.00  0.00     0.234 C 
HETATM   21  O3  UNL     1      21.903  39.834  13.207  1.00  0.00    -0.283 OA
BRANCH  20  22
HETATM   22  C6  UNL     1      23.787  38.578  12.608  1.00  0.00     0.128 A 
HETATM   23  C5  UNL     1      24.678  39.639  12.465  1.00  0.00     0.044 A 
HETATM   24  C4  UNL     1      25.905  39.087  12.212  1.00  0.00     0.046 A 
HETATM   25  C3  UNL     1      25.751  37.715  12.203  1.00  0.00     0.151 A 
HETATM   26  O9  UNL     1      24.491  37.494  12.442  1.00  0.00    -0.300 OA
BRANCH  25  27
HETATM   27  C2  UNL     1      26.817  36.718  11.969  1.00  0.00     0.317 C 
HETATM   28  O2  UNL     1      26.491  35.578  11.551  1.00  0.00    -0.257 OA
BRANCH  27  29
HETATM   29  O1  UNL     1      28.136  36.991  12.189  1.00  0.00    -0.321 OA
HETATM   30  C1  UNL     1      28.756  36.716  13.437  1.00  0.00     0.213 C 
ENDBRANCH  27  29
ENDBRANCH  25  27
ENDBRANCH  20  22
ENDBRANCH   1  20
BRANCH   1  31
HETATM   31  C19 UNL     1      20.571  37.200  13.959  1.00  0.00     0.310 C 
BRANCH  31  32
HETATM   32  O7  UNL     1      21.017  37.849  15.113  1.00  0.00    -0.366 OA
ATOM     33  H7  UNL     1      21.176  37.210  15.798  1.00  0.00     0.213 HD
ENDBRANCH  31  32
BRANCH  31  34
HETATM   34  O8  UNL     1      19.235  37.532  13.804  1.00  0.00    -0.366 OA
ATOM     35  H8  UNL     1      18.629  36.834  14.026  1.00  0.00     0.213 HD
ENDBRANCH  31  34
ENDBRANCH   1  31
TORSDOF 14
ENDMDL
MODEL 5
REMARK VINA RESULT: -8.009866820      0.845      1.369
REMARK  14 active torsions:
REMARK  status: ('A' for Active; 'I' for Inactive)
REMARK    1  A    between atoms: O1_2  and  C2_3 
REMARK    2  A    between atoms: C2_3  and  C3_5 
REMARK    3  A    between atoms: C6_8  and  C7_9 
REMARK    4  A    between atoms: C7_9  and  C8_11 
REMARK    5  A    between atoms: C8_11  and  C19_30 
REMARK    6  A    between atoms: N1_12  and  N2_14 
REMARK    7  A    between atoms: N2_14  and  C9_16 
REMARK    8  A    between atoms: C9_16  and  O4_17 
REMARK    9  A    between atoms: C9_16  and  C10_19 
REMARK   10  A    between atoms: C10_19  and  C11_20 
REMARK   11  A    between atoms: C11_20  and  C12_22 
REMARK   12  A    between atoms: C15_25  and  O6_26 
REMARK   13  A    between atoms: C19_30  and  O7_31 
REMARK   14  A    between atoms: C19_30  and  O8_33 
ROOT
HETATM    1  C8  UNL     1      20.026  36.635  11.896  1.00  0.00     0.133 C 
HETATM    2  N1  UNL     1      20.993  37.126  11.207  1.00  0.00    -0.298 N 
ATOM      3  H1  UNL     1      21.072  36.798  10.245  1.00  0.00     0.186 HD
ENDROOT
BRANCH   2   4
HETATM    4  N2  UNL     1      21.926  38.035  11.615  1.00  0.00    -0.307 N 
ATOM      5  H2  UNL     1      22.698  38.258  10.988  1.00  0.00     0.183 HD
BRANCH   4   6
HETATM    6  C9  UNL     1      21.864  38.695  12.903  1.00  0.00     0.240 C 
BRANCH   6   7
HETATM    7  O4  UNL     1      21.365  39.995  12.779  1.00  0.00    -0.375 OA
ATOM      8  H4  UNL     1      20.419  40.007  12.865  1.00  0.00     0.212 HD
ENDBRANCH   6   7
BRANCH   6   9
HETATM    9  C10 UNL     1      23.215  38.803  13.552  1.00  0.00     0.138 C 
BRANCH   9  10
HETATM   10  C11 UNL     1      24.224  39.088  12.482  1.00  0.00     0.163 C 
HETATM   11  O5  UNL     1      23.942  39.856  11.538  1.00  0.00    -0.292 OA
BRANCH  10  12
HETATM   12  C12 UNL     1      25.551  38.481  12.513  1.00  0.00     0.010 A 
HETATM   13  C13 UNL     1      26.538  38.932  11.676  1.00  0.00     0.018 A 
HETATM   14  C14 UNL     1      27.792  38.338  11.726  1.00  0.00     0.037 A 
HETATM   15  C15 UNL     1      28.013  37.304  12.621  1.00  0.00     0.068 A 
HETATM   16  C17 UNL     1      27.020  36.863  13.451  1.00  0.00     0.037 A 
HETATM   17  C18 UNL     1      25.781  37.456  13.396  1.00  0.00     0.018 A 
BRANCH  15  18
HETATM   18  O6  UNL     1      29.290  36.740  12.632  1.00  0.00    -0.356 OA
HETATM   19  C16 UNL     1      29.606  35.784  13.611  1.00  0.00     0.210 C 
ENDBRANCH  15  18
ENDBRANCH  10  12
ENDBRANCH   9  10
ENDBRANCH   6   9
ENDBRANCH   4   6
ENDBRANCH   2   4
BRANCH   1  20
HETATM   20  C7  UNL     1      19.126  35.668  11.282  1.00  0.00     0.234 C 
HETATM   21  O3  UNL     1      18.092  35.314  11.910  1.00  0.00    -0.283 OA
BRANCH  20  22
HETATM   22  C6  UNL     1      19.366  35.082   9.958  1.00  0.00     0.128 A 
HETATM   23  C5  UNL     1      19.149  33.751   9.609  1.00  0.00     0.044 A 
HETATM   24  C4  UNL     1      19.500  33.631   8.292  1.00  0.00     0.046 A 
HETATM   25  C3  UNL     1      19.921  34.872   7.857  1.00  0.00     0.151 A 
HETATM   26  O9  UNL     1      19.814  35.666   8.883  1.00  0.00    -0.300 OA
BRANCH  25  27
HETATM   27  C2  UNL     1      20.392  35.208   6.497  1.00  0.00     0.317 C 
HETATM   28  O2  UNL     1      21.617  35.431   6.324  1.00  0.00    -0.257 OA
BRANCH  27  29
HETATM   29  O1  UNL     1      19.547  35.283   5.427  1.00  0.00    -0.321 OA
HETATM   30  C1  UNL     1      18.282  35.923   5.521  1.00  0.00     0.213 C 
ENDBRANCH  27  29
ENDBRANCH  25  27
ENDBRANCH  20  22
ENDBRANCH   1  20
BRANCH   1  31
HETATM   31  C19 UNL     1      19.866  37.056  13.306  1.00  0.00     0.310 C 
BRANCH  31  32
HETATM   32  O7  UNL     1      18.566  37.523  13.512  1.00  0.00    -0.366 OA
ATOM     33  H7  UNL     1      18.198  37.113  14.286  1.00  0.00     0.213 HD
ENDBRANCH  31  32
BRANCH  31  34
HETATM   34  O8  UNL     1      20.080  36.047  14.232  1.00  0.00    -0.366 OA
ATOM     35  H8  UNL     1      19.396  35.963  14.886  1.00  0.00     0.213 HD
ENDBRANCH  31  34
ENDBRANCH   1  31
TORSDOF 14
ENDMDL
