MODEL 1
REMARK VINA RESULT: -4.790778905      0.000      0.000
REMARK  4 active torsions:
REMARK  status: ('A' for Active; 'I' for Inactive)
REMARK    1  A    between atoms: C1_4  and  O1_5 
REMARK    2  A    between atoms: C1_4  and  C2_7 
REMARK    3  A    between atoms: C2_7  and  O2_8 
REMARK    4  A    between atoms: C2_7  and  C3_10 
ROOT
HETATM    1  N1  UNL     1      44.055 -33.054  -6.942  1.00  0.00    -0.382 N 
ATOM      2  H11 UNL     1      43.542 -33.922  -7.095  1.00  0.00     0.158 HD
ATOM      3  H12 UNL     1      44.770 -32.767  -7.612  1.00  0.00     0.158 HD
HETATM    4  C1  UNL     1      43.806 -32.322  -5.914  1.00  0.00     0.139 C 
ENDROOT
BRANCH   4   5
HETATM    5  O1  UNL     1      44.499 -31.148  -5.709  1.00  0.00    -0.348 OA
ATOM      6  H1  UNL     1      44.034 -30.326  -5.606  1.00  0.00     0.219 HD
ENDBRANCH   4   5
BRANCH   4   7
HETATM    7  C2  UNL     1      42.788 -32.731  -4.960  1.00  0.00     0.196 C 
BRANCH   7   8
HETATM    8  O2  UNL     1      41.888 -31.652  -4.823  1.00  0.00    -0.387 OA
ATOM      9  H2  UNL     1      41.188 -31.942  -4.250  1.00  0.00     0.210 HD
ENDBRANCH   7   8
BRANCH   7  10
HETATM   10  C3  UNL     1      42.053 -33.983  -5.321  1.00  0.00     0.022 A 
HETATM   11  C4  UNL     1      42.405 -35.306  -4.832  1.00  0.00     0.008 A 
HETATM   12  C5  UNL     1      41.205 -34.614  -4.212  1.00  0.00     0.008 A 
ENDBRANCH   7  10
ENDBRANCH   4   7
TORSDOF 4
ENDMDL
MODEL 2
REMARK VINA RESULT: -4.689270328      1.654      1.669
REMARK  4 active torsions:
REMARK  status: ('A' for Active; 'I' for Inactive)
REMARK    1  A    between atoms: C1_4  and  O1_5 
REMARK    2  A    between atoms: C1_4  and  C2_7 
REMARK    3  A    between atoms: C2_7  and  O2_8 
REMARK    4  A    between atoms: C2_7  and  C3_10 
ROOT
HETATM    1  N1  UNL     1      44.708 -31.948  -3.302  1.00  0.00    -0.382 N 
ATOM      2  H11 UNL     1      44.414 -32.634  -2.607  1.00  0.00     0.158 HD
ATOM      3  H12 UNL     1      45.533 -31.374  -3.126  1.00  0.00     0.158 HD
HETATM    4  C1  UNL     1      44.047 -31.805  -4.397  1.00  0.00     0.139 C 
ENDROOT
BRANCH   4   5
HETATM    5  O1  UNL     1      44.445 -30.877  -5.336  1.00  0.00    -0.348 OA
ATOM      6  H1  UNL     1      43.853 -30.610  -6.030  1.00  0.00     0.219 HD
ENDBRANCH   4   5
BRANCH   4   7
HETATM    7  C2  UNL     1      42.872 -32.622  -4.648  1.00  0.00     0.196 C 
BRANCH   7   8
HETATM    8  O2  UNL     1      42.007 -31.867  -5.470  1.00  0.00    -0.387 OA
ATOM      9  H2  UNL     1      42.432 -31.775  -6.314  1.00  0.00     0.210 HD
ENDBRANCH   7   8
BRANCH   7  10
HETATM   10  C3  UNL     1      43.152 -33.954  -5.268  1.00  0.00     0.022 A 
HETATM   11  C4  UNL     1      43.157 -35.210  -4.536  1.00  0.00     0.008 A 
HETATM   12  C5  UNL     1      41.955 -34.901  -5.409  1.00  0.00     0.008 A 
ENDBRANCH   7  10
ENDBRANCH   4   7
TORSDOF 4
ENDMDL
MODEL 3
REMARK VINA RESULT: -4.673384266      5.472      6.368
REMARK  4 active torsions:
REMARK  status: ('A' for Active; 'I' for Inactive)
REMARK    1  A    between atoms: C1_4  and  O1_5 
REMARK    2  A    between atoms: C1_4  and  C2_7 
REMARK    3  A    between atoms: C2_7  and  O2_8 
REMARK    4  A    between atoms: C2_7  and  C3_10 
ROOT
HETATM    1  N1  UNL     1      42.692 -39.932  -3.300  1.00  0.00    -0.382 N 
ATOM      2  H11 UNL     1      43.711 -39.920  -3.247  1.00  0.00     0.158 HD
ATOM      3  H12 UNL     1      42.222 -40.704  -3.775  1.00  0.00     0.158 HD
HETATM    4  C1  UNL     1      42.001 -38.984  -2.773  1.00  0.00     0.139 C 
ENDROOT
BRANCH   4   5
HETATM    5  O1  UNL     1      40.624 -39.001  -2.845  1.00  0.00    -0.348 OA
ATOM      6  H1  UNL     1      40.178 -38.640  -3.602  1.00  0.00     0.219 HD
ENDBRANCH   4   5
BRANCH   4   7
HETATM    7  C2  UNL     1      42.671 -37.885  -2.097  1.00  0.00     0.196 C 
BRANCH   7   8
HETATM    8  O2  UNL     1      43.647 -38.451  -1.248  1.00  0.00    -0.387 OA
ATOM      9  H2  UNL     1      43.540 -38.051  -0.393  1.00  0.00     0.210 HD
ENDBRANCH   7   8
BRANCH   7  10
HETATM   10  C3  UNL     1      43.291 -36.872  -3.006  1.00  0.00     0.022 A 
HETATM   11  C4  UNL     1      42.550 -36.085  -3.978  1.00  0.00     0.008 A 
HETATM   12  C5  UNL     1      42.983 -35.403  -2.693  1.00  0.00     0.008 A 
ENDBRANCH   7  10
ENDBRANCH   4   7
TORSDOF 4
ENDMDL
MODEL 4
REMARK VINA RESULT: -4.564170928      5.576      6.457
REMARK  4 active torsions:
REMARK  status: ('A' for Active; 'I' for Inactive)
REMARK    1  A    between atoms: C1_4  and  O1_5 
REMARK    2  A    between atoms: C1_4  and  C2_7 
REMARK    3  A    between atoms: C2_7  and  O2_8 
REMARK    4  A    between atoms: C2_7  and  C3_10 
ROOT
HETATM    1  N1  UNL     1      40.798 -39.015  -2.571  1.00  0.00    -0.382 N 
ATOM      2  H11 UNL     1      40.260 -38.241  -2.183  1.00  0.00     0.158 HD
ATOM      3  H12 UNL     1      40.311 -39.813  -2.980  1.00  0.00     0.158 HD
HETATM    4  C1  UNL     1      42.084 -38.990  -2.549  1.00  0.00     0.139 C 
ENDROOT
BRANCH   4   5
HETATM    5  O1  UNL     1      42.812 -40.036  -3.075  1.00  0.00    -0.348 OA
ATOM      6  H1  UNL     1      43.753 -39.959  -3.188  1.00  0.00     0.219 HD
ENDBRANCH   4   5
BRANCH   4   7
HETATM    7  C2  UNL     1      42.779 -37.854  -1.966  1.00  0.00     0.196 C 
BRANCH   7   8
HETATM    8  O2  UNL     1      43.810 -38.369  -1.151  1.00  0.00    -0.387 OA
ATOM      9  H2  UNL     1      43.396 -38.773  -0.397  1.00  0.00     0.210 HD
ENDBRANCH   7   8
BRANCH   7  10
HETATM   10  C3  UNL     1      43.332 -36.878  -2.956  1.00  0.00     0.022 A 
HETATM   11  C4  UNL     1      42.528 -36.162  -3.932  1.00  0.00     0.008 A 
HETATM   12  C5  UNL     1      43.004 -35.402  -2.707  1.00  0.00     0.008 A 
ENDBRANCH   7  10
ENDBRANCH   4   7
TORSDOF 4
ENDMDL
MODEL 5
REMARK VINA RESULT: -4.441432646      4.406      4.913
REMARK  4 active torsions:
REMARK  status: ('A' for Active; 'I' for Inactive)
REMARK    1  A    between atoms: C1_4  and  O1_5 
REMARK    2  A    between atoms: C1_4  and  C2_7 
REMARK    3  A    between atoms: C2_7  and  O2_8 
REMARK    4  A    between atoms: C2_7  and  C3_10 
ROOT
HETATM    1  N1  UNL     1      43.566 -34.123  -1.310  1.00  0.00    -0.382 N 
ATOM      2  H11 UNL     1      43.152 -33.347  -0.792  1.00  0.00     0.158 HD
ATOM      3  H12 UNL     1      44.507 -34.027  -1.693  1.00  0.00     0.158 HD
HETATM    4  C1  UNL     1      42.910 -35.216  -1.480  1.00  0.00     0.139 C 
ENDROOT
BRANCH   4   5
HETATM    5  O1  UNL     1      43.470 -36.264  -2.180  1.00  0.00    -0.348 OA
ATOM      6  H1  UNL     1      42.952 -37.032  -2.393  1.00  0.00     0.219 HD
ENDBRANCH   4   5
BRANCH   4   7
HETATM    7  C2  UNL     1      41.569 -35.352  -0.935  1.00  0.00     0.196 C 
BRANCH   7   8
HETATM    8  O2  UNL     1      41.604 -34.858   0.387  1.00  0.00    -0.387 OA
ATOM      9  H2  UNL     1      40.943 -35.329   0.880  1.00  0.00     0.210 HD
ENDBRANCH   7   8
BRANCH   7  10
HETATM   10  C3  UNL     1      40.497 -34.666  -1.722  1.00  0.00     0.022 A 
HETATM   11  C4  UNL     1      40.477 -34.584  -3.173  1.00  0.00     0.008 A 
HETATM   12  C5  UNL     1      39.544 -35.577  -2.505  1.00  0.00     0.008 A 
ENDBRANCH   7  10
ENDBRANCH   4   7
TORSDOF 4
ENDMDL
