MODEL 1
REMARK VINA RESULT: -4.810940449      0.000      0.000
REMARK  1 active torsions:
REMARK  status: ('A' for Active; 'I' for Inactive)
REMARK    1  A    between atoms: C1_2  and  C2_4 
ROOT
HETATM    1  C2  UNL     1      43.304 -34.013  -5.267  1.00  0.00     0.087 C 
HETATM    2  C3  UNL     1      42.093 -34.947  -5.443  1.00  0.00     0.015 C 
HETATM    3  C4  UNL     1      42.698 -35.697  -4.243  1.00  0.00     0.002 C 
HETATM    4  C5  UNL     1      43.124 -34.305  -3.767  1.00  0.00     0.015 C 
ENDROOT
BRANCH   1   5
HETATM    5  C1  UNL     1      43.067 -32.623  -5.639  1.00  0.00     0.177 C 
HETATM    6  O1  UNL     1      42.024 -32.045  -5.314  1.00  0.00    -0.648 OA
HETATM    7  O2  UNL     1      44.007 -31.908  -6.369  1.00  0.00    -0.648 OA
ENDBRANCH   1   5
TORSDOF 1
ENDMDL
MODEL 2
REMARK VINA RESULT: -4.801261968      0.080      1.203
REMARK  1 active torsions:
REMARK  status: ('A' for Active; 'I' for Inactive)
REMARK    1  A    between atoms: C1_2  and  C2_4 
ROOT
HETATM    1  C2  UNL     1      43.354 -34.019  -5.309  1.00  0.00     0.087 C 
HETATM    2  C3  UNL     1      42.117 -34.921  -5.465  1.00  0.00     0.015 C 
HETATM    3  C4  UNL     1      42.720 -35.685  -4.273  1.00  0.00     0.002 C 
HETATM    4  C5  UNL     1      43.189 -34.304  -3.806  1.00  0.00     0.015 C 
ENDROOT
BRANCH   1   5
HETATM    5  C1  UNL     1      43.148 -32.624  -5.681  1.00  0.00     0.177 C 
HETATM    6  O1  UNL     1      43.986 -32.014  -6.354  1.00  0.00    -0.648 OA
HETATM    7  O2  UNL     1      42.005 -31.940  -5.289  1.00  0.00    -0.648 OA
ENDBRANCH   1   5
TORSDOF 1
ENDMDL
MODEL 3
REMARK VINA RESULT: -4.576764354      3.288      3.759
REMARK  1 active torsions:
REMARK  status: ('A' for Active; 'I' for Inactive)
REMARK    1  A    between atoms: C1_2  and  C2_4 
ROOT
HETATM    1  C2  UNL     1      41.587 -34.407  -3.479  1.00  0.00     0.087 C 
HETATM    2  C3  UNL     1      41.198 -34.205  -4.954  1.00  0.00     0.015 C 
HETATM    3  C4  UNL     1      42.573 -34.834  -5.237  1.00  0.00     0.002 C 
HETATM    4  C5  UNL     1      42.289 -35.677  -3.991  1.00  0.00     0.015 C 
ENDROOT
BRANCH   1   5
HETATM    5  C1  UNL     1      40.469 -34.663  -2.578  1.00  0.00     0.177 C 
HETATM    6  O1  UNL     1      39.519 -35.373  -2.927  1.00  0.00    -0.648 OA
HETATM    7  O2  UNL     1      40.439 -34.117  -1.302  1.00  0.00    -0.648 OA
ENDBRANCH   1   5
TORSDOF 1
ENDMDL
MODEL 4
REMARK VINA RESULT: -4.567739086      2.673      3.602
REMARK  1 active torsions:
REMARK  status: ('A' for Active; 'I' for Inactive)
REMARK    1  A    between atoms: C1_2  and  C2_4 
ROOT
HETATM    1  C2  UNL     1      41.068 -34.511  -3.649  1.00  0.00     0.087 C 
HETATM    2  C3  UNL     1      42.285 -35.398  -3.969  1.00  0.00     0.015 C 
HETATM    3  C4  UNL     1      42.066 -34.904  -5.410  1.00  0.00     0.002 C 
HETATM    4  C5  UNL     1      41.635 -33.593  -4.746  1.00  0.00     0.015 C 
ENDROOT
BRANCH   1   5
HETATM    5  C1  UNL     1      41.071 -33.922  -2.314  1.00  0.00     0.177 C 
HETATM    6  O1  UNL     1      41.852 -33.009  -2.022  1.00  0.00    -0.648 OA
HETATM    7  O2  UNL     1      40.196 -34.369  -1.334  1.00  0.00    -0.648 OA
ENDBRANCH   1   5
TORSDOF 1
ENDMDL
MODEL 5
REMARK VINA RESULT: -4.559978497      3.209      3.756
REMARK  1 active torsions:
REMARK  status: ('A' for Active; 'I' for Inactive)
REMARK    1  A    between atoms: C1_2  and  C2_4 
ROOT
HETATM    1  C2  UNL     1      41.640 -34.394  -3.469  1.00  0.00     0.087 C 
HETATM    2  C3  UNL     1      41.215 -34.194  -4.934  1.00  0.00     0.015 C 
HETATM    3  C4  UNL     1      42.562 -34.868  -5.251  1.00  0.00     0.002 C 
HETATM    4  C5  UNL     1      42.287 -35.690  -3.988  1.00  0.00     0.015 C 
ENDROOT
BRANCH   1   5
HETATM    5  C1  UNL     1      40.541 -34.606  -2.534  1.00  0.00     0.177 C 
HETATM    6  O1  UNL     1      40.534 -34.060  -1.424  1.00  0.00    -0.648 OA
HETATM    7  O2  UNL     1      39.471 -35.427  -2.862  1.00  0.00    -0.648 OA
ENDBRANCH   1   5
TORSDOF 1
ENDMDL
