MODEL 1
REMARK VINA RESULT: -4.040604785      0.000      0.000
REMARK  2 active torsions:
REMARK  status: ('A' for Active; 'I' for Inactive)
REMARK    1  A    between atoms: C1_2  and  C2_4 
REMARK    2  A    between atoms: C4_6  and  O3_7 
ROOT
HETATM    1  C2  UNL     1      41.500 -34.303  -5.042  1.00  0.00     0.118 A 
HETATM    2  C3  UNL     1      42.097 -35.371  -4.214  1.00  0.00     0.050 A 
HETATM    3  C4  UNL     1      41.127 -34.394  -3.614  1.00  0.00     0.133 A 
ENDROOT
BRANCH   1   4
HETATM    4  C1  UNL     1      42.370 -33.182  -5.470  1.00  0.00     0.179 C 
HETATM    5  O1  UNL     1      42.047 -31.968  -5.250  1.00  0.00    -0.648 OA
HETATM    6  O2  UNL     1      43.575 -33.398  -6.128  1.00  0.00    -0.648 OA
ENDBRANCH   1   4
BRANCH   3   7
HETATM    7  O3  UNL     1      39.922 -34.968  -3.211  1.00  0.00    -0.395 OA
ATOM      8  H3  UNL     1      39.651 -34.965  -2.301  1.00  0.00     0.210 HD
ENDBRANCH   3   7
TORSDOF 2
ENDMDL
MODEL 2
REMARK VINA RESULT: -4.037387412      1.635      3.732
REMARK  2 active torsions:
REMARK  status: ('A' for Active; 'I' for Inactive)
REMARK    1  A    between atoms: C1_2  and  C2_4 
REMARK    2  A    between atoms: C4_6  and  O3_7 
ROOT
HETATM    1  C2  UNL     1      42.760 -32.957  -5.299  1.00  0.00     0.118 A 
HETATM    2  C3  UNL     1      44.197 -32.943  -4.953  1.00  0.00     0.050 A 
HETATM    3  C4  UNL     1      43.759 -33.047  -6.386  1.00  0.00     0.133 A 
ENDROOT
BRANCH   1   4
HETATM    4  C1  UNL     1      41.974 -34.169  -4.968  1.00  0.00     0.179 C 
HETATM    5  O1  UNL     1      42.307 -35.319  -5.407  1.00  0.00    -0.648 OA
HETATM    6  O2  UNL     1      40.840 -34.112  -4.166  1.00  0.00    -0.648 OA
ENDBRANCH   1   4
BRANCH   3   7
HETATM    7  O3  UNL     1      44.093 -31.936  -7.161  1.00  0.00    -0.395 OA
ATOM      8  H3  UNL     1      44.672 -31.259  -6.833  1.00  0.00     0.210 HD
ENDBRANCH   3   7
TORSDOF 2
ENDMDL
MODEL 3
REMARK VINA RESULT: -4.007897216      1.675      3.564
REMARK  2 active torsions:
REMARK  status: ('A' for Active; 'I' for Inactive)
REMARK    1  A    between atoms: C1_2  and  C2_4 
REMARK    2  A    between atoms: C4_6  and  O3_7 
ROOT
HETATM    1  C2  UNL     1      42.719 -32.772  -5.344  1.00  0.00     0.118 A 
HETATM    2  C3  UNL     1      44.137 -32.670  -4.942  1.00  0.00     0.050 A 
HETATM    3  C4  UNL     1      43.767 -32.909  -6.378  1.00  0.00     0.133 A 
ENDROOT
BRANCH   1   4
HETATM    4  C1  UNL     1      41.965 -33.984  -4.945  1.00  0.00     0.179 C 
HETATM    5  O1  UNL     1      41.042 -33.933  -4.065  1.00  0.00    -0.648 OA
HETATM    6  O2  UNL     1      42.224 -35.228  -5.506  1.00  0.00    -0.648 OA
ENDBRANCH   1   4
BRANCH   3   7
HETATM    7  O3  UNL     1      44.093 -31.852  -7.228  1.00  0.00    -0.395 OA
ATOM      8  H3  UNL     1      44.179 -31.979  -8.166  1.00  0.00     0.210 HD
ENDBRANCH   3   7
TORSDOF 2
ENDMDL
MODEL 4
REMARK VINA RESULT: -3.996186248      0.117      1.216
REMARK  2 active torsions:
REMARK  status: ('A' for Active; 'I' for Inactive)
REMARK    1  A    between atoms: C1_2  and  C2_4 
REMARK    2  A    between atoms: C4_6  and  O3_7 
ROOT
HETATM    1  C2  UNL     1      41.524 -34.429  -5.020  1.00  0.00     0.118 A 
HETATM    2  C3  UNL     1      42.112 -35.431  -4.106  1.00  0.00     0.050 A 
HETATM    3  C4  UNL     1      41.113 -34.430  -3.599  1.00  0.00     0.133 A 
ENDROOT
BRANCH   1   4
HETATM    4  C1  UNL     1      42.391 -33.327  -5.498  1.00  0.00     0.179 C 
HETATM    5  O1  UNL     1      43.488 -33.560  -6.106  1.00  0.00    -0.648 OA
HETATM    6  O2  UNL     1      42.053 -31.992  -5.310  1.00  0.00    -0.648 OA
ENDBRANCH   1   4
BRANCH   3   7
HETATM    7  O3  UNL     1      39.904 -34.995  -3.191  1.00  0.00    -0.395 OA
ATOM      8  H3  UNL     1      39.850 -35.900  -2.911  1.00  0.00     0.210 HD
ENDBRANCH   3   7
TORSDOF 2
ENDMDL
MODEL 5
REMARK VINA RESULT: -3.953591569      1.574      2.025
REMARK  2 active torsions:
REMARK  status: ('A' for Active; 'I' for Inactive)
REMARK    1  A    between atoms: C1_2  and  C2_4 
REMARK    2  A    between atoms: C4_6  and  O3_7 
ROOT
HETATM    1  C2  UNL     1      41.636 -34.153  -4.450  1.00  0.00     0.118 A 
HETATM    2  C3  UNL     1      42.004 -34.881  -5.682  1.00  0.00     0.050 A 
HETATM    3  C4  UNL     1      42.680 -35.199  -4.379  1.00  0.00     0.133 A 
ENDROOT
BRANCH   1   4
HETATM    4  C1  UNL     1      42.052 -32.736  -4.324  1.00  0.00     0.179 C 
HETATM    5  O1  UNL     1      42.051 -31.951  -5.330  1.00  0.00    -0.648 OA
HETATM    6  O2  UNL     1      42.463 -32.196  -3.112  1.00  0.00    -0.648 OA
ENDBRANCH   1   4
BRANCH   3   7
HETATM    7  O3  UNL     1      42.400 -36.476  -3.893  1.00  0.00    -0.395 OA
ATOM      8  H3  UNL     1      42.297 -37.216  -4.478  1.00  0.00     0.210 HD
ENDBRANCH   3   7
TORSDOF 2
ENDMDL
