MODEL 1
REMARK VINA RESULT: -4.563462320      0.000      0.000
REMARK  1 active torsions:
REMARK  status: ('A' for Active; 'I' for Inactive)
REMARK    1  A    between atoms: N1_2  and  N2_3 
ROOT
HETATM    1  N2  UNL     1      41.880 -34.561  -3.083  1.00  0.00    -0.226 NA
HETATM    2  C2  UNL     1      42.191 -35.836  -2.434  1.00  0.00     0.112 A 
HETATM    3  C3  UNL     1      43.084 -36.226  -3.587  1.00  0.00     0.042 A 
HETATM    4  C4  UNL     1      42.637 -34.975  -4.225  1.00  0.00     0.030 A 
HETATM    5  C5  UNL     1      42.177 -34.845  -5.603  1.00  0.00     0.029 A 
HETATM    6  C6  UNL     1      43.427 -34.106  -5.065  1.00  0.00     0.029 A 
ENDROOT
BRANCH   1   7
HETATM    7  N1  UNL     1      40.524 -34.513  -3.372  1.00  0.00    -0.169 NA
HETATM    8  C1  UNL     1      39.764 -35.301  -2.448  1.00  0.00     0.152 C 
ENDBRANCH   1   7
TORSDOF 1
ENDMDL
MODEL 2
REMARK VINA RESULT: -4.521686610      1.701      3.257
REMARK  1 active torsions:
REMARK  status: ('A' for Active; 'I' for Inactive)
REMARK    1  A    between atoms: N1_2  and  N2_3 
ROOT
HETATM    1  N2  UNL     1      41.391 -33.725  -5.154  1.00  0.00    -0.226 NA
HETATM    2  C2  UNL     1      42.417 -34.620  -5.694  1.00  0.00     0.112 A 
HETATM    3  C3  UNL     1      42.297 -35.518  -4.487  1.00  0.00     0.042 A 
HETATM    4  C4  UNL     1      41.356 -34.513  -3.959  1.00  0.00     0.030 A 
HETATM    5  C5  UNL     1      41.379 -33.958  -2.611  1.00  0.00     0.029 A 
HETATM    6  C6  UNL     1      40.180 -34.771  -3.161  1.00  0.00     0.029 A 
ENDROOT
BRANCH   1   7
HETATM    7  N1  UNL     1      41.952 -32.479  -4.914  1.00  0.00    -0.169 NA
HETATM    8  C1  UNL     1      43.257 -32.372  -5.494  1.00  0.00     0.152 C 
ENDBRANCH   1   7
TORSDOF 1
ENDMDL
MODEL 3
REMARK VINA RESULT: -4.466837273      2.444      3.668
REMARK  1 active torsions:
REMARK  status: ('A' for Active; 'I' for Inactive)
REMARK    1  A    between atoms: N1_2  and  N2_3 
ROOT
HETATM    1  N2  UNL     1      42.645 -32.039  -5.053  1.00  0.00    -0.226 NA
HETATM    2  C2  UNL     1      44.075 -32.304  -5.224  1.00  0.00     0.112 A 
HETATM    3  C3  UNL     1      43.829 -33.790  -5.128  1.00  0.00     0.042 A 
HETATM    4  C4  UNL     1      42.425 -33.439  -4.850  1.00  0.00     0.030 A 
HETATM    5  C5  UNL     1      41.610 -33.992  -3.775  1.00  0.00     0.029 A 
HETATM    6  C6  UNL     1      41.254 -34.171  -5.273  1.00  0.00     0.029 A 
ENDROOT
BRANCH   1   7
HETATM    7  N1  UNL     1      42.450 -31.327  -3.877  1.00  0.00    -0.169 NA
HETATM    8  C1  UNL     1      43.629 -30.607  -3.500  1.00  0.00     0.152 C 
ENDBRANCH   1   7
TORSDOF 1
ENDMDL
MODEL 4
REMARK VINA RESULT: -4.463367743      2.169      2.930
REMARK  1 active torsions:
REMARK  status: ('A' for Active; 'I' for Inactive)
REMARK    1  A    between atoms: N1_2  and  N2_3 
ROOT
HETATM    1  N2  UNL     1      42.386 -33.186  -4.253  1.00  0.00    -0.226 NA
HETATM    2  C2  UNL     1      41.222 -34.025  -4.545  1.00  0.00     0.112 A 
HETATM    3  C3  UNL     1      41.957 -34.678  -5.691  1.00  0.00     0.042 A 
HETATM    4  C4  UNL     1      43.044 -33.724  -5.405  1.00  0.00     0.030 A 
HETATM    5  C5  UNL     1      43.746 -32.918  -6.398  1.00  0.00     0.029 A 
HETATM    6  C6  UNL     1      44.461 -33.974  -5.519  1.00  0.00     0.029 A 
ENDROOT
BRANCH   1   7
HETATM    7  N1  UNL     1      42.050 -31.854  -4.445  1.00  0.00    -0.169 NA
HETATM    8  C1  UNL     1      42.516 -31.036  -3.365  1.00  0.00     0.152 C 
ENDBRANCH   1   7
TORSDOF 1
ENDMDL
MODEL 5
REMARK VINA RESULT: -4.452601052      1.437      3.012
REMARK  1 active torsions:
REMARK  status: ('A' for Active; 'I' for Inactive)
REMARK    1  A    between atoms: N1_2  and  N2_3 
ROOT
HETATM    1  N2  UNL     1      42.531 -35.338  -3.781  1.00  0.00    -0.226 NA
HETATM    2  C2  UNL     1      42.478 -34.975  -5.198  1.00  0.00     0.112 A 
HETATM    3  C3  UNL     1      41.243 -34.140  -4.958  1.00  0.00     0.042 A 
HETATM    4  C4  UNL     1      41.299 -34.640  -3.572  1.00  0.00     0.030 A 
HETATM    5  C5  UNL     1      40.170 -35.176  -2.819  1.00  0.00     0.029 A 
HETATM    6  C6  UNL     1      40.944 -33.908  -2.379  1.00  0.00     0.029 A 
ENDROOT
BRANCH   1   7
HETATM    7  N1  UNL     1      42.355 -36.709  -3.654  1.00  0.00    -0.169 NA
HETATM    8  C1  UNL     1      43.367 -37.290  -2.822  1.00  0.00     0.152 C 
ENDBRANCH   1   7
TORSDOF 1
ENDMDL
