MODEL 1
REMARK VINA RESULT: -4.635997071      0.000      0.000
REMARK  3 active torsions:
REMARK  status: ('A' for Active; 'I' for Inactive)
REMARK    1  A    between atoms: C1_4  and  O1_5 
REMARK    2  A    between atoms: C1_4  and  C2_7 
REMARK    3  A    between atoms: C2_7  and  C3_8 
ROOT
HETATM    1  N1  UNL     1      42.413 -32.270  -3.067  1.00  0.00    -0.383 N 
ATOM      2  H11 UNL     1      42.462 -32.924  -2.287  1.00  0.00     0.158 HD
ATOM      3  H12 UNL     1      42.626 -31.279  -2.960  1.00  0.00     0.158 HD
HETATM    4  C1  UNL     1      42.070 -32.699  -4.229  1.00  0.00     0.124 C 
ENDROOT
BRANCH   4   5
HETATM    5  O1  UNL     1      42.004 -31.818  -5.280  1.00  0.00    -0.349 OA
ATOM      6  H1  UNL     1      41.292 -31.190  -5.317  1.00  0.00     0.219 HD
ENDBRANCH   4   5
BRANCH   4   7
HETATM    7  C2  UNL     1      41.761 -34.139  -4.384  1.00  0.00     0.077 A 
HETATM    8  C4  UNL     1      42.966 -35.016  -4.610  1.00  0.00     0.027 A 
HETATM    9  C5  UNL     1      41.961 -34.815  -5.688  1.00  0.00     0.027 A 
BRANCH   7  10
HETATM   10  C3  UNL     1      40.648 -34.630  -3.551  1.00  0.00     0.249 C 
HETATM   11  O2  UNL     1      40.490 -34.256  -2.382  1.00  0.00    -0.306 OA
ENDBRANCH   7  10
ENDBRANCH   4   7
TORSDOF 3
ENDMDL
MODEL 2
REMARK VINA RESULT: -4.520941114      2.447      2.746
REMARK  3 active torsions:
REMARK  status: ('A' for Active; 'I' for Inactive)
REMARK    1  A    between atoms: C1_4  and  O1_5 
REMARK    2  A    between atoms: C1_4  and  C2_7 
REMARK    3  A    between atoms: C2_7  and  C3_8 
ROOT
HETATM    1  N1  UNL     1      44.021 -32.690  -7.226  1.00  0.00    -0.383 N 
ATOM      2  H11 UNL     1      43.563 -33.539  -7.558  1.00  0.00     0.158 HD
ATOM      3  H12 UNL     1      44.596 -32.109  -7.834  1.00  0.00     0.158 HD
HETATM    4  C1  UNL     1      43.875 -32.335  -6.000  1.00  0.00     0.124 C 
ENDROOT
BRANCH   4   5
HETATM    5  O1  UNL     1      44.492 -31.192  -5.553  1.00  0.00    -0.349 OA
ATOM      6  H1  UNL     1      45.390 -31.017  -5.808  1.00  0.00     0.219 HD
ENDBRANCH   4   5
BRANCH   4   7
HETATM    7  C2  UNL     1      43.039 -33.180  -5.117  1.00  0.00     0.077 A 
HETATM    8  C4  UNL     1      43.627 -34.531  -4.805  1.00  0.00     0.027 A 
HETATM    9  C5  UNL     1      42.401 -34.412  -5.639  1.00  0.00     0.027 A 
BRANCH   7  10
HETATM   10  C3  UNL     1      42.300 -32.447  -4.071  1.00  0.00     0.249 C 
HETATM   11  O2  UNL     1      42.253 -31.210  -4.047  1.00  0.00    -0.306 OA
ENDBRANCH   7  10
ENDBRANCH   4   7
TORSDOF 3
ENDMDL
MODEL 3
REMARK VINA RESULT: -4.500388325      1.713      2.808
REMARK  3 active torsions:
REMARK  status: ('A' for Active; 'I' for Inactive)
REMARK    1  A    between atoms: C1_4  and  O1_5 
REMARK    2  A    between atoms: C1_4  and  C2_7 
REMARK    3  A    between atoms: C2_7  and  C3_8 
ROOT
HETATM    1  N1  UNL     1      42.856 -32.792  -3.028  1.00  0.00    -0.383 N 
ATOM      2  H11 UNL     1      43.341 -33.638  -2.731  1.00  0.00     0.158 HD
ATOM      3  H12 UNL     1      42.581 -32.063  -2.370  1.00  0.00     0.158 HD
HETATM    4  C1  UNL     1      42.574 -32.630  -4.271  1.00  0.00     0.124 C 
ENDROOT
BRANCH   4   5
HETATM    5  O1  UNL     1      41.921 -31.491  -4.671  1.00  0.00    -0.349 OA
ATOM      6  H1  UNL     1      41.067 -31.563  -5.082  1.00  0.00     0.219 HD
ENDBRANCH   4   5
BRANCH   4   7
HETATM    7  C2  UNL     1      42.973 -33.689  -5.227  1.00  0.00     0.077 A 
HETATM    8  C4  UNL     1      41.884 -34.676  -5.557  1.00  0.00     0.027 A 
HETATM    9  C5  UNL     1      43.082 -35.099  -4.784  1.00  0.00     0.027 A 
BRANCH   7  10
HETATM   10  C3  UNL     1      43.908 -33.255  -6.282  1.00  0.00     0.249 C 
HETATM   11  O2  UNL     1      43.954 -32.082  -6.676  1.00  0.00    -0.306 OA
ENDBRANCH   7  10
ENDBRANCH   4   7
TORSDOF 3
ENDMDL
MODEL 4
REMARK VINA RESULT: -4.381257058      4.721      5.376
REMARK  3 active torsions:
REMARK  status: ('A' for Active; 'I' for Inactive)
REMARK    1  A    between atoms: C1_4  and  O1_5 
REMARK    2  A    between atoms: C1_4  and  C2_7 
REMARK    3  A    between atoms: C2_7  and  C3_8 
ROOT
HETATM    1  N1  UNL     1      42.761 -39.832  -3.253  1.00  0.00    -0.383 N 
ATOM      2  H11 UNL     1      43.750 -39.584  -3.237  1.00  0.00     0.158 HD
ATOM      3  H12 UNL     1      42.434 -40.747  -3.561  1.00  0.00     0.158 HD
HETATM    4  C1  UNL     1      41.889 -38.967  -2.874  1.00  0.00     0.124 C 
ENDROOT
BRANCH   4   5
HETATM    5  O1  UNL     1      40.557 -39.300  -2.895  1.00  0.00    -0.349 OA
ATOM      6  H1  UNL     1      39.913 -38.664  -2.606  1.00  0.00     0.219 HD
ENDBRANCH   4   5
BRANCH   4   7
HETATM    7  C2  UNL     1      42.365 -37.638  -2.426  1.00  0.00     0.077 A 
HETATM    8  C4  UNL     1      42.324 -36.569  -3.488  1.00  0.00     0.027 A 
HETATM    9  C5  UNL     1      43.624 -37.069  -2.965  1.00  0.00     0.027 A 
BRANCH   7  10
HETATM   10  C3  UNL     1      42.030 -37.294  -1.032  1.00  0.00     0.249 C 
HETATM   11  O2  UNL     1      41.174 -37.917  -0.391  1.00  0.00    -0.306 OA
ENDBRANCH   7  10
ENDBRANCH   4   7
TORSDOF 3
ENDMDL
MODEL 5
REMARK VINA RESULT: -4.368656006      0.984      2.516
REMARK  3 active torsions:
REMARK  status: ('A' for Active; 'I' for Inactive)
REMARK    1  A    between atoms: C1_4  and  O1_5 
REMARK    2  A    between atoms: C1_4  and  C2_7 
REMARK    3  A    between atoms: C2_7  and  C3_8 
ROOT
HETATM    1  N1  UNL     1      41.604 -33.498  -2.143  1.00  0.00    -0.383 N 
ATOM      2  H11 UNL     1      42.482 -32.981  -2.093  1.00  0.00     0.158 HD
ATOM      3  H12 UNL     1      40.997 -33.620  -1.333  1.00  0.00     0.158 HD
HETATM    4  C1  UNL     1      41.243 -34.018  -3.261  1.00  0.00     0.124 C 
ENDROOT
BRANCH   4   5
HETATM    5  O1  UNL     1      40.062 -34.715  -3.329  1.00  0.00    -0.349 OA
ATOM      6  H1  UNL     1      39.996 -35.563  -2.906  1.00  0.00     0.219 HD
ENDBRANCH   4   5
BRANCH   4   7
HETATM    7  C2  UNL     1      42.124 -33.840  -4.437  1.00  0.00     0.077 A 
HETATM    8  C4  UNL     1      42.104 -34.989  -5.413  1.00  0.00     0.027 A 
HETATM    9  C5  UNL     1      43.324 -34.692  -4.614  1.00  0.00     0.027 A 
BRANCH   7  10
HETATM   10  C3  UNL     1      42.218 -32.457  -4.941  1.00  0.00     0.249 C 
HETATM   11  O2  UNL     1      42.400 -31.495  -4.184  1.00  0.00    -0.306 OA
ENDBRANCH   7  10
ENDBRANCH   4   7
TORSDOF 3
ENDMDL
