MODEL 1
REMARK VINA RESULT: -6.993572097      0.000      0.000
REMARK  11 active torsions:
REMARK  status: ('A' for Active; 'I' for Inactive)
REMARK    1  A    between atoms: C2_2  and  C3_3 
REMARK    2  A    between atoms: C2_2  and  N3_13 
REMARK    3  A    between atoms: C3_3  and  C4_4 
REMARK    4  A    between atoms: C6_7  and  N1_8 
REMARK       I    between atoms: N3_13  and  C7_15 
REMARK    5  A    between atoms: C7_15  and  C8_17 
REMARK    6  A    between atoms: C8_17  and  N4_19 
REMARK    7  A    between atoms: N4_19  and  C10_21 
REMARK    8  A    between atoms: C10_21  and  C12_24 
REMARK    9  A    between atoms: C12_24  and  N6_25 
REMARK   10  A    between atoms: C14_27  and  C15_28 
REMARK   11  A    between atoms: C15_28  and  C16_30 
ROOT
HETATM    1  C10 UNL     1      47.792   0.329  -2.800  1.00  0.00     0.204 C 
HETATM    2  C11 UNL     1      47.405  -1.106  -2.796  1.00  0.00     0.086 C 
HETATM    3  N5  UNL     1      47.134  -2.237  -2.819  1.00  0.00    -0.195 NA
ENDROOT
BRANCH   1   4
HETATM    4  N4  UNL     1      47.971   0.787  -4.099  1.00  0.00    -0.392 N 
ATOM      5  H4  UNL     1      47.121   0.968  -4.633  1.00  0.00     0.155 HD
BRANCH   4   6
HETATM    6  C8  UNL     1      49.157   1.026  -4.749  1.00  0.00     0.166 C 
HETATM    7  C9  UNL     1      48.911   1.774  -6.086  1.00  0.00     0.042 C 
BRANCH   6   8
HETATM    8  C7  UNL     1      49.946  -0.158  -5.110  1.00  0.00     0.240 C 
HETATM    9  N3  UNL     1      51.141  -0.515  -4.379  1.00  0.00    -0.355 N 
ATOM     10  H3  UNL     1      51.425   0.078  -3.600  1.00  0.00     0.162 HD
HETATM   11  O1  UNL     1      49.604  -0.893  -6.066  1.00  0.00    -0.271 OA
BRANCH   9  12
HETATM   12  C2  UNL     1      51.942  -1.650  -4.686  1.00  0.00     0.086 C 
HETATM   13  C1  UNL     1      53.424  -1.330  -4.863  1.00  0.00     0.032 C 
BRANCH  12  14
HETATM   14  C3  UNL     1      51.754  -2.835  -3.779  1.00  0.00     0.082 C 
BRANCH  14  15
HETATM   15  C4  UNL     1      50.779  -3.821  -4.392  1.00  0.00     0.019 A 
HETATM   16  C5  UNL     1      51.215  -5.043  -4.824  1.00  0.00     0.078 A 
HETATM   17  S1  UNL     1      49.775  -5.754  -5.402  1.00  0.00    -0.064 SA
HETATM   18  C6  UNL     1      48.711  -4.471  -5.067  1.00  0.00     0.142 A 
HETATM   19  N2  UNL     1      49.506  -3.547  -4.523  1.00  0.00    -0.340 N 
ATOM     20  H2  UNL     1      49.131  -2.649  -4.215  1.00  0.00     0.167 HD
BRANCH  18  21
HETATM   21  N1  UNL     1      47.418  -4.416  -5.293  1.00  0.00    -0.380 N 
ATOM     22  H12 UNL     1      46.780  -5.171  -5.546  1.00  0.00     0.158 HD
ATOM     23  H11 UNL     1      46.810  -3.598  -5.257  1.00  0.00     0.158 HD
ENDBRANCH  18  21
ENDBRANCH  14  15
ENDBRANCH  12  14
ENDBRANCH   9  12
ENDBRANCH   6   8
ENDBRANCH   4   6
ENDBRANCH   1   4
BRANCH   1  24
HETATM   24  C12 UNL     1      47.018   1.063  -1.791  1.00  0.00     0.173 C 
BRANCH  24  25
HETATM   25  N6  UNL     1      47.937   1.692  -0.826  1.00  0.00    -0.306 N 
HETATM   26  C13 UNL     1      49.277   1.713  -1.108  1.00  0.00     0.117 A 
HETATM   27  C14 UNL     1      50.217   2.231  -0.260  1.00  0.00     0.103 A 
HETATM   28  C17 UNL     1      49.760   2.767   0.961  1.00  0.00     0.265 A 
HETATM   29  O4  UNL     1      50.607   3.240   1.740  1.00  0.00    -0.267 OA
HETATM   30  N8  UNL     1      48.456   2.737   1.213  1.00  0.00    -0.275 N 
HETATM   31  C18 UNL     1      47.549   2.213   0.342  1.00  0.00     0.329 A 
ATOM     32  H8  UNL     1      48.119   3.123   2.095  1.00  0.00     0.173 HD
HETATM   33  O5  UNL     1      46.338   2.227   0.646  1.00  0.00    -0.246 OA
BRANCH  27  34
HETATM   34  C15 UNL     1      51.626   2.253  -0.543  1.00  0.00     0.253 C 
HETATM   35  O2  UNL     1      52.133   3.391  -0.881  1.00  0.00    -0.282 OA
BRANCH  34  36
HETATM   36  C16 UNL     1      52.541   1.166  -0.499  1.00  0.00     0.305 C 
HETATM   37  N7  UNL     1      52.848   0.402  -1.677  1.00  0.00    -0.054 NA
HETATM   38  O3  UNL     1      53.129   0.803   0.532  1.00  0.00    -0.267 OA
ENDBRANCH  34  36
ENDBRANCH  27  34
ENDBRANCH  24  25
ENDBRANCH   1  24
TORSDOF 11
ENDMDL
MODEL 2
REMARK VINA RESULT: -6.937493206      2.023      3.232
REMARK  11 active torsions:
REMARK  status: ('A' for Active; 'I' for Inactive)
REMARK    1  A    between atoms: C2_2  and  C3_3 
REMARK    2  A    between atoms: C2_2  and  N3_13 
REMARK    3  A    between atoms: C3_3  and  C4_4 
REMARK    4  A    between atoms: C6_7  and  N1_8 
REMARK       I    between atoms: N3_13  and  C7_15 
REMARK    5  A    between atoms: C7_15  and  C8_17 
REMARK    6  A    between atoms: C8_17  and  N4_19 
REMARK    7  A    between atoms: N4_19  and  C10_21 
REMARK    8  A    between atoms: C10_21  and  C12_24 
REMARK    9  A    between atoms: C12_24  and  N6_25 
REMARK   10  A    between atoms: C14_27  and  C15_28 
REMARK   11  A    between atoms: C15_28  and  C16_30 
ROOT
HETATM    1  C10 UNL     1      47.390   0.276  -2.636  1.00  0.00     0.204 C 
HETATM    2  C11 UNL     1      47.226  -1.144  -2.231  1.00  0.00     0.086 C 
HETATM    3  N5  UNL     1      47.123  -2.267  -1.948  1.00  0.00    -0.195 NA
ENDROOT
BRANCH   1   4
HETATM    4  N4  UNL     1      47.177   0.429  -4.000  1.00  0.00    -0.392 N 
ATOM      5  H4  UNL     1      46.232   0.686  -4.283  1.00  0.00     0.155 HD
BRANCH   4   6
HETATM    6  C8  UNL     1      48.092   0.273  -5.014  1.00  0.00     0.166 C 
HETATM    7  C9  UNL     1      47.669  -0.880  -5.963  1.00  0.00     0.042 C 
BRANCH   6   8
HETATM    8  C7  UNL     1      49.463  -0.051  -4.603  1.00  0.00     0.240 C 
HETATM    9  N3  UNL     1      49.940  -1.416  -4.590  1.00  0.00    -0.355 N 
ATOM     10  H3  UNL     1      49.297  -2.154  -4.876  1.00  0.00     0.162 HD
HETATM   11  O1  UNL     1      50.260   0.850  -4.250  1.00  0.00    -0.271 OA
BRANCH   9  12
HETATM   12  C2  UNL     1      51.257  -1.786  -4.201  1.00  0.00     0.086 C 
HETATM   13  C1  UNL     1      51.312  -3.016  -3.299  1.00  0.00     0.032 C 
BRANCH  12  14
HETATM   14  C3  UNL     1      52.253  -1.899  -5.323  1.00  0.00     0.082 C 
BRANCH  14  15
HETATM   15  C4  UNL     1      53.334  -0.847  -5.178  1.00  0.00     0.019 A 
HETATM   16  C5  UNL     1      54.480  -0.930  -5.921  1.00  0.00     0.078 A 
HETATM   17  S1  UNL     1      55.339   0.453  -5.411  1.00  0.00    -0.064 SA
HETATM   18  C6  UNL     1      54.206   1.054  -4.294  1.00  0.00     0.142 A 
HETATM   19  N2  UNL     1      53.212   0.165  -4.358  1.00  0.00    -0.340 N 
ATOM     20  H2  UNL     1      52.376   0.273  -3.783  1.00  0.00     0.167 HD
BRANCH  18  21
HETATM   21  N1  UNL     1      54.300   2.135  -3.553  1.00  0.00    -0.380 N 
ATOM     22  H12 UNL     1      54.098   3.102  -3.804  1.00  0.00     0.158 HD
ATOM     23  H11 UNL     1      54.597   2.203  -2.580  1.00  0.00     0.158 HD
ENDBRANCH  18  21
ENDBRANCH  14  15
ENDBRANCH  12  14
ENDBRANCH   9  12
ENDBRANCH   6   8
ENDBRANCH   4   6
ENDBRANCH   1   4
BRANCH   1  24
HETATM   24  C12 UNL     1      46.788   1.159  -1.629  1.00  0.00     0.173 C 
BRANCH  24  25
HETATM   25  N6  UNL     1      47.847   1.734  -0.780  1.00  0.00    -0.306 N 
HETATM   26  C13 UNL     1      49.149   1.639  -1.195  1.00  0.00     0.117 A 
HETATM   27  C14 UNL     1      50.208   2.097  -0.460  1.00  0.00     0.103 A 
HETATM   28  C17 UNL     1      49.921   2.695   0.784  1.00  0.00     0.265 A 
HETATM   29  O4  UNL     1      50.878   3.115   1.459  1.00  0.00    -0.267 OA
HETATM   30  N8  UNL     1      48.651   2.777   1.164  1.00  0.00    -0.275 N 
HETATM   31  C18 UNL     1      47.622   2.310   0.405  1.00  0.00     0.329 A 
ATOM     32  H8  UNL     1      48.438   3.209   2.064  1.00  0.00     0.173 HD
HETATM   33  O5  UNL     1      46.454   2.429   0.828  1.00  0.00    -0.246 OA
BRANCH  27  34
HETATM   34  C15 UNL     1      51.578   1.998  -0.883  1.00  0.00     0.253 C 
HETATM   35  O2  UNL     1      52.015   2.931  -1.661  1.00  0.00    -0.282 OA
BRANCH  34  36
HETATM   36  C16 UNL     1      52.523   0.989  -0.550  1.00  0.00     0.305 C 
HETATM   37  N7  UNL     1      52.819  -0.084  -1.460  1.00  0.00    -0.054 NA
HETATM   38  O3  UNL     1      53.146   0.958   0.522  1.00  0.00    -0.267 OA
ENDBRANCH  34  36
ENDBRANCH  27  34
ENDBRANCH  24  25
ENDBRANCH   1  24
TORSDOF 11
ENDMDL
MODEL 3
REMARK VINA RESULT: -6.928524221      1.814      2.545
REMARK  11 active torsions:
REMARK  status: ('A' for Active; 'I' for Inactive)
REMARK    1  A    between atoms: C2_2  and  C3_3 
REMARK    2  A    between atoms: C2_2  and  N3_13 
REMARK    3  A    between atoms: C3_3  and  C4_4 
REMARK    4  A    between atoms: C6_7  and  N1_8 
REMARK       I    between atoms: N3_13  and  C7_15 
REMARK    5  A    between atoms: C7_15  and  C8_17 
REMARK    6  A    between atoms: C8_17  and  N4_19 
REMARK    7  A    between atoms: N4_19  and  C10_21 
REMARK    8  A    between atoms: C10_21  and  C12_24 
REMARK    9  A    between atoms: C12_24  and  N6_25 
REMARK   10  A    between atoms: C14_27  and  C15_28 
REMARK   11  A    between atoms: C15_28  and  C16_30 
ROOT
HETATM    1  C10 UNL     1      47.500   0.389  -2.557  1.00  0.00     0.204 C 
HETATM    2  C11 UNL     1      47.139  -0.979  -2.103  1.00  0.00     0.086 C 
HETATM    3  N5  UNL     1      46.884  -2.066  -1.776  1.00  0.00    -0.195 NA
ENDROOT
BRANCH   1   4
HETATM    4  N4  UNL     1      47.487   0.468  -3.944  1.00  0.00    -0.392 N 
ATOM      5  H4  UNL     1      46.689   0.947  -4.360  1.00  0.00     0.155 HD
BRANCH   4   6
HETATM    6  C8  UNL     1      48.425  -0.024  -4.820  1.00  0.00     0.166 C 
HETATM    7  C9  UNL     1      48.862   1.072  -5.828  1.00  0.00     0.042 C 
BRANCH   6   8
HETATM    8  C7  UNL     1      48.002  -1.160  -5.647  1.00  0.00     0.240 C 
HETATM    9  N3  UNL     1      47.434  -2.350  -5.052  1.00  0.00    -0.355 N 
ATOM     10  H3  UNL     1      47.332  -2.381  -4.038  1.00  0.00     0.162 HD
HETATM   11  O1  UNL     1      48.124  -1.132  -6.893  1.00  0.00    -0.271 OA
BRANCH   9  12
HETATM   12  C2  UNL     1      47.010  -3.480  -5.804  1.00  0.00     0.086 C 
HETATM   13  C1  UNL     1      45.858  -3.188  -6.761  1.00  0.00     0.032 C 
BRANCH  12  14
HETATM   14  C3  UNL     1      48.106  -4.240  -6.500  1.00  0.00     0.082 C 
BRANCH  14  15
HETATM   15  C4  UNL     1      48.324  -5.583  -5.833  1.00  0.00     0.019 A 
HETATM   16  C5  UNL     1      49.593  -6.024  -5.572  1.00  0.00     0.078 A 
HETATM   17  S1  UNL     1      49.301  -7.533  -4.831  1.00  0.00    -0.064 SA
HETATM   18  C6  UNL     1      47.602  -7.520  -4.893  1.00  0.00     0.142 A 
HETATM   19  N2  UNL     1      47.326  -6.353  -5.482  1.00  0.00    -0.340 N 
ATOM     20  H2  UNL     1      46.362  -6.070  -5.654  1.00  0.00     0.167 HD
BRANCH  18  21
HETATM   21  N1  UNL     1      46.772  -8.441  -4.460  1.00  0.00    -0.380 N 
ATOM     22  H12 UNL     1      45.767  -8.522  -4.616  1.00  0.00     0.158 HD
ATOM     23  H11 UNL     1      46.985  -9.253  -3.881  1.00  0.00     0.158 HD
ENDBRANCH  18  21
ENDBRANCH  14  15
ENDBRANCH  12  14
ENDBRANCH   9  12
ENDBRANCH   6   8
ENDBRANCH   4   6
ENDBRANCH   1   4
BRANCH   1  24
HETATM   24  C12 UNL     1      46.863   1.391  -1.692  1.00  0.00     0.173 C 
BRANCH  24  25
HETATM   25  N6  UNL     1      47.856   1.928  -0.745  1.00  0.00    -0.306 N 
HETATM   26  C13 UNL     1      49.175   1.953  -1.115  1.00  0.00     0.117 A 
HETATM   27  C14 UNL     1      50.179   2.387  -0.294  1.00  0.00     0.103 A 
HETATM   28  C17 UNL     1      49.815   2.828   0.995  1.00  0.00     0.265 A 
HETATM   29  O4  UNL     1      50.721   3.225   1.749  1.00  0.00    -0.267 OA
HETATM   30  N8  UNL     1      48.530   2.795   1.331  1.00  0.00    -0.275 N 
HETATM   31  C18 UNL     1      47.557   2.356   0.485  1.00  0.00     0.329 A 
ATOM     32  H8  UNL     1      48.261   3.113   2.263  1.00  0.00     0.173 HD
HETATM   33  O5  UNL     1      46.370   2.362   0.871  1.00  0.00    -0.246 OA
BRANCH  27  34
HETATM   34  C15 UNL     1      51.566   2.413  -0.670  1.00  0.00     0.253 C 
HETATM   35  O2  UNL     1      52.059   3.560  -0.994  1.00  0.00    -0.282 OA
BRANCH  34  36
HETATM   36  C16 UNL     1      52.473   1.320  -0.731  1.00  0.00     0.305 C 
HETATM   37  N7  UNL     1      52.726   0.630  -1.967  1.00  0.00    -0.054 NA
HETATM   38  O3  UNL     1      53.098   0.888   0.250  1.00  0.00    -0.267 OA
ENDBRANCH  34  36
ENDBRANCH  27  34
ENDBRANCH  24  25
ENDBRANCH   1  24
TORSDOF 11
ENDMDL
MODEL 4
REMARK VINA RESULT: -6.816995876      2.227      3.472
REMARK  11 active torsions:
REMARK  status: ('A' for Active; 'I' for Inactive)
REMARK    1  A    between atoms: C2_2  and  C3_3 
REMARK    2  A    between atoms: C2_2  and  N3_13 
REMARK    3  A    between atoms: C3_3  and  C4_4 
REMARK    4  A    between atoms: C6_7  and  N1_8 
REMARK       I    between atoms: N3_13  and  C7_15 
REMARK    5  A    between atoms: C7_15  and  C8_17 
REMARK    6  A    between atoms: C8_17  and  N4_19 
REMARK    7  A    between atoms: N4_19  and  C10_21 
REMARK    8  A    between atoms: C10_21  and  C12_24 
REMARK    9  A    between atoms: C12_24  and  N6_25 
REMARK   10  A    between atoms: C14_27  and  C15_28 
REMARK   11  A    between atoms: C15_28  and  C16_30 
ROOT
HETATM    1  C10 UNL     1      47.530   0.208  -2.530  1.00  0.00     0.204 C 
HETATM    2  C11 UNL     1      47.228  -1.196  -2.149  1.00  0.00     0.086 C 
HETATM    3  N5  UNL     1      47.018  -2.309  -1.883  1.00  0.00    -0.195 NA
ENDROOT
BRANCH   1   4
HETATM    4  N4  UNL     1      47.421   0.381  -3.904  1.00  0.00    -0.392 N 
ATOM      5  H4  UNL     1      46.509   0.681  -4.248  1.00  0.00     0.155 HD
BRANCH   4   6
HETATM    6  C8  UNL     1      48.397   0.197  -4.853  1.00  0.00     0.166 C 
HETATM    7  C9  UNL     1      48.171  -1.132  -5.622  1.00  0.00     0.042 C 
BRANCH   6   8
HETATM    8  C7  UNL     1      49.776   0.125  -4.356  1.00  0.00     0.240 C 
HETATM    9  N3  UNL     1      50.356  -1.131  -3.932  1.00  0.00    -0.355 N 
ATOM     10  H3  UNL     1      49.780  -1.971  -3.988  1.00  0.00     0.162 HD
HETATM   11  O1  UNL     1      50.490   1.151  -4.284  1.00  0.00    -0.271 OA
BRANCH   9  12
HETATM   12  C2  UNL     1      51.684  -1.259  -3.442  1.00  0.00     0.086 C 
HETATM   13  C1  UNL     1      51.787  -2.028  -2.128  1.00  0.00     0.032 C 
BRANCH  12  14
HETATM   14  C3  UNL     1      52.693  -1.763  -4.439  1.00  0.00     0.082 C 
BRANCH  14  15
HETATM   15  C4  UNL     1      53.533  -0.617  -4.967  1.00  0.00     0.019 A 
HETATM   16  C5  UNL     1      54.499  -0.849  -5.907  1.00  0.00     0.078 A 
HETATM   17  S1  UNL     1      55.129   0.717  -6.165  1.00  0.00    -0.064 SA
HETATM   18  C6  UNL     1      54.140   1.568  -5.075  1.00  0.00     0.142 A 
HETATM   19  N2  UNL     1      53.364   0.613  -4.556  1.00  0.00    -0.340 N 
ATOM     20  H2  UNL     1      52.656   0.838  -3.857  1.00  0.00     0.167 HD
BRANCH  18  21
HETATM   21  N1  UNL     1      54.148   2.856  -4.817  1.00  0.00    -0.380 N 
ATOM     22  H12 UNL     1      54.087   3.639  -5.467  1.00  0.00     0.158 HD
ATOM     23  H11 UNL     1      54.219   3.312  -3.907  1.00  0.00     0.158 HD
ENDBRANCH  18  21
ENDBRANCH  14  15
ENDBRANCH  12  14
ENDBRANCH   9  12
ENDBRANCH   6   8
ENDBRANCH   4   6
ENDBRANCH   1   4
BRANCH   1  24
HETATM   24  C12 UNL     1      46.936   1.133  -1.556  1.00  0.00     0.173 C 
BRANCH  24  25
HETATM   25  N6  UNL     1      47.996   1.707  -0.710  1.00  0.00    -0.306 N 
HETATM   26  C13 UNL     1      49.304   1.518  -1.071  1.00  0.00     0.117 A 
HETATM   27  C14 UNL     1      50.362   1.969  -0.331  1.00  0.00     0.103 A 
HETATM   28  C17 UNL     1      50.068   2.662   0.861  1.00  0.00     0.265 A 
HETATM   29  O4  UNL     1      51.024   3.076   1.541  1.00  0.00    -0.267 OA
HETATM   30  N8  UNL     1      48.793   2.834   1.191  1.00  0.00    -0.275 N 
HETATM   31  C18 UNL     1      47.765   2.371   0.427  1.00  0.00     0.329 A 
ATOM     32  H8  UNL     1      48.574   3.335   2.053  1.00  0.00     0.173 HD
HETATM   33  O5  UNL     1      46.592   2.577   0.800  1.00  0.00    -0.246 OA
BRANCH  27  34
HETATM   34  C15 UNL     1      51.738   1.772  -0.698  1.00  0.00     0.253 C 
HETATM   35  O2  UNL     1      52.358   0.797  -0.123  1.00  0.00    -0.282 OA
BRANCH  34  36
HETATM   36  C16 UNL     1      52.510   2.525  -1.624  1.00  0.00     0.305 C 
HETATM   37  N7  UNL     1      53.931   2.338  -1.735  1.00  0.00    -0.054 NA
HETATM   38  O3  UNL     1      52.029   3.378  -2.387  1.00  0.00    -0.267 OA
ENDBRANCH  34  36
ENDBRANCH  27  34
ENDBRANCH  24  25
ENDBRANCH   1  24
TORSDOF 11
ENDMDL
MODEL 5
REMARK VINA RESULT: -6.716056320      1.634      1.865
REMARK  11 active torsions:
REMARK  status: ('A' for Active; 'I' for Inactive)
REMARK    1  A    between atoms: C2_2  and  C3_3 
REMARK    2  A    between atoms: C2_2  and  N3_13 
REMARK    3  A    between atoms: C3_3  and  C4_4 
REMARK    4  A    between atoms: C6_7  and  N1_8 
REMARK       I    between atoms: N3_13  and  C7_15 
REMARK    5  A    between atoms: C7_15  and  C8_17 
REMARK    6  A    between atoms: C8_17  and  N4_19 
REMARK    7  A    between atoms: N4_19  and  C10_21 
REMARK    8  A    between atoms: C10_21  and  C12_24 
REMARK    9  A    between atoms: C12_24  and  N6_25 
REMARK   10  A    between atoms: C14_27  and  C15_28 
REMARK   11  A    between atoms: C15_28  and  C16_30 
ROOT
HETATM    1  C10 UNL     1      47.471   0.240  -2.664  1.00  0.00     0.204 C 
HETATM    2  C11 UNL     1      47.207  -1.136  -2.168  1.00  0.00     0.086 C 
HETATM    3  N5  UNL     1      47.027  -2.228  -1.810  1.00  0.00    -0.195 NA
ENDROOT
BRANCH   1   4
HETATM    4  N4  UNL     1      47.360   0.295  -4.047  1.00  0.00    -0.392 N 
ATOM      5  H4  UNL     1      46.438   0.527  -4.416  1.00  0.00     0.155 HD
BRANCH   4   6
HETATM    6  C8  UNL     1      48.347   0.075  -4.978  1.00  0.00     0.166 C 
HETATM    7  C9  UNL     1      48.051   0.853  -6.288  1.00  0.00     0.042 C 
BRANCH   6   8
HETATM    8  C7  UNL     1      48.543  -1.319  -5.394  1.00  0.00     0.240 C 
HETATM    9  N3  UNL     1      49.868  -1.880  -5.537  1.00  0.00    -0.355 N 
ATOM     10  H3  UNL     1      50.669  -1.280  -5.340  1.00  0.00     0.162 HD
HETATM   11  O1  UNL     1      47.564  -2.063  -5.638  1.00  0.00    -0.271 OA
BRANCH   9  12
HETATM   12  C2  UNL     1      50.116  -3.222  -5.937  1.00  0.00     0.086 C 
HETATM   13  C1  UNL     1      51.060  -3.346  -7.130  1.00  0.00     0.032 C 
BRANCH  12  14
HETATM   14  C3  UNL     1      50.522  -4.159  -4.833  1.00  0.00     0.082 C 
BRANCH  14  15
HETATM   15  C4  UNL     1      49.737  -5.453  -4.922  1.00  0.00     0.019 A 
HETATM   16  C5  UNL     1      48.496  -5.467  -5.497  1.00  0.00     0.078 A 
HETATM   17  S1  UNL     1      48.057  -7.111  -5.361  1.00  0.00    -0.064 SA
HETATM   18  C6  UNL     1      49.461  -7.682  -4.590  1.00  0.00     0.142 A 
HETATM   19  N2  UNL     1      50.211  -6.584  -4.468  1.00  0.00    -0.340 N 
ATOM     20  H2  UNL     1      51.132  -6.627  -4.031  1.00  0.00     0.167 HD
BRANCH  18  21
HETATM   21  N1  UNL     1      49.730  -8.911  -4.213  1.00  0.00    -0.380 N 
ATOM     22  H12 UNL     1      49.097  -9.706  -4.123  1.00  0.00     0.158 HD
ATOM     23  H11 UNL     1      50.632  -9.298  -3.935  1.00  0.00     0.158 HD
ENDBRANCH  18  21
ENDBRANCH  14  15
ENDBRANCH  12  14
ENDBRANCH   9  12
ENDBRANCH   6   8
ENDBRANCH   4   6
ENDBRANCH   1   4
BRANCH   1  24
HETATM   24  C12 UNL     1      46.848   1.225  -1.770  1.00  0.00     0.173 C 
BRANCH  24  25
HETATM   25  N6  UNL     1      47.868   1.784  -0.866  1.00  0.00    -0.306 N 
HETATM   26  C13 UNL     1      49.179   1.771  -1.261  1.00  0.00     0.117 A 
HETATM   27  C14 UNL     1      50.206   2.223  -0.478  1.00  0.00     0.103 A 
HETATM   28  C17 UNL     1      49.874   2.724   0.797  1.00  0.00     0.265 A 
HETATM   29  O4  UNL     1      50.801   3.137   1.517  1.00  0.00    -0.267 OA
HETATM   30  N8  UNL     1      48.596   2.728   1.158  1.00  0.00    -0.275 N 
HETATM   31  C18 UNL     1      47.599   2.270   0.350  1.00  0.00     0.329 A 
ATOM     32  H8  UNL     1      48.350   3.090   2.080  1.00  0.00     0.173 HD
HETATM   33  O5  UNL     1      46.421   2.313   0.758  1.00  0.00    -0.246 OA
BRANCH  27  34
HETATM   34  C15 UNL     1      51.586   2.208  -0.880  1.00  0.00     0.253 C 
HETATM   35  O2  UNL     1      52.025   3.259  -1.486  1.00  0.00    -0.282 OA
BRANCH  34  36
HETATM   36  C16 UNL     1      52.538   1.169  -0.694  1.00  0.00     0.305 C 
HETATM   37  N7  UNL     1      52.923   0.308  -1.779  1.00  0.00    -0.054 NA
HETATM   38  O3  UNL     1      53.093   0.931   0.390  1.00  0.00    -0.267 OA
ENDBRANCH  34  36
ENDBRANCH  27  34
ENDBRANCH  24  25
ENDBRANCH   1  24
TORSDOF 11
ENDMDL
