MODEL 1
REMARK VINA RESULT: -5.529812997      0.000      0.000
REMARK  4 active torsions:
REMARK  status: ('A' for Active; 'I' for Inactive)
REMARK    1  A    between atoms: O1_2  and  N1_3 
REMARK    2  A    between atoms: N1_3  and  C2_4 
REMARK    3  A    between atoms: C5_9  and  C6_10 
REMARK    4  A    between atoms: C7_13  and  S1_14 
ROOT
HETATM    1  C2  UNL     1      14.722   3.996  29.317  1.00  0.00     0.124 C 
HETATM    2  C3  UNL     1      14.051   3.612  28.001  1.00  0.00     0.050 C 
HETATM    3  C4  UNL     1      15.061   4.465  27.285  1.00  0.00     0.094 C 
HETATM    4  N2  UNL     1      14.564   5.400  26.346  1.00  0.00    -0.401 N 
ATOM      5  H2  UNL     1      14.782   5.321  25.352  1.00  0.00     0.154 HD
HETATM    6  C5  UNL     1      13.755   6.447  26.840  1.00  0.00     0.202 C 
HETATM    7  C7  UNL     1      14.689   7.491  27.451  1.00  0.00     0.141 C 
HETATM    8  S2  UNL     1      15.316   6.666  28.961  1.00  0.00    -0.142 SA
HETATM    9  C9  UNL     1      15.612   4.966  28.545  1.00  0.00     0.092 C 
ENDROOT
BRANCH   1  10
HETATM   10  N1  UNL     1      15.426   2.859  29.876  1.00  0.00    -0.095 NA
BRANCH  10  11
HETATM   11  O1  UNL     1      16.626   3.286  30.359  1.00  0.00    -0.291 OA
HETATM   12  C1  UNL     1      16.648   2.994  31.720  1.00  0.00     0.231 C 
ENDBRANCH  10  11
ENDBRANCH   1  10
BRANCH   7  13
HETATM   13  S1  UNL     1      13.809   9.009  27.845  1.00  0.00    -0.155 SA
HETATM   14  C8  UNL     1      13.907   9.274  29.631  1.00  0.00     0.091 C 
ENDBRANCH   7  13
BRANCH   6  15
HETATM   15  C6  UNL     1      12.999   7.095  25.737  1.00  0.00     0.198 C 
HETATM   16  O2  UNL     1      11.855   7.549  25.904  1.00  0.00    -0.646 OA
HETATM   17  O3  UNL     1      13.569   7.203  24.482  1.00  0.00    -0.646 OA
ENDBRANCH   6  15
TORSDOF 4
ENDMDL
MODEL 2
REMARK VINA RESULT: -5.470390415      1.425      1.473
REMARK  4 active torsions:
REMARK  status: ('A' for Active; 'I' for Inactive)
REMARK    1  A    between atoms: O1_2  and  N1_3 
REMARK    2  A    between atoms: N1_3  and  C2_4 
REMARK    3  A    between atoms: C5_9  and  C6_10 
REMARK    4  A    between atoms: C7_13  and  S1_14 
ROOT
HETATM    1  C2  UNL     1      14.798   3.617  29.139  1.00  0.00     0.124 C 
HETATM    2  C3  UNL     1      15.159   3.884  27.679  1.00  0.00     0.050 C 
HETATM    3  C4  UNL     1      15.639   5.248  28.091  1.00  0.00     0.094 C 
HETATM    4  N2  UNL     1      15.160   6.352  27.346  1.00  0.00    -0.401 N 
ATOM      5  H2  UNL     1      15.790   6.930  26.790  1.00  0.00     0.154 HD
HETATM    6  C5  UNL     1      13.774   6.619  27.401  1.00  0.00     0.202 C 
HETATM    7  C7  UNL     1      13.505   7.339  28.723  1.00  0.00     0.141 C 
HETATM    8  S2  UNL     1      13.754   6.028  29.977  1.00  0.00    -0.142 SA
HETATM    9  C9  UNL     1      15.153   5.066  29.460  1.00  0.00     0.092 C 
ENDROOT
BRANCH   1  10
HETATM   10  N1  UNL     1      15.705   2.642  29.712  1.00  0.00    -0.095 NA
BRANCH  10  11
HETATM   11  O1  UNL     1      15.399   2.489  31.031  1.00  0.00    -0.291 OA
HETATM   12  C1  UNL     1      16.590   2.600  31.744  1.00  0.00     0.231 C 
ENDBRANCH  10  11
ENDBRANCH   1  10
BRANCH   7  13
HETATM   13  S1  UNL     1      11.834   8.000  28.782  1.00  0.00    -0.155 SA
HETATM   14  C8  UNL     1      11.667   8.986  30.288  1.00  0.00     0.091 C 
ENDBRANCH   7  13
BRANCH   6  15
HETATM   15  C6  UNL     1      13.365   7.521  26.294  1.00  0.00     0.198 C 
HETATM   16  O2  UNL     1      12.490   7.200  25.474  1.00  0.00    -0.646 OA
HETATM   17  O3  UNL     1      13.968   8.759  26.156  1.00  0.00    -0.646 OA
ENDBRANCH   6  15
TORSDOF 4
ENDMDL
MODEL 3
REMARK VINA RESULT: -5.449182857      3.024      6.057
REMARK  4 active torsions:
REMARK  status: ('A' for Active; 'I' for Inactive)
REMARK    1  A    between atoms: O1_2  and  N1_3 
REMARK    2  A    between atoms: N1_3  and  C2_4 
REMARK    3  A    between atoms: C5_9  and  C6_10 
REMARK    4  A    between atoms: C7_13  and  S1_14 
ROOT
HETATM    1  C2  UNL     1      11.804   9.552  26.026  1.00  0.00     0.124 C 
HETATM    2  C3  UNL     1      12.825   8.855  25.131  1.00  0.00     0.050 C 
HETATM    3  C4  UNL     1      12.312   7.538  25.643  1.00  0.00     0.094 C 
HETATM    4  N2  UNL     1      13.274   6.610  26.111  1.00  0.00    -0.401 N 
ATOM      5  H2  UNL     1      13.419   5.715  25.643  1.00  0.00     0.154 HD
HETATM    6  C5  UNL     1      14.024   6.973  27.252  1.00  0.00     0.202 C 
HETATM    7  C7  UNL     1      13.135   6.734  28.472  1.00  0.00     0.141 C 
HETATM    8  S2  UNL     1      11.869   8.049  28.338  1.00  0.00    -0.142 SA
HETATM    9  C9  UNL     1      11.442   8.194  26.621  1.00  0.00     0.092 C 
ENDROOT
BRANCH   1  10
HETATM   10  N1  UNL     1      10.754  10.149  25.225  1.00  0.00    -0.095 NA
BRANCH  10  11
HETATM   11  O1  UNL     1       9.550   9.736  25.711  1.00  0.00    -0.291 OA
HETATM   12  C1  UNL     1       8.777  10.875  25.916  1.00  0.00     0.231 C 
ENDBRANCH  10  11
ENDBRANCH   1  10
BRANCH   7  13
HETATM   13  S1  UNL     1      14.071   6.872  30.002  1.00  0.00    -0.155 SA
HETATM   14  C8  UNL     1      13.336   8.189  30.999  1.00  0.00     0.091 C 
ENDBRANCH   7  13
BRANCH   6  15
HETATM   15  C6  UNL     1      15.231   6.117  27.385  1.00  0.00     0.198 C 
HETATM   16  O2  UNL     1      15.150   4.889  27.549  1.00  0.00    -0.646 OA
HETATM   17  O3  UNL     1      16.490   6.688  27.328  1.00  0.00    -0.646 OA
ENDBRANCH   6  15
TORSDOF 4
ENDMDL
MODEL 4
REMARK VINA RESULT: -5.413174069      3.028      6.188
REMARK  4 active torsions:
REMARK  status: ('A' for Active; 'I' for Inactive)
REMARK    1  A    between atoms: O1_2  and  N1_3 
REMARK    2  A    between atoms: N1_3  and  C2_4 
REMARK    3  A    between atoms: C5_9  and  C6_10 
REMARK    4  A    between atoms: C7_13  and  S1_14 
ROOT
HETATM    1  C2  UNL     1      12.347   9.711  26.018  1.00  0.00     0.124 C 
HETATM    2  C3  UNL     1      13.261   8.785  25.220  1.00  0.00     0.050 C 
HETATM    3  C4  UNL     1      12.382   7.635  25.627  1.00  0.00     0.094 C 
HETATM    4  N2  UNL     1      13.023   6.495  26.169  1.00  0.00    -0.401 N 
ATOM      5  H2  UNL     1      12.996   5.595  25.690  1.00  0.00     0.154 HD
HETATM    6  C5  UNL     1      13.700   6.655  27.398  1.00  0.00     0.202 C 
HETATM    7  C7  UNL     1      12.643   6.639  28.502  1.00  0.00     0.141 C 
HETATM    8  S2  UNL     1      11.766   8.229  28.270  1.00  0.00    -0.142 SA
HETATM    9  C9  UNL     1      11.593   8.484  26.522  1.00  0.00     0.092 C 
ENDROOT
BRANCH   1  10
HETATM   10  N1  UNL     1      11.578  10.555  25.124  1.00  0.00    -0.095 NA
BRANCH  10  11
HETATM   11  O1  UNL     1      12.437  11.171  24.264  1.00  0.00    -0.291 OA
HETATM   12  C1  UNL     1      11.685  11.612  23.179  1.00  0.00     0.231 C 
ENDBRANCH  10  11
ENDBRANCH   1  10
BRANCH   7  13
HETATM   13  S1  UNL     1      13.397   6.533  30.131  1.00  0.00    -0.155 SA
HETATM   14  C8  UNL     1      13.640   8.212  30.754  1.00  0.00     0.091 C 
ENDBRANCH   7  13
BRANCH   6  15
HETATM   15  C6  UNL     1      14.633   5.524  27.638  1.00  0.00     0.198 C 
HETATM   16  O2  UNL     1      15.845   5.704  27.841  1.00  0.00    -0.646 OA
HETATM   17  O3  UNL     1      14.156   4.225  27.636  1.00  0.00    -0.646 OA
ENDBRANCH   6  15
TORSDOF 4
ENDMDL
MODEL 5
REMARK VINA RESULT: -5.347944733      3.552      5.023
REMARK  4 active torsions:
REMARK  status: ('A' for Active; 'I' for Inactive)
REMARK    1  A    between atoms: O1_2  and  N1_3 
REMARK    2  A    between atoms: N1_3  and  C2_4 
REMARK    3  A    between atoms: C5_9  and  C6_10 
REMARK    4  A    between atoms: C7_13  and  S1_14 
ROOT
HETATM    1  C2  UNL     1      13.912   8.512  28.137  1.00  0.00     0.124 C 
HETATM    2  C3  UNL     1      12.625   8.194  28.895  1.00  0.00     0.050 C 
HETATM    3  C4  UNL     1      12.053   7.655  27.612  1.00  0.00     0.094 C 
HETATM    4  N2  UNL     1      10.773   8.124  27.231  1.00  0.00    -0.401 N 
ATOM      5  H2  UNL     1       9.972   7.494  27.179  1.00  0.00     0.154 HD
HETATM    6  C5  UNL     1      10.650   9.497  26.926  1.00  0.00     0.202 C 
HETATM    7  C7  UNL     1      11.192   9.696  25.511  1.00  0.00     0.141 C 
HETATM    8  S2  UNL     1      12.995   9.447  25.710  1.00  0.00    -0.142 SA
HETATM    9  C9  UNL     1      13.217   8.099  26.843  1.00  0.00     0.092 C 
ENDROOT
BRANCH   1  10
HETATM   10  N1  UNL     1      14.976   7.619  28.552  1.00  0.00    -0.095 NA
BRANCH  10  11
HETATM   11  O1  UNL     1      15.613   7.157  27.440  1.00  0.00    -0.291 OA
HETATM   12  C1  UNL     1      16.086   5.883  27.737  1.00  0.00     0.231 C 
ENDBRANCH  10  11
ENDBRANCH   1  10
BRANCH   7  13
HETATM   13  S1  UNL     1      10.818  11.342  24.890  1.00  0.00    -0.155 SA
HETATM   14  C8  UNL     1      11.716  11.581  23.339  1.00  0.00     0.091 C 
ENDBRANCH   7  13
BRANCH   6  15
HETATM   15  C6  UNL     1       9.224   9.915  26.936  1.00  0.00     0.198 C 
HETATM   16  O2  UNL     1       8.429   9.558  26.052  1.00  0.00    -0.646 OA
HETATM   17  O3  UNL     1       8.752  10.726  27.952  1.00  0.00    -0.646 OA
ENDBRANCH   6  15
TORSDOF 4
ENDMDL
