MODEL 1
REMARK VINA RESULT: -7.746189211      0.000      0.000
REMARK  6 active torsions:
REMARK  status: ('A' for Active; 'I' for Inactive)
REMARK    1  A    between atoms: O1_1  and  N1_3 
REMARK    2  A    between atoms: C1_5  and  O2_6 
REMARK    3  A    between atoms: C1_5  and  C2_8 
REMARK    4  A    between atoms: N2_10  and  C3_11 
REMARK    5  A    between atoms: C3_11  and  C4_12 
REMARK    6  A    between atoms: C12_21  and  O5_22 
ROOT
HETATM    1  C2  UNL     1      15.472   6.836  28.101  1.00  0.00     0.253 C 
HETATM    2  O3  UNL     1      14.587   7.062  27.079  1.00  0.00    -0.284 OA
HETATM    3  N2  UNL     1      13.338   7.432  27.522  1.00  0.00    -0.164 NA
HETATM    4  C10 UNL     1      12.964   6.621  28.575  1.00  0.00     0.253 C 
HETATM    5  O4  UNL     1      13.769   6.970  29.697  1.00  0.00    -0.355 OA
HETATM    6  C11 UNL     1      14.729   6.123  29.208  1.00  0.00     0.195 C 
HETATM    7  C12 UNL     1      13.666   5.273  28.608  1.00  0.00     0.195 C 
ENDROOT
BRANCH   1   8
HETATM    8  C1  UNL     1      16.618   6.046  27.623  1.00  0.00     0.170 C 
HETATM    9  N1  UNL     1      16.851   4.876  28.088  1.00  0.00    -0.249 N 
ATOM     10  H1  UNL     1      16.219   4.508  28.799  1.00  0.00     0.196 HD
BRANCH   9  11
HETATM   11  O1  UNL     1      17.897   4.088  27.689  1.00  0.00    -0.288 OA
ATOM     12  H1  UNL     1      18.085   3.230  28.051  1.00  0.00     0.244 HD
ENDBRANCH   9  11
BRANCH   8  13
HETATM   13  O2  UNL     1      17.453   6.567  26.665  1.00  0.00    -0.346 OA
ATOM     14  H2  UNL     1      17.089   7.112  25.977  1.00  0.00     0.219 HD
ENDBRANCH   8  13
ENDBRANCH   1   8
BRANCH   3  15
HETATM   15  C3  UNL     1      12.572   7.760  26.426  1.00  0.00     0.128 C 
BRANCH  15  16
HETATM   16  C4  UNL     1      12.356   9.153  25.990  1.00  0.00     0.001 C 
HETATM   17  C5  UNL     1      10.937   9.545  25.927  1.00  0.00     0.006 C 
HETATM   18  C6  UNL     1      10.579  10.619  24.961  1.00  0.00     0.000 C 
HETATM   19  C7  UNL     1      11.653  11.311  24.232  1.00  0.00     0.000 C 
HETATM   20  C8  UNL     1      13.058  10.915  24.529  1.00  0.00     0.000 C 
HETATM   21  C9  UNL     1      13.072   9.406  24.648  1.00  0.00     0.006 C 
ENDBRANCH  15  16
ENDBRANCH   3  15
BRANCH   7  22
HETATM   22  O5  UNL     1      13.868   4.810  27.334  1.00  0.00    -0.389 OA
ATOM     23  H5  UNL     1      13.048   4.512  26.957  1.00  0.00     0.210 HD
ENDBRANCH   7  22
TORSDOF 6
ENDMDL
MODEL 2
REMARK VINA RESULT: -7.532594420      1.074      1.626
REMARK  6 active torsions:
REMARK  status: ('A' for Active; 'I' for Inactive)
REMARK    1  A    between atoms: O1_1  and  N1_3 
REMARK    2  A    between atoms: C1_5  and  O2_6 
REMARK    3  A    between atoms: C1_5  and  C2_8 
REMARK    4  A    between atoms: N2_10  and  C3_11 
REMARK    5  A    between atoms: C3_11  and  C4_12 
REMARK    6  A    between atoms: C12_21  and  O5_22 
ROOT
HETATM    1  C2  UNL     1      15.743   6.247  28.056  1.00  0.00     0.253 C 
HETATM    2  O3  UNL     1      15.426   7.377  27.346  1.00  0.00    -0.284 OA
HETATM    3  N2  UNL     1      14.111   7.752  27.493  1.00  0.00    -0.164 NA
HETATM    4  C10 UNL     1      13.299   6.640  27.393  1.00  0.00     0.253 C 
HETATM    5  O4  UNL     1      13.495   5.855  28.565  1.00  0.00    -0.355 OA
HETATM    6  C11 UNL     1      14.579   5.289  27.945  1.00  0.00     0.195 C 
HETATM    7  C12 UNL     1      13.918   5.481  26.626  1.00  0.00     0.195 C 
ENDROOT
BRANCH   1   8
HETATM    8  C1  UNL     1      16.985   5.649  27.543  1.00  0.00     0.170 C 
HETATM    9  N1  UNL     1      17.359   4.484  27.918  1.00  0.00    -0.249 N 
ATOM     10  H1  UNL     1      16.771   3.982  28.582  1.00  0.00     0.196 HD
BRANCH   9  11
HETATM   11  O1  UNL     1      18.502   3.869  27.481  1.00  0.00    -0.288 OA
ATOM     12  H1  UNL     1      18.843   3.946  26.597  1.00  0.00     0.244 HD
ENDBRANCH   9  11
BRANCH   8  13
HETATM   13  O2  UNL     1      17.760   6.348  26.648  1.00  0.00    -0.346 OA
ATOM     14  H2  UNL     1      17.347   6.982  26.072  1.00  0.00     0.219 HD
ENDBRANCH   8  13
ENDBRANCH   1   8
BRANCH   3  15
HETATM   15  C3  UNL     1      13.934   8.958  26.853  1.00  0.00     0.128 C 
BRANCH  15  16
HETATM   16  C4  UNL     1      12.790   9.229  25.960  1.00  0.00     0.001 C 
HETATM   17  C5  UNL     1      13.078  10.219  24.907  1.00  0.00     0.006 C 
HETATM   18  C6  UNL     1      11.923  11.002  24.388  1.00  0.00     0.000 C 
HETATM   19  C7  UNL     1      10.567  10.663  24.845  1.00  0.00     0.000 C 
HETATM   20  C8  UNL     1      10.420   9.520  25.789  1.00  0.00     0.000 C 
HETATM   21  C9  UNL     1      11.553   9.629  26.789  1.00  0.00     0.006 C 
ENDBRANCH  15  16
ENDBRANCH   3  15
BRANCH   7  22
HETATM   22  O5  UNL     1      14.687   5.950  25.593  1.00  0.00    -0.389 OA
ATOM     23  H5  UNL     1      14.769   6.896  25.645  1.00  0.00     0.210 HD
ENDBRANCH   7  22
TORSDOF 6
ENDMDL
MODEL 3
REMARK VINA RESULT: -7.466386440      1.138      1.318
REMARK  6 active torsions:
REMARK  status: ('A' for Active; 'I' for Inactive)
REMARK    1  A    between atoms: O1_1  and  N1_3 
REMARK    2  A    between atoms: C1_5  and  O2_6 
REMARK    3  A    between atoms: C1_5  and  C2_8 
REMARK    4  A    between atoms: N2_10  and  C3_11 
REMARK    5  A    between atoms: C3_11  and  C4_12 
REMARK    6  A    between atoms: C12_21  and  O5_22 
ROOT
HETATM    1  C2  UNL     1      15.708   6.043  28.012  1.00  0.00     0.253 C 
HETATM    2  O3  UNL     1      14.810   6.345  27.021  1.00  0.00    -0.284 OA
HETATM    3  N2  UNL     1      14.099   7.495  27.274  1.00  0.00    -0.164 NA
HETATM    4  C10 UNL     1      13.682   7.501  28.590  1.00  0.00     0.253 C 
HETATM    5  O4  UNL     1      14.832   7.702  29.406  1.00  0.00    -0.355 OA
HETATM    6  C11 UNL     1      15.055   6.351  29.340  1.00  0.00     0.195 C 
HETATM    7  C12 UNL     1      13.590   6.121  29.222  1.00  0.00     0.195 C 
ENDROOT
BRANCH   1   8
HETATM    8  C1  UNL     1      16.114   4.632  27.924  1.00  0.00     0.170 C 
HETATM    9  N1  UNL     1      15.505   3.817  27.147  1.00  0.00    -0.249 N 
ATOM     10  H1  UNL     1      14.729   4.176  26.590  1.00  0.00     0.196 HD
BRANCH   9  11
HETATM   11  O1  UNL     1      15.830   2.494  27.017  1.00  0.00    -0.288 OA
ATOM     12  H1  UNL     1      15.400   1.792  27.492  1.00  0.00     0.244 HD
ENDBRANCH   9  11
BRANCH   8  13
HETATM   13  O2  UNL     1      17.163   4.175  28.687  1.00  0.00    -0.346 OA
ATOM     14  H2  UNL     1      16.985   3.617  29.435  1.00  0.00     0.219 HD
ENDBRANCH   8  13
ENDBRANCH   1   8
BRANCH   3  15
HETATM   15  C3  UNL     1      13.329   7.777  26.168  1.00  0.00     0.128 C 
BRANCH  15  16
HETATM   16  C4  UNL     1      12.744   9.109  25.918  1.00  0.00     0.001 C 
HETATM   17  C5  UNL     1      11.289   9.172  26.142  1.00  0.00     0.006 C 
HETATM   18  C6  UNL     1      10.535  10.194  25.365  1.00  0.00     0.000 C 
HETATM   19  C7  UNL     1      11.279  11.154  24.536  1.00  0.00     0.000 C 
HETATM   20  C8  UNL     1      12.766  11.069  24.544  1.00  0.00     0.000 C 
HETATM   21  C9  UNL     1      13.121   9.597  24.505  1.00  0.00     0.006 C 
ENDBRANCH  15  16
ENDBRANCH   3  15
BRANCH   7  22
HETATM   22  O5  UNL     1      13.164   5.201  28.300  1.00  0.00    -0.389 OA
ATOM     23  H5  UNL     1      12.244   5.003  28.431  1.00  0.00     0.210 HD
ENDBRANCH   7  22
TORSDOF 6
ENDMDL
MODEL 4
REMARK VINA RESULT: -7.378449296      0.517      1.255
REMARK  6 active torsions:
REMARK  status: ('A' for Active; 'I' for Inactive)
REMARK    1  A    between atoms: O1_1  and  N1_3 
REMARK    2  A    between atoms: C1_5  and  O2_6 
REMARK    3  A    between atoms: C1_5  and  C2_8 
REMARK    4  A    between atoms: N2_10  and  C3_11 
REMARK    5  A    between atoms: C3_11  and  C4_12 
REMARK    6  A    between atoms: C12_21  and  O5_22 
ROOT
HETATM    1  C2  UNL     1      15.593   6.880  27.754  1.00  0.00     0.253 C 
HETATM    2  O3  UNL     1      14.725   6.797  26.697  1.00  0.00    -0.284 OA
HETATM    3  N2  UNL     1      13.455   7.221  27.010  1.00  0.00    -0.164 NA
HETATM    4  C10 UNL     1      13.083   6.701  28.234  1.00  0.00     0.253 C 
HETATM    5  O4  UNL     1      13.850   7.362  29.235  1.00  0.00    -0.355 OA
HETATM    6  C11 UNL     1      14.849   6.454  28.999  1.00  0.00     0.195 C 
HETATM    7  C12 UNL     1      13.829   5.436  28.629  1.00  0.00     0.195 C 
ENDROOT
BRANCH   1   8
HETATM    8  C1  UNL     1      16.775   6.037  27.517  1.00  0.00     0.170 C 
HETATM    9  N1  UNL     1      16.850   4.854  28.002  1.00  0.00    -0.249 N 
ATOM     10  H1  UNL     1      16.065   4.514  28.557  1.00  0.00     0.196 HD
BRANCH   9  11
HETATM   11  O1  UNL     1      17.918   4.018  27.820  1.00  0.00    -0.288 OA
ATOM     12  H1  UNL     1      17.978   3.145  28.189  1.00  0.00     0.244 HD
ENDBRANCH   9  11
BRANCH   8  13
HETATM   13  O2  UNL     1      17.819   6.522  26.764  1.00  0.00    -0.346 OA
ATOM     14  H2  UNL     1      18.388   7.186  27.134  1.00  0.00     0.219 HD
ENDBRANCH   8  13
ENDBRANCH   1   8
BRANCH   3  15
HETATM   15  C3  UNL     1      12.704   7.221  25.856  1.00  0.00     0.128 C 
BRANCH  15  16
HETATM   16  C4  UNL     1      12.154   8.454  25.260  1.00  0.00     0.001 C 
HETATM   17  C5  UNL     1      13.183   9.388  24.768  1.00  0.00     0.006 C 
HETATM   18  C6  UNL     1      12.820  10.832  24.741  1.00  0.00     0.000 C 
HETATM   19  C7  UNL     1      11.444  11.229  25.070  1.00  0.00     0.000 C 
HETATM   20  C8  UNL     1      10.468  10.148  25.385  1.00  0.00     0.000 C 
HETATM   21  C9  UNL     1      11.194   9.141  26.251  1.00  0.00     0.006 C 
ENDBRANCH  15  16
ENDBRANCH   3  15
BRANCH   7  22
HETATM   22  O5  UNL     1      14.076   4.664  27.524  1.00  0.00    -0.389 OA
ATOM     23  H5  UNL     1      14.275   3.771  27.783  1.00  0.00     0.210 HD
ENDBRANCH   7  22
TORSDOF 6
ENDMDL
MODEL 5
REMARK VINA RESULT: -7.375978997      1.006      1.070
REMARK  6 active torsions:
REMARK  status: ('A' for Active; 'I' for Inactive)
REMARK    1  A    between atoms: O1_1  and  N1_3 
REMARK    2  A    between atoms: C1_5  and  O2_6 
REMARK    3  A    between atoms: C1_5  and  C2_8 
REMARK    4  A    between atoms: N2_10  and  C3_11 
REMARK    5  A    between atoms: C3_11  and  C4_12 
REMARK    6  A    between atoms: C12_21  and  O5_22 
ROOT
HETATM    1  C2  UNL     1      15.535   6.601  27.784  1.00  0.00     0.253 C 
HETATM    2  O3  UNL     1      14.500   6.817  26.911  1.00  0.00    -0.284 OA
HETATM    3  N2  UNL     1      13.708   7.883  27.270  1.00  0.00    -0.164 NA
HETATM    4  C10 UNL     1      13.451   7.831  28.626  1.00  0.00     0.253 C 
HETATM    5  O4  UNL     1      14.662   8.144  29.307  1.00  0.00    -0.355 OA
HETATM    6  C11 UNL     1      15.014   6.824  29.185  1.00  0.00     0.195 C 
HETATM    7  C12 UNL     1      13.577   6.442  29.234  1.00  0.00     0.195 C 
ENDROOT
BRANCH   1   8
HETATM    8  C1  UNL     1      16.071   5.241  27.618  1.00  0.00     0.170 C 
HETATM    9  N1  UNL     1      17.292   4.975  27.899  1.00  0.00    -0.249 N 
ATOM     10  H1  UNL     1      17.881   5.734  28.241  1.00  0.00     0.196 HD
BRANCH   9  11
HETATM   11  O1  UNL     1      17.855   3.734  27.768  1.00  0.00    -0.288 OA
ATOM     12  H1  UNL     1      18.360   3.456  27.013  1.00  0.00     0.244 HD
ENDBRANCH   9  11
BRANCH   8  13
HETATM   13  O2  UNL     1      15.255   4.237  27.154  1.00  0.00    -0.346 OA
ATOM     14  H2  UNL     1      14.547   4.453  26.557  1.00  0.00     0.219 HD
ENDBRANCH   8  13
ENDBRANCH   1   8
BRANCH   3  15
HETATM   15  C3  UNL     1      12.788   8.093  26.268  1.00  0.00     0.128 C 
BRANCH  15  16
HETATM   16  C4  UNL     1      12.394   9.441  25.814  1.00  0.00     0.001 C 
HETATM   17  C5  UNL     1      10.938   9.671  25.822  1.00  0.00     0.006 C 
HETATM   18  C6  UNL     1      10.411  10.671  24.854  1.00  0.00     0.000 C 
HETATM   19  C7  UNL     1      11.360  11.457  24.051  1.00  0.00     0.000 C 
HETATM   20  C8  UNL     1      12.814  11.228  24.278  1.00  0.00     0.000 C 
HETATM   21  C9  UNL     1      13.004   9.733  24.428  1.00  0.00     0.006 C 
ENDBRANCH  15  16
ENDBRANCH   3  15
BRANCH   7  22
HETATM   22  O5  UNL     1      13.143   5.493  28.346  1.00  0.00    -0.389 OA
ATOM     23  H5  UNL     1      13.606   4.674  28.484  1.00  0.00     0.210 HD
ENDBRANCH   7  22
TORSDOF 6
ENDMDL
