MODEL 1
REMARK VINA RESULT: -5.474513654      0.000      0.000
REMARK  4 active torsions:
REMARK  status: ('A' for Active; 'I' for Inactive)
REMARK    1  A    between atoms: N1_2  and  C3_4 
REMARK    2  A    between atoms: C6_7  and  C7_8 
REMARK    3  A    between atoms: N2_9  and  N3_11 
REMARK    4  A    between atoms: N3_11  and  C8_13 
ROOT
HETATM    1  C3  UNL     1      15.632   2.228  23.468  1.00  0.00     0.029 A 
HETATM    2  C4  UNL     1      15.484   2.219  22.100  1.00  0.00     0.030 A 
HETATM    3  C5  UNL     1      15.058   1.111  21.424  1.00  0.00     0.015 A 
HETATM    4  C6  UNL     1      14.751  -0.081  22.101  1.00  0.00    -0.019 A 
HETATM    5  C9  UNL     1      14.899  -0.072  23.465  1.00  0.00     0.015 A 
HETATM    6  C10 UNL     1      15.333   1.069  24.133  1.00  0.00     0.030 A 
ENDROOT
BRANCH   4   7
HETATM    7  C7  UNL     1      14.297  -1.247  21.339  1.00  0.00     0.118 C 
HETATM    8  N2  UNL     1      13.188  -1.464  20.856  1.00  0.00    -0.309 N 
ATOM      9  H2  UNL     1      13.159  -2.362  20.375  1.00  0.00     0.186 HD
BRANCH   8  10
HETATM   10  N3  UNL     1      12.020  -0.840  20.796  1.00  0.00    -0.279 N 
ATOM     11  H3  UNL     1      11.823  -0.092  21.461  1.00  0.00     0.189 HD
BRANCH  10  12
HETATM   12  C8  UNL     1      11.027  -1.184  19.824  1.00  0.00     0.199 C 
HETATM   13  N4  UNL     1      11.398  -1.142  18.457  1.00  0.00    -0.068 NA
HETATM   14  S1  UNL     1       9.517  -1.612  20.266  1.00  0.00    -0.043 SA
ENDBRANCH  10  12
ENDBRANCH   8  10
ENDBRANCH   4   7
BRANCH   1  15
HETATM   15  N1  UNL     1      16.075   3.391  24.149  1.00  0.00    -0.390 N 
HETATM   16  C1  UNL     1      16.338   4.582  23.408  1.00  0.00     0.149 C 
HETATM   17  C2  UNL     1      16.247   3.328  25.583  1.00  0.00     0.149 C 
ENDBRANCH   1  15
TORSDOF 4
ENDMDL
MODEL 2
REMARK VINA RESULT: -5.390647206      0.316      1.552
REMARK  4 active torsions:
REMARK  status: ('A' for Active; 'I' for Inactive)
REMARK    1  A    between atoms: N1_2  and  C3_4 
REMARK    2  A    between atoms: C6_7  and  C7_8 
REMARK    3  A    between atoms: N2_9  and  N3_11 
REMARK    4  A    between atoms: N3_11  and  C8_13 
ROOT
HETATM    1  C3  UNL     1      15.532   2.066  23.337  1.00  0.00     0.029 A 
HETATM    2  C4  UNL     1      15.344   0.891  24.027  1.00  0.00     0.030 A 
HETATM    3  C5  UNL     1      14.917  -0.252  23.412  1.00  0.00     0.015 A 
HETATM    4  C6  UNL     1      14.648  -0.280  22.034  1.00  0.00    -0.019 A 
HETATM    5  C9  UNL     1      14.835   0.892  21.345  1.00  0.00     0.015 A 
HETATM    6  C10 UNL     1      15.272   2.044  21.991  1.00  0.00     0.030 A 
ENDROOT
BRANCH   4   7
HETATM    7  C7  UNL     1      14.192  -1.525  21.412  1.00  0.00     0.118 C 
HETATM    8  N2  UNL     1      13.073  -1.805  20.989  1.00  0.00    -0.309 N 
ATOM      9  H2  UNL     1      13.043  -2.750  20.605  1.00  0.00     0.186 HD
BRANCH   8  10
HETATM   10  N3  UNL     1      11.894  -1.206  20.898  1.00  0.00    -0.279 N 
ATOM     11  H3  UNL     1      11.536  -0.694  21.705  1.00  0.00     0.189 HD
BRANCH  10  12
HETATM   12  C8  UNL     1      11.108  -1.256  19.703  1.00  0.00     0.199 C 
HETATM   13  N4  UNL     1      11.722  -0.850  18.491  1.00  0.00    -0.068 NA
HETATM   14  S1  UNL     1       9.558  -1.762  19.724  1.00  0.00    -0.043 SA
ENDBRANCH  10  12
ENDBRANCH   8  10
ENDBRANCH   4   7
BRANCH   1  15
HETATM   15  N1  UNL     1      15.977   3.240  23.996  1.00  0.00    -0.390 N 
HETATM   16  C1  UNL     1      16.180   3.219  25.408  1.00  0.00     0.149 C 
HETATM   17  C2  UNL     1      16.210   4.429  23.206  1.00  0.00     0.149 C 
ENDBRANCH   1  15
TORSDOF 4
ENDMDL
MODEL 3
REMARK VINA RESULT: -5.284350611      2.875      3.819
REMARK  4 active torsions:
REMARK  status: ('A' for Active; 'I' for Inactive)
REMARK    1  A    between atoms: N1_2  and  C3_4 
REMARK    2  A    between atoms: C6_7  and  C7_8 
REMARK    3  A    between atoms: N2_9  and  N3_11 
REMARK    4  A    between atoms: N3_11  and  C8_13 
ROOT
HETATM    1  C3  UNL     1      13.294  -0.659  22.684  1.00  0.00     0.029 A 
HETATM    2  C4  UNL     1      13.693   0.152  21.647  1.00  0.00     0.030 A 
HETATM    3  C5  UNL     1      13.258  -0.039  20.367  1.00  0.00     0.015 A 
HETATM    4  C6  UNL     1      12.375  -1.083  20.047  1.00  0.00    -0.019 A 
HETATM    5  C9  UNL     1      11.976  -1.893  21.080  1.00  0.00     0.015 A 
HETATM    6  C10 UNL     1      12.431  -1.678  22.377  1.00  0.00     0.030 A 
ENDROOT
BRANCH   4   7
HETATM    7  C7  UNL     1      11.932  -1.254  18.660  1.00  0.00     0.118 C 
HETATM    8  N2  UNL     1      10.805  -1.505  18.242  1.00  0.00    -0.309 N 
ATOM      9  H2  UNL     1      10.789  -1.568  17.224  1.00  0.00     0.186 HD
BRANCH   8  10
HETATM   10  N3  UNL     1       9.604  -1.716  18.761  1.00  0.00    -0.279 N 
ATOM     11  H3  UNL     1       9.349  -1.241  19.628  1.00  0.00     0.189 HD
BRANCH  10  12
HETATM   12  C8  UNL     1       8.653  -2.590  18.143  1.00  0.00     0.199 C 
HETATM   13  N4  UNL     1       8.000  -2.133  16.972  1.00  0.00    -0.068 NA
HETATM   14  S1  UNL     1       8.327  -4.064  18.759  1.00  0.00    -0.043 SA
ENDBRANCH  10  12
ENDBRANCH   8  10
ENDBRANCH   4   7
BRANCH   1  15
HETATM   15  N1  UNL     1      13.758  -0.441  24.006  1.00  0.00    -0.390 N 
HETATM   16  C1  UNL     1      15.156  -0.519  24.282  1.00  0.00     0.149 C 
HETATM   17  C2  UNL     1      12.789  -0.146  25.039  1.00  0.00     0.149 C 
ENDBRANCH   1  15
TORSDOF 4
ENDMDL
MODEL 4
REMARK VINA RESULT: -5.261004064      2.855      6.045
REMARK  4 active torsions:
REMARK  status: ('A' for Active; 'I' for Inactive)
REMARK    1  A    between atoms: N1_2  and  C3_4 
REMARK    2  A    between atoms: C6_7  and  C7_8 
REMARK    3  A    between atoms: N2_9  and  N3_11 
REMARK    4  A    between atoms: N3_11  and  C8_13 
ROOT
HETATM    1  C3  UNL     1      13.659  -1.320  21.151  1.00  0.00     0.029 A 
HETATM    2  C4  UNL     1      13.373  -0.075  20.640  1.00  0.00     0.030 A 
HETATM    3  C5  UNL     1      14.127   1.024  20.940  1.00  0.00     0.015 A 
HETATM    4  C6  UNL     1      15.239   0.932  21.793  1.00  0.00    -0.019 A 
HETATM    5  C9  UNL     1      15.524  -0.309  22.304  1.00  0.00     0.015 A 
HETATM    6  C10 UNL     1      14.743  -1.415  21.984  1.00  0.00     0.030 A 
ENDROOT
BRANCH   4   7
HETATM    7  C7  UNL     1      16.022   2.134  22.091  1.00  0.00     0.118 C 
HETATM    8  N2  UNL     1      15.865   2.944  23.002  1.00  0.00    -0.309 N 
ATOM      9  H2  UNL     1      16.563   3.687  22.964  1.00  0.00     0.186 HD
BRANCH   8  10
HETATM   10  N3  UNL     1      15.032   3.108  24.019  1.00  0.00    -0.279 N 
ATOM     11  H3  UNL     1      14.426   3.929  24.035  1.00  0.00     0.189 HD
BRANCH  10  12
HETATM   12  C8  UNL     1      14.957   2.168  25.097  1.00  0.00     0.199 C 
HETATM   13  N4  UNL     1      13.670   1.774  25.540  1.00  0.00    -0.068 NA
HETATM   14  S1  UNL     1      16.302   1.567  25.796  1.00  0.00    -0.043 SA
ENDBRANCH  10  12
ENDBRANCH   8  10
ENDBRANCH   4   7
BRANCH   1  15
HETATM   15  N1  UNL     1      12.862  -2.447  20.825  1.00  0.00    -0.390 N 
HETATM   16  C1  UNL     1      11.669  -2.268  20.063  1.00  0.00     0.149 C 
HETATM   17  C2  UNL     1      13.291  -3.751  21.281  1.00  0.00     0.149 C 
ENDBRANCH   1  15
TORSDOF 4
ENDMDL
MODEL 5
REMARK VINA RESULT: -5.233950381      2.852      6.172
REMARK  4 active torsions:
REMARK  status: ('A' for Active; 'I' for Inactive)
REMARK    1  A    between atoms: N1_2  and  C3_4 
REMARK    2  A    between atoms: C6_7  and  C7_8 
REMARK    3  A    between atoms: N2_9  and  N3_11 
REMARK    4  A    between atoms: N3_11  and  C8_13 
ROOT
HETATM    1  C3  UNL     1      13.635  -1.391  21.124  1.00  0.00     0.029 A 
HETATM    2  C4  UNL     1      14.752  -1.467  21.922  1.00  0.00     0.030 A 
HETATM    3  C5  UNL     1      15.500  -0.366  22.231  1.00  0.00     0.015 A 
HETATM    4  C6  UNL     1      15.160   0.905  21.741  1.00  0.00    -0.019 A 
HETATM    5  C9  UNL     1      14.045   0.982  20.944  1.00  0.00     0.015 A 
HETATM    6  C10 UNL     1      13.297  -0.152  20.644  1.00  0.00     0.030 A 
ENDROOT
BRANCH   4   7
HETATM    7  C7  UNL     1      15.988   2.061  22.095  1.00  0.00     0.118 C 
HETATM    8  N2  UNL     1      15.845   2.850  23.026  1.00  0.00    -0.309 N 
ATOM      9  H2  UNL     1      16.577   3.560  23.029  1.00  0.00     0.186 HD
BRANCH   8  10
HETATM   10  N3  UNL     1      14.993   3.023  24.026  1.00  0.00    -0.279 N 
ATOM     11  H3  UNL     1      14.407   3.858  24.038  1.00  0.00     0.189 HD
BRANCH  10  12
HETATM   12  C8  UNL     1      14.870   2.073  25.091  1.00  0.00     0.199 C 
HETATM   13  N4  UNL     1      13.564   1.708  25.502  1.00  0.00    -0.068 NA
HETATM   14  S1  UNL     1      16.183   1.428  25.811  1.00  0.00    -0.043 SA
ENDBRANCH  10  12
ENDBRANCH   8  10
ENDBRANCH   4   7
BRANCH   1  15
HETATM   15  N1  UNL     1      12.873  -2.547  20.817  1.00  0.00    -0.390 N 
HETATM   16  C1  UNL     1      13.307  -3.821  21.291  1.00  0.00     0.149 C 
HETATM   17  C2  UNL     1      11.671  -2.393  20.027  1.00  0.00     0.149 C 
ENDBRANCH   1  15
TORSDOF 4
ENDMDL
