MODEL 1
REMARK VINA RESULT: -5.552484291      0.000      0.000
REMARK  3 active torsions:
REMARK  status: ('A' for Active; 'I' for Inactive)
REMARK    1  A    between atoms: O1_2  and  C2_3 
REMARK    2  A    between atoms: C4_5  and  C5_6 
REMARK    3  A    between atoms: C10_13  and  O2_14 
ROOT
HETATM    1  C2  UNL     1      13.062  -0.579  20.909  1.00  0.00     0.120 A 
HETATM    2  C3  UNL     1      13.820   0.578  20.989  1.00  0.00     0.054 A 
HETATM    3  C4  UNL     1      14.809   0.722  21.980  1.00  0.00    -0.016 A 
HETATM    4  C8  UNL     1      14.966  -0.325  22.836  1.00  0.00     0.104 A 
HETATM    5  N2  UNL     1      14.236  -1.464  22.777  1.00  0.00    -0.339 N 
HETATM    6  C9  UNL     1      14.457  -2.528  23.720  1.00  0.00     0.158 C 
HETATM    7  C10 UNL     1      13.307  -1.583  21.832  1.00  0.00     0.177 A 
ENDROOT
BRANCH   3   8
HETATM    8  C5  UNL     1      15.540   1.975  22.013  1.00  0.00     0.034 C 
HETATM    9  C6  UNL     1      15.396   2.828  23.004  1.00  0.00     0.021 C 
HETATM   10  C7  UNL     1      16.165   4.138  23.020  1.00  0.00     0.065 C 
HETATM   11  N1  UNL     1      14.556   2.602  24.121  1.00  0.00    -0.107 NA
ENDBRANCH   3   8
BRANCH   1  12
HETATM   12  O1  UNL     1      12.083  -0.756  19.946  1.00  0.00    -0.352 OA
HETATM   13  C1  UNL     1      12.382  -0.512  18.592  1.00  0.00     0.210 C 
ENDBRANCH   1  12
BRANCH   7  14
HETATM   14  O2  UNL     1      12.551  -2.731  21.752  1.00  0.00    -0.339 OA
HETATM   15  C11 UNL     1      12.908  -3.737  20.829  1.00  0.00     0.211 C 
ENDBRANCH   7  14
TORSDOF 3
ENDMDL
MODEL 2
REMARK VINA RESULT: -5.376719562      1.248      2.900
REMARK  3 active torsions:
REMARK  status: ('A' for Active; 'I' for Inactive)
REMARK    1  A    between atoms: O1_2  and  C2_3 
REMARK    2  A    between atoms: C4_5  and  C5_6 
REMARK    3  A    between atoms: C10_13  and  O2_14 
ROOT
HETATM    1  C2  UNL     1      14.619  -1.213  23.044  1.00  0.00     0.120 A 
HETATM    2  C3  UNL     1      15.267   0.012  23.041  1.00  0.00     0.054 A 
HETATM    3  C4  UNL     1      15.009   0.959  22.033  1.00  0.00    -0.016 A 
HETATM    4  C8  UNL     1      14.104   0.601  21.082  1.00  0.00     0.104 A 
HETATM    5  N2  UNL     1      13.460  -0.591  21.064  1.00  0.00    -0.339 N 
HETATM    6  C9  UNL     1      12.517  -0.901  20.023  1.00  0.00     0.158 C 
HETATM    7  C10 UNL     1      13.715  -1.473  22.027  1.00  0.00     0.177 A 
ENDROOT
BRANCH   3   8
HETATM    8  C5  UNL     1      15.750   2.206  22.086  1.00  0.00     0.034 C 
HETATM    9  C6  UNL     1      15.550   3.083  23.047  1.00  0.00     0.021 C 
HETATM   10  C7  UNL     1      16.332   4.385  23.085  1.00  0.00     0.065 C 
HETATM   11  N1  UNL     1      14.636   2.890  24.111  1.00  0.00    -0.107 NA
ENDBRANCH   3   8
BRANCH   1  12
HETATM   12  O1  UNL     1      14.846  -2.166  24.021  1.00  0.00    -0.352 OA
HETATM   13  C1  UNL     1      15.126  -1.763  25.341  1.00  0.00     0.210 C 
ENDBRANCH   1  12
BRANCH   7  14
HETATM   14  O2  UNL     1      13.074  -2.692  22.030  1.00  0.00    -0.339 OA
HETATM   15  C11 UNL     1      13.733  -3.826  21.508  1.00  0.00     0.211 C 
ENDBRANCH   7  14
TORSDOF 3
ENDMDL
MODEL 3
REMARK VINA RESULT: -5.086367847      1.622      2.940
REMARK  3 active torsions:
REMARK  status: ('A' for Active; 'I' for Inactive)
REMARK    1  A    between atoms: O1_2  and  C2_3 
REMARK    2  A    between atoms: C4_5  and  C5_6 
REMARK    3  A    between atoms: C10_13  and  O2_14 
ROOT
HETATM    1  C2  UNL     1      14.114  -2.597  21.647  1.00  0.00     0.120 A 
HETATM    2  C3  UNL     1      14.802  -1.398  21.739  1.00  0.00     0.054 A 
HETATM    3  C4  UNL     1      14.214  -0.197  21.301  1.00  0.00    -0.016 A 
HETATM    4  C8  UNL     1      12.956  -0.289  20.790  1.00  0.00     0.104 A 
HETATM    5  N2  UNL     1      12.266  -1.450  20.690  1.00  0.00    -0.339 N 
HETATM    6  C9  UNL     1      10.939  -1.470  20.135  1.00  0.00     0.158 C 
HETATM    7  C10 UNL     1      12.837  -2.575  21.111  1.00  0.00     0.177 A 
ENDROOT
BRANCH   3   8
HETATM    8  C5  UNL     1      15.012   1.011  21.406  1.00  0.00     0.034 C 
HETATM    9  C6  UNL     1      15.059   1.708  22.521  1.00  0.00     0.021 C 
HETATM   10  C7  UNL     1      15.896   2.972  22.611  1.00  0.00     0.065 C 
HETATM   11  N1  UNL     1      14.375   1.344  23.706  1.00  0.00    -0.107 NA
ENDBRANCH   3   8
BRANCH   1  12
HETATM   12  O1  UNL     1      14.660  -3.796  22.072  1.00  0.00    -0.352 OA
HETATM   13  C1  UNL     1      14.633  -4.133  23.439  1.00  0.00     0.210 C 
ENDBRANCH   1  12
BRANCH   7  14
HETATM   14  O2  UNL     1      12.157  -3.769  21.019  1.00  0.00    -0.339 OA
HETATM   15  C11 UNL     1      12.367  -4.605  19.902  1.00  0.00     0.211 C 
ENDBRANCH   7  14
TORSDOF 3
ENDMDL
MODEL 4
REMARK VINA RESULT: -5.065986646      1.453      1.649
REMARK  3 active torsions:
REMARK  status: ('A' for Active; 'I' for Inactive)
REMARK    1  A    between atoms: O1_2  and  C2_3 
REMARK    2  A    between atoms: C4_5  and  C5_6 
REMARK    3  A    between atoms: C10_13  and  O2_14 
ROOT
HETATM    1  C2  UNL     1      12.276  -1.423  20.279  1.00  0.00     0.120 A 
HETATM    2  C3  UNL     1      13.076  -0.302  20.430  1.00  0.00     0.054 A 
HETATM    3  C4  UNL     1      14.247  -0.354  21.209  1.00  0.00    -0.016 A 
HETATM    4  C8  UNL     1      14.534  -1.550  21.792  1.00  0.00     0.104 A 
HETATM    5  N2  UNL     1      13.767  -2.657  21.659  1.00  0.00    -0.339 N 
HETATM    6  C9  UNL     1      14.133  -3.887  22.310  1.00  0.00     0.158 C 
HETATM    7  C10 UNL     1      12.664  -2.590  20.917  1.00  0.00     0.177 A 
ENDROOT
BRANCH   3   8
HETATM    8  C5  UNL     1      15.014   0.871  21.339  1.00  0.00     0.034 C 
HETATM    9  C6  UNL     1      14.949   1.611  22.425  1.00  0.00     0.021 C 
HETATM   10  C7  UNL     1      15.755   2.892  22.542  1.00  0.00     0.065 C 
HETATM   11  N1  UNL     1      14.164   1.280  23.556  1.00  0.00    -0.107 NA
ENDBRANCH   3   8
BRANCH   1  12
HETATM   12  O1  UNL     1      11.120  -1.409  19.518  1.00  0.00    -0.352 OA
HETATM   13  C1  UNL     1       9.905  -0.999  20.098  1.00  0.00     0.210 C 
ENDBRANCH   1  12
BRANCH   7  14
HETATM   14  O2  UNL     1      11.866  -3.702  20.768  1.00  0.00    -0.339 OA
HETATM   15  C11 UNL     1      12.043  -4.540  19.646  1.00  0.00     0.211 C 
ENDBRANCH   7  14
TORSDOF 3
ENDMDL
MODEL 5
REMARK VINA RESULT: -4.956062173      2.454      4.097
REMARK  3 active torsions:
REMARK  status: ('A' for Active; 'I' for Inactive)
REMARK    1  A    between atoms: O1_2  and  C2_3 
REMARK    2  A    between atoms: C4_5  and  C5_6 
REMARK    3  A    between atoms: C10_13  and  O2_14 
ROOT
HETATM    1  C2  UNL     1      12.692  -3.728  20.409  1.00  0.00     0.120 A 
HETATM    2  C3  UNL     1      13.322  -2.720  21.120  1.00  0.00     0.054 A 
HETATM    3  C4  UNL     1      12.722  -1.454  21.255  1.00  0.00    -0.016 A 
HETATM    4  C8  UNL     1      11.513  -1.288  20.653  1.00  0.00     0.104 A 
HETATM    5  N2  UNL     1      10.880  -2.259  19.952  1.00  0.00    -0.339 N 
HETATM    6  C9  UNL     1       9.603  -2.009  19.339  1.00  0.00     0.158 C 
HETATM    7  C10 UNL     1      11.461  -3.451  19.837  1.00  0.00     0.177 A 
ENDROOT
BRANCH   3   8
HETATM    8  C5  UNL     1      13.459  -0.444  21.992  1.00  0.00     0.034 C 
HETATM    9  C6  UNL     1      14.163   0.481  21.374  1.00  0.00     0.021 C 
HETATM   10  C7  UNL     1      14.931   1.527  22.162  1.00  0.00     0.065 C 
HETATM   11  N1  UNL     1      14.246   0.596  19.966  1.00  0.00    -0.107 NA
ENDBRANCH   3   8
BRANCH   1  12
HETATM   12  O1  UNL     1      13.251  -4.986  20.259  1.00  0.00    -0.352 OA
HETATM   13  C1  UNL     1      14.083  -5.507  21.268  1.00  0.00     0.210 C 
ENDBRANCH   1  12
BRANCH   7  14
HETATM   14  O2  UNL     1      10.839  -4.454  19.128  1.00  0.00    -0.339 OA
HETATM   15  C11 UNL     1      10.066  -5.415  19.815  1.00  0.00     0.211 C 
ENDBRANCH   7  14
TORSDOF 3
ENDMDL
