MODEL 1
REMARK VINA RESULT: -6.964632261      0.000      0.000
REMARK  3 active torsions:
REMARK  status: ('A' for Active; 'I' for Inactive)
REMARK    1  A    between atoms: C1_1  and  C10_16 
REMARK    2  A    between atoms: N1_2  and  N2_4 
REMARK    3  A    between atoms: N2_4  and  C2_6 
ROOT
HETATM    1  N2  UNL     1      15.205   0.118  21.298  1.00  0.00    -0.303 N 
ATOM      2  H2  UNL     1      15.859   0.519  20.626  1.00  0.00     0.186 HD
ENDROOT
BRANCH   1   3
HETATM    3  N1  UNL     1      14.215  -0.696  20.816  1.00  0.00    -0.309 N 
HETATM    4  C1  UNL     1      13.128  -0.324  20.247  1.00  0.00     0.136 C 
ATOM      5  H1  UNL     1      14.356  -1.700  20.922  1.00  0.00     0.186 HD
BRANCH   4   6
HETATM    6  C10 UNL     1      12.181  -1.336  19.793  1.00  0.00     0.049 A 
HETATM    7  C11 UNL     1      12.162  -2.669  20.143  1.00  0.00     0.032 A 
HETATM    8  C12 UNL     1      11.130  -3.291  19.517  1.00  0.00     0.019 A 
HETATM    9  C13 UNL     1      10.505  -2.318  18.770  1.00  0.00     0.088 A 
HETATM   10  N4  UNL     1      11.152  -1.157  18.951  1.00  0.00    -0.365 N 
ATOM     11  H4  UNL     1      10.899  -0.271  18.514  1.00  0.00     0.165 HD
ENDBRANCH   4   6
ENDBRANCH   1   3
BRANCH   1  12
HETATM   12  C2  UNL     1      15.384   0.446  22.693  1.00  0.00     0.056 A 
HETATM   13  C3  UNL     1      15.655   1.655  23.150  1.00  0.00     0.016 A 
HETATM   14  C4  UNL     1      15.833   2.869  22.478  1.00  0.00     0.016 A 
HETATM   15  C8  UNL     1      15.766   1.638  24.523  1.00  0.00     0.040 A 
HETATM   16  C5  UNL     1      16.114   4.045  23.129  1.00  0.00     0.001 A 
HETATM   17  C6  UNL     1      16.220   4.011  24.493  1.00  0.00     0.002 A 
HETATM   18  C7  UNL     1      16.051   2.832  25.183  1.00  0.00     0.030 A 
HETATM   19  N3  UNL     1      15.574   0.449  24.972  1.00  0.00    -0.383 N 
HETATM   20  C9  UNL     1      15.313  -0.425  23.860  1.00  0.00     0.179 A 
ATOM     21  H3  UNL     1      15.602   0.171  25.954  1.00  0.00     0.160 HD
ENDBRANCH   1  12
TORSDOF 3
ENDMDL
MODEL 2
REMARK VINA RESULT: -6.752193319      1.336      2.001
REMARK  3 active torsions:
REMARK  status: ('A' for Active; 'I' for Inactive)
REMARK    1  A    between atoms: C1_1  and  C10_16 
REMARK    2  A    between atoms: N1_2  and  N2_4 
REMARK    3  A    between atoms: N2_4  and  C2_6 
ROOT
HETATM    1  N2  UNL     1      15.774  -0.320  22.028  1.00  0.00    -0.303 N 
ATOM      2  H2  UNL     1      16.597  -0.878  22.257  1.00  0.00     0.186 HD
ENDROOT
BRANCH   1   3
HETATM    3  N1  UNL     1      14.822  -0.886  21.225  1.00  0.00    -0.309 N 
HETATM    4  C1  UNL     1      13.581  -1.046  21.505  1.00  0.00     0.136 C 
ATOM      5  H1  UNL     1      15.131  -1.215  20.311  1.00  0.00     0.186 HD
BRANCH   4   6
HETATM    6  C10 UNL     1      12.705  -1.673  20.522  1.00  0.00     0.049 A 
HETATM    7  C11 UNL     1      12.399  -3.012  20.421  1.00  0.00     0.032 A 
HETATM    8  C12 UNL     1      11.550  -3.209  19.380  1.00  0.00     0.019 A 
HETATM    9  C13 UNL     1      11.333  -1.964  18.834  1.00  0.00     0.088 A 
HETATM   10  N4  UNL     1      12.035  -1.061  19.533  1.00  0.00    -0.365 N 
ATOM     11  H4  UNL     1      12.056  -0.059  19.343  1.00  0.00     0.165 HD
ENDBRANCH   4   6
ENDBRANCH   1   3
BRANCH   1  12
HETATM   12  C2  UNL     1      15.692   1.015  22.574  1.00  0.00     0.056 A 
HETATM   13  C3  UNL     1      16.033   1.343  23.807  1.00  0.00     0.016 A 
HETATM   14  C4  UNL     1      16.532   0.564  24.857  1.00  0.00     0.016 A 
HETATM   15  C8  UNL     1      15.838   2.690  24.019  1.00  0.00     0.040 A 
HETATM   16  C5  UNL     1      16.835   1.085  26.091  1.00  0.00     0.001 A 
HETATM   17  C6  UNL     1      16.636   2.426  26.285  1.00  0.00     0.002 A 
HETATM   18  C7  UNL     1      16.146   3.219  25.273  1.00  0.00     0.030 A 
HETATM   19  N3  UNL     1      15.379   3.248  22.956  1.00  0.00    -0.383 N 
HETATM   20  C9  UNL     1      15.240   2.244  21.935  1.00  0.00     0.179 A 
ATOM     21  H3  UNL     1      15.152   4.237  22.854  1.00  0.00     0.160 HD
ENDBRANCH   1  12
TORSDOF 3
ENDMDL
MODEL 3
REMARK VINA RESULT: -6.713718531      0.862      1.042
REMARK  3 active torsions:
REMARK  status: ('A' for Active; 'I' for Inactive)
REMARK    1  A    between atoms: C1_1  and  C10_16 
REMARK    2  A    between atoms: N1_2  and  N2_4 
REMARK    3  A    between atoms: N2_4  and  C2_6 
ROOT
HETATM    1  N2  UNL     1      15.139   0.239  21.288  1.00  0.00    -0.303 N 
ATOM      2  H2  UNL     1      15.585   0.844  20.598  1.00  0.00     0.186 HD
ENDROOT
BRANCH   1   3
HETATM    3  N1  UNL     1      14.364  -0.791  20.827  1.00  0.00    -0.309 N 
HETATM    4  C1  UNL     1      13.091  -0.786  20.684  1.00  0.00     0.136 C 
ATOM      5  H1  UNL     1      14.850  -1.650  20.571  1.00  0.00     0.186 HD
BRANCH   4   6
HETATM    6  C10 UNL     1      12.427  -1.981  20.176  1.00  0.00     0.049 A 
HETATM    7  C11 UNL     1      11.389  -2.030  19.271  1.00  0.00     0.032 A 
HETATM    8  C12 UNL     1      11.041  -3.322  19.044  1.00  0.00     0.019 A 
HETATM    9  C13 UNL     1      11.884  -4.079  19.827  1.00  0.00     0.088 A 
HETATM   10  N4  UNL     1      12.704  -3.254  20.495  1.00  0.00    -0.365 N 
ATOM     11  H4  UNL     1      13.429  -3.551  21.148  1.00  0.00     0.165 HD
ENDBRANCH   4   6
ENDBRANCH   1   3
BRANCH   1  12
HETATM   12  C2  UNL     1      15.366   0.526  22.685  1.00  0.00     0.056 A 
HETATM   13  C3  UNL     1      15.655   1.722  23.167  1.00  0.00     0.016 A 
HETATM   14  C4  UNL     1      15.812   2.955  22.524  1.00  0.00     0.016 A 
HETATM   15  C8  UNL     1      15.812   1.665  24.534  1.00  0.00     0.040 A 
HETATM   16  C5  UNL     1      16.117   4.111  23.199  1.00  0.00     0.001 A 
HETATM   17  C6  UNL     1      16.270   4.038  24.557  1.00  0.00     0.002 A 
HETATM   18  C7  UNL     1      16.123   2.840  25.219  1.00  0.00     0.030 A 
HETATM   19  N3  UNL     1      15.634   0.464  24.956  1.00  0.00    -0.383 N 
HETATM   20  C9  UNL     1      15.333  -0.378  23.828  1.00  0.00     0.179 A 
ATOM     21  H3  UNL     1      15.695   0.158  25.927  1.00  0.00     0.160 HD
ENDBRANCH   1  12
TORSDOF 3
ENDMDL
MODEL 4
REMARK VINA RESULT: -6.522203551      1.475      2.363
REMARK  3 active torsions:
REMARK  status: ('A' for Active; 'I' for Inactive)
REMARK    1  A    between atoms: C1_1  and  C10_16 
REMARK    2  A    between atoms: N1_2  and  N2_4 
REMARK    3  A    between atoms: N2_4  and  C2_6 
ROOT
HETATM    1  N2  UNL     1      15.901   0.367  21.872  1.00  0.00    -0.303 N 
ATOM      2  H2  UNL     1      16.797  -0.099  21.730  1.00  0.00     0.186 HD
ENDROOT
BRANCH   1   3
HETATM    3  N1  UNL     1      14.810  -0.132  21.213  1.00  0.00    -0.309 N 
HETATM    4  C1  UNL     1      13.586  -0.042  21.581  1.00  0.00     0.136 C 
ATOM      5  H1  UNL     1      14.990  -0.626  20.339  1.00  0.00     0.186 HD
BRANCH   4   6
HETATM    6  C10 UNL     1      12.547  -0.637  20.749  1.00  0.00     0.049 A 
HETATM    7  C11 UNL     1      12.568  -0.786  19.379  1.00  0.00     0.032 A 
HETATM    8  C12 UNL     1      11.420  -1.384  18.967  1.00  0.00     0.019 A 
HETATM    9  C13 UNL     1      10.683  -1.604  20.109  1.00  0.00     0.088 A 
HETATM   10  N4  UNL     1      11.377  -1.148  21.162  1.00  0.00    -0.365 N 
ATOM     11  H4  UNL     1      11.063  -1.185  22.131  1.00  0.00     0.165 HD
ENDBRANCH   4   6
ENDBRANCH   1   3
BRANCH   1  12
HETATM   12  C2  UNL     1      15.867   1.509  22.755  1.00  0.00     0.056 A 
HETATM   13  C3  UNL     1      16.088   1.458  24.057  1.00  0.00     0.016 A 
HETATM   14  C4  UNL     1      16.393   0.377  24.891  1.00  0.00     0.016 A 
HETATM   15  C8  UNL     1      15.983   2.713  24.614  1.00  0.00     0.040 A 
HETATM   16  C5  UNL     1      16.593   0.514  26.243  1.00  0.00     0.001 A 
HETATM   17  C6  UNL     1      16.485   1.768  26.781  1.00  0.00     0.002 A 
HETATM   18  C7  UNL     1      16.185   2.852  25.987  1.00  0.00     0.030 A 
HETATM   19  N3  UNL     1      15.700   3.582  23.710  1.00  0.00    -0.383 N 
HETATM   20  C9  UNL     1      15.598   2.908  22.443  1.00  0.00     0.179 A 
ATOM     21  H3  UNL     1      15.569   4.582  23.865  1.00  0.00     0.160 HD
ENDBRANCH   1  12
TORSDOF 3
ENDMDL
MODEL 5
REMARK VINA RESULT: -6.260680317      2.046      3.229
REMARK  3 active torsions:
REMARK  status: ('A' for Active; 'I' for Inactive)
REMARK    1  A    between atoms: C1_1  and  C10_16 
REMARK    2  A    between atoms: N1_2  and  N2_4 
REMARK    3  A    between atoms: N2_4  and  C2_6 
ROOT
HETATM    1  N2  UNL     1      12.021  -1.137  22.248  1.00  0.00    -0.303 N 
ATOM      2  H2  UNL     1      11.857  -1.355  23.231  1.00  0.00     0.186 HD
ENDROOT
BRANCH   1   3
HETATM    3  N1  UNL     1      11.074  -1.530  21.341  1.00  0.00    -0.309 N 
HETATM    4  C1  UNL     1      11.132  -2.550  20.568  1.00  0.00     0.136 C 
ATOM      5  H1  UNL     1      10.237  -0.951  21.273  1.00  0.00     0.186 HD
BRANCH   4   6
HETATM    6  C10 UNL     1      10.023  -2.818  19.659  1.00  0.00     0.049 A 
HETATM    7  C11 UNL     1       9.154  -3.886  19.706  1.00  0.00     0.032 A 
HETATM    8  C12 UNL     1       8.256  -3.788  18.692  1.00  0.00     0.019 A 
HETATM    9  C13 UNL     1       8.584  -2.637  18.011  1.00  0.00     0.088 A 
HETATM   10  N4  UNL     1       9.644  -2.074  18.608  1.00  0.00    -0.365 N 
ATOM     11  H4  UNL     1      10.095  -1.210  18.309  1.00  0.00     0.165 HD
ENDBRANCH   4   6
ENDBRANCH   1   3
BRANCH   1  12
HETATM   12  C2  UNL     1      13.235  -0.435  21.906  1.00  0.00     0.056 A 
HETATM   13  C3  UNL     1      14.233  -0.212  22.742  1.00  0.00     0.016 A 
HETATM   14  C4  UNL     1      14.396  -0.561  24.088  1.00  0.00     0.016 A 
HETATM   15  C8  UNL     1      15.244   0.481  22.113  1.00  0.00     0.040 A 
HETATM   16  C5  UNL     1      15.520  -0.240  24.808  1.00  0.00     0.001 A 
HETATM   17  C6  UNL     1      16.515   0.449  24.169  1.00  0.00     0.002 A 
HETATM   18  C7  UNL     1      16.385   0.807  22.846  1.00  0.00     0.030 A 
HETATM   19  N3  UNL     1      14.931   0.716  20.889  1.00  0.00    -0.383 N 
HETATM   20  C9  UNL     1      13.628   0.160  20.634  1.00  0.00     0.179 A 
ATOM     21  H3  UNL     1      15.509   1.214  20.211  1.00  0.00     0.160 HD
ENDBRANCH   1  12
TORSDOF 3
ENDMDL
