MODEL 1
REMARK VINA RESULT: -5.291257521      0.000      0.000
REMARK  8 active torsions:
REMARK  status: ('A' for Active; 'I' for Inactive)
REMARK    1  A    between atoms: C5_5  and  N1_6 
REMARK    2  A    between atoms: C5_5  and  O1_10 
REMARK    3  A    between atoms: C6_15  and  O2_16 
REMARK    4  A    between atoms: N7_27  and  C10_28 
REMARK    5  A    between atoms: C10_28  and  C11_29 
REMARK    6  A    between atoms: C11_29  and  C12_30 
REMARK    7  A    between atoms: C12_30  and  C13_31 
REMARK    8  A    between atoms: C13_31  and  N8_32 
ROOT
HETATM    1  C1  UNL     1      37.946   4.925  22.575  1.00  0.00     0.043 C 
HETATM    2  C2  UNL     1      38.748   3.744  23.088  1.00  0.00    -0.074 C 
HETATM    3  C3  UNL     1      40.221   3.859  22.999  1.00  0.00     0.043 C 
HETATM    4  C4  UNL     1      38.126   2.693  23.579  1.00  0.00     0.066 C 
HETATM    5  C5  UNL     1      36.643   2.611  23.652  1.00  0.00     0.421 C 
HETATM    6  N2  UNL     1      36.380   1.184  23.686  1.00  0.00     0.019 N 
ATOM      7  H21 UNL     1      36.304   0.755  22.765  1.00  0.00     0.286 HD
ATOM      8  H22 UNL     1      35.441   0.943  24.003  1.00  0.00     0.286 HD
HETATM    9  C6  UNL     1      37.425   0.641  24.496  1.00  0.00     0.379 C 
HETATM   10  C7  UNL     1      38.692   1.461  24.161  1.00  0.00     0.195 A 
HETATM   11  N3  UNL     1      39.371   1.739  25.398  1.00  0.00    -0.330 N 
ATOM     12  H3  UNL     1      38.840   2.248  26.104  1.00  0.00     0.165 HD
HETATM   13  C8  UNL     1      40.546   1.423  25.699  1.00  0.00     0.192 A 
HETATM   14  N4  UNL     1      41.015   1.820  27.013  1.00  0.00    -0.063 NA
HETATM   15  N5  UNL     1      41.393   0.700  24.821  1.00  0.00    -0.305 N 
ATOM     16  H5  UNL     1      42.351   0.446  25.066  1.00  0.00     0.171 HD
HETATM   17  C9  UNL     1      40.858   0.387  23.686  1.00  0.00     0.195 A 
HETATM   18  N6  UNL     1      41.674  -0.349  22.742  1.00  0.00    -0.063 NA
HETATM   19  N7  UNL     1      39.522   0.664  23.297  1.00  0.00    -0.321 N 
ENDROOT
BRANCH   9  20
HETATM   20  O2  UNL     1      37.210   0.810  25.858  1.00  0.00    -0.366 OA
ATOM     21  H2  UNL     1      37.980   0.634  26.386  1.00  0.00     0.212 HD
ENDBRANCH   9  20
BRANCH  19  22
HETATM   22  C10 UNL     1      39.095   0.062  22.051  1.00  0.00     0.129 C 
BRANCH  22  23
HETATM   23  C11 UNL     1      38.635   0.956  20.970  1.00  0.00     0.022 C 
BRANCH  23  24
HETATM   24  C12 UNL     1      39.858   1.535  20.212  1.00  0.00     0.029 C 
BRANCH  24  25
HETATM   25  C13 UNL     1      39.340   2.692  19.391  1.00  0.00     0.229 C 
BRANCH  25  26
HETATM   26  N8  UNL     1      37.904   2.823  19.507  1.00  0.00    -0.079 N 
ATOM     27  H83 UNL     1      37.419   2.229  18.835  1.00  0.00     0.274 HD
ATOM     28  H82 UNL     1      37.560   2.401  20.369  1.00  0.00     0.274 HD
ATOM     29  H81 UNL     1      37.609   3.796  19.425  1.00  0.00     0.274 HD
ENDBRANCH  25  26
ENDBRANCH  24  25
ENDBRANCH  23  24
ENDBRANCH  22  23
ENDBRANCH  19  22
BRANCH   5  30
HETATM   30  N1  UNL     1      36.136   3.139  24.916  1.00  0.00    -0.016 N 
ATOM     31  H13 UNL     1      35.203   2.784  25.120  1.00  0.00     0.280 HD
ATOM     32  H12 UNL     1      36.635   2.742  25.712  1.00  0.00     0.280 HD
ATOM     33  H11 UNL     1      36.159   4.159  24.934  1.00  0.00     0.280 HD
ENDBRANCH   5  30
BRANCH   5  34
HETATM   34  O1  UNL     1      35.967   3.255  22.649  1.00  0.00    -0.340 OA
ATOM     35  H1  UNL     1      35.200   3.744  22.923  1.00  0.00     0.214 HD
ENDBRANCH   5  34
TORSDOF 8
ENDMDL
MODEL 2
REMARK VINA RESULT: -4.977770974      2.585      5.295
REMARK  8 active torsions:
REMARK  status: ('A' for Active; 'I' for Inactive)
REMARK    1  A    between atoms: C5_5  and  N1_6 
REMARK    2  A    between atoms: C5_5  and  O1_10 
REMARK    3  A    between atoms: C6_15  and  O2_16 
REMARK    4  A    between atoms: N7_27  and  C10_28 
REMARK    5  A    between atoms: C10_28  and  C11_29 
REMARK    6  A    between atoms: C11_29  and  C12_30 
REMARK    7  A    between atoms: C12_30  and  C13_31 
REMARK    8  A    between atoms: C13_31  and  N8_32 
ROOT
HETATM    1  C1  UNL     1      40.285   1.584  25.230  1.00  0.00     0.043 C 
HETATM    2  C2  UNL     1      40.034   2.629  24.161  1.00  0.00    -0.074 C 
HETATM    3  C3  UNL     1      41.146   3.566  23.882  1.00  0.00     0.043 C 
HETATM    4  C4  UNL     1      38.875   2.666  23.540  1.00  0.00     0.066 C 
HETATM    5  C5  UNL     1      37.780   1.709  23.846  1.00  0.00     0.421 C 
HETATM    6  N2  UNL     1      36.583   2.409  23.417  1.00  0.00     0.019 N 
ATOM      7  H21 UNL     1      36.179   3.016  24.130  1.00  0.00     0.286 HD
ATOM      8  H22 UNL     1      35.768   1.806  23.304  1.00  0.00     0.286 HD
HETATM    9  C6  UNL     1      36.970   3.092  22.223  1.00  0.00     0.379 C 
HETATM   10  C7  UNL     1      38.426   3.559  22.454  1.00  0.00     0.195 A 
HETATM   11  N3  UNL     1      39.161   3.311  21.243  1.00  0.00    -0.330 N 
ATOM     12  H3  UNL     1      39.184   2.345  20.915  1.00  0.00     0.165 HD
HETATM   13  C8  UNL     1      39.776   4.154  20.550  1.00  0.00     0.192 A 
HETATM   14  N4  UNL     1      40.451   3.661  19.364  1.00  0.00    -0.063 NA
HETATM   15  N5  UNL     1      39.814   5.534  20.877  1.00  0.00    -0.305 N 
ATOM     16  H5  UNL     1      40.318   6.219  20.313  1.00  0.00     0.171 HD
HETATM   17  C9  UNL     1      39.160   5.856  21.945  1.00  0.00     0.195 A 
HETATM   18  N6  UNL     1      39.165   7.250  22.337  1.00  0.00    -0.063 NA
HETATM   19  N7  UNL     1      38.400   4.967  22.750  1.00  0.00    -0.321 N 
ENDROOT
BRANCH   9  20
HETATM   20  O2  UNL     1      37.005   2.270  21.104  1.00  0.00    -0.366 OA
ATOM     21  H2  UNL     1      37.679   2.512  20.479  1.00  0.00     0.212 HD
ENDBRANCH   9  20
BRANCH  19  22
HETATM   22  C10 UNL     1      37.612   5.587  23.793  1.00  0.00     0.129 C 
BRANCH  22  23
HETATM   23  C11 UNL     1      36.264   6.082  23.444  1.00  0.00     0.022 C 
BRANCH  23  24
HETATM   24  C12 UNL     1      35.238   5.603  24.504  1.00  0.00     0.029 C 
BRANCH  24  25
HETATM   25  C13 UNL     1      33.892   6.116  24.054  1.00  0.00     0.229 C 
BRANCH  25  26
HETATM   26  N8  UNL     1      33.214   6.829  25.114  1.00  0.00    -0.079 N 
ATOM     27  H83 UNL     1      33.659   6.666  26.017  1.00  0.00     0.274 HD
ATOM     28  H82 UNL     1      33.364   7.835  25.042  1.00  0.00     0.274 HD
ATOM     29  H81 UNL     1      32.220   6.601  25.142  1.00  0.00     0.274 HD
ENDBRANCH  25  26
ENDBRANCH  24  25
ENDBRANCH  23  24
ENDBRANCH  22  23
ENDBRANCH  19  22
BRANCH   5  30
HETATM   30  N1  UNL     1      37.861   0.512  23.014  1.00  0.00    -0.016 N 
ATOM     31  H13 UNL     1      37.377   0.643  22.126  1.00  0.00     0.280 HD
ATOM     32  H12 UNL     1      38.806   0.369  22.659  1.00  0.00     0.280 HD
ATOM     33  H11 UNL     1      37.519  -0.313  23.506  1.00  0.00     0.280 HD
ENDBRANCH   5  30
BRANCH   5  34
HETATM   34  O1  UNL     1      37.713   1.287  25.148  1.00  0.00    -0.340 OA
ATOM     35  H1  UNL     1      37.598   0.352  25.268  1.00  0.00     0.214 HD
ENDBRANCH   5  34
TORSDOF 8
ENDMDL
MODEL 3
REMARK VINA RESULT: -4.949534960      1.919      2.847
REMARK  8 active torsions:
REMARK  status: ('A' for Active; 'I' for Inactive)
REMARK    1  A    between atoms: C5_5  and  N1_6 
REMARK    2  A    between atoms: C5_5  and  O1_10 
REMARK    3  A    between atoms: C6_15  and  O2_16 
REMARK    4  A    between atoms: N7_27  and  C10_28 
REMARK    5  A    between atoms: C10_28  and  C11_29 
REMARK    6  A    between atoms: C11_29  and  C12_30 
REMARK    7  A    between atoms: C12_30  and  C13_31 
REMARK    8  A    between atoms: C13_31  and  N8_32 
ROOT
HETATM    1  C1  UNL     1      38.051   4.183  21.913  1.00  0.00     0.043 C 
HETATM    2  C2  UNL     1      38.695   3.041  22.675  1.00  0.00    -0.074 C 
HETATM    3  C3  UNL     1      40.155   2.874  22.502  1.00  0.00     0.043 C 
HETATM    4  C4  UNL     1      37.956   2.264  23.438  1.00  0.00     0.066 C 
HETATM    5  C5  UNL     1      36.490   2.461  23.588  1.00  0.00     0.421 C 
HETATM    6  N2  UNL     1      36.008   1.152  23.991  1.00  0.00     0.019 N 
ATOM      7  H21 UNL     1      35.791   0.532  23.211  1.00  0.00     0.286 HD
ATOM      8  H22 UNL     1      35.072   1.161  24.395  1.00  0.00     0.286 HD
HETATM    9  C6  UNL     1      37.016   0.649  24.870  1.00  0.00     0.379 C 
HETATM   10  C7  UNL     1      38.365   1.130  24.290  1.00  0.00     0.195 A 
HETATM   11  N3  UNL     1      39.178   1.578  25.389  1.00  0.00    -0.330 N 
ATOM     12  H3  UNL     1      38.793   2.326  25.965  1.00  0.00     0.165 HD
HETATM   13  C8  UNL     1      40.309   1.145  25.714  1.00  0.00     0.192 A 
HETATM   14  N4  UNL     1      40.939   1.760  26.866  1.00  0.00    -0.063 NA
HETATM   15  N5  UNL     1      40.957   0.095  25.014  1.00  0.00    -0.305 N 
ATOM     16  H5  UNL     1      41.879  -0.254  25.278  1.00  0.00     0.171 HD
HETATM   17  C9  UNL     1      40.289  -0.385  24.017  1.00  0.00     0.195 A 
HETATM   18  N6  UNL     1      40.900  -1.457  23.257  1.00  0.00    -0.063 NA
HETATM   19  N7  UNL     1      38.987   0.017  23.622  1.00  0.00    -0.321 N 
ENDROOT
BRANCH   9  20
HETATM   20  O2  UNL     1      36.941   1.176  26.153  1.00  0.00    -0.366 OA
ATOM     21  H2  UNL     1      37.773   1.503  26.476  1.00  0.00     0.212 HD
ENDBRANCH   9  20
BRANCH  19  22
HETATM   22  C10 UNL     1      38.370  -0.786  22.587  1.00  0.00     0.129 C 
BRANCH  22  23
HETATM   23  C11 UNL     1      38.025  -2.185  22.907  1.00  0.00     0.022 C 
BRANCH  23  24
HETATM   24  C12 UNL     1      36.515  -2.288  23.247  1.00  0.00     0.029 C 
BRANCH  24  25
HETATM   25  C13 UNL     1      36.150  -3.748  23.120  1.00  0.00     0.229 C 
BRANCH  25  26
HETATM   26  N8  UNL     1      37.066  -4.450  22.248  1.00  0.00    -0.079 N 
ATOM     27  H83 UNL     1      37.898  -3.892  22.054  1.00  0.00     0.274 HD
ATOM     28  H82 UNL     1      37.509  -5.234  22.726  1.00  0.00     0.274 HD
ATOM     29  H81 UNL     1      36.609  -4.749  21.386  1.00  0.00     0.274 HD
ENDBRANCH  25  26
ENDBRANCH  24  25
ENDBRANCH  23  24
ENDBRANCH  22  23
ENDBRANCH  19  22
BRANCH   5  30
HETATM   30  N1  UNL     1      36.177   3.358  24.696  1.00  0.00    -0.016 N 
ATOM     31  H13 UNL     1      36.742   3.146  25.518  1.00  0.00     0.280 HD
ATOM     32  H12 UNL     1      36.511   4.304  24.515  1.00  0.00     0.280 HD
ATOM     33  H11 UNL     1      35.181   3.351  24.917  1.00  0.00     0.280 HD
ENDBRANCH   5  30
BRANCH   5  34
HETATM   34  O1  UNL     1      35.845   2.950  22.482  1.00  0.00    -0.340 OA
ATOM     35  H1  UNL     1      36.345   3.565  21.958  1.00  0.00     0.214 HD
ENDBRANCH   5  34
TORSDOF 8
ENDMDL
MODEL 4
REMARK VINA RESULT: -4.842953218      8.389     10.235
REMARK  8 active torsions:
REMARK  status: ('A' for Active; 'I' for Inactive)
REMARK    1  A    between atoms: C5_5  and  N1_6 
REMARK    2  A    between atoms: C5_5  and  O1_10 
REMARK    3  A    between atoms: C6_15  and  O2_16 
REMARK    4  A    between atoms: N7_27  and  C10_28 
REMARK    5  A    between atoms: C10_28  and  C11_29 
REMARK    6  A    between atoms: C11_29  and  C12_30 
REMARK    7  A    between atoms: C12_30  and  C13_31 
REMARK    8  A    between atoms: C13_31  and  N8_32 
ROOT
HETATM    1  C1  UNL     1      42.675  -4.029  30.143  1.00  0.00     0.043 C 
HETATM    2  C2  UNL     1      42.531  -5.196  29.185  1.00  0.00    -0.074 C 
HETATM    3  C3  UNL     1      43.601  -5.354  28.175  1.00  0.00     0.043 C 
HETATM    4  C4  UNL     1      41.495  -6.000  29.284  1.00  0.00     0.066 C 
HETATM    5  C5  UNL     1      40.438  -5.811  30.312  1.00  0.00     0.421 C 
HETATM    6  N2  UNL     1      39.282  -6.480  29.742  1.00  0.00     0.019 N 
ATOM      7  H21 UNL     1      38.719  -5.888  29.132  1.00  0.00     0.286 HD
ATOM      8  H22 UNL     1      38.545  -6.682  30.418  1.00  0.00     0.286 HD
HETATM    9  C6  UNL     1      39.814  -7.639  29.098  1.00  0.00     0.379 C 
HETATM   10  C7  UNL     1      41.170  -7.206  28.496  1.00  0.00     0.195 A 
HETATM   11  N3  UNL     1      42.117  -8.258  28.749  1.00  0.00    -0.330 N 
ATOM     12  H3  UNL     1      42.267  -8.509  29.726  1.00  0.00     0.165 HD
HETATM   13  C8  UNL     1      42.776  -8.899  27.898  1.00  0.00     0.192 A 
HETATM   14  N4  UNL     1      43.677  -9.920  28.399  1.00  0.00    -0.063 NA
HETATM   15  N5  UNL     1      42.655  -8.669  26.504  1.00  0.00    -0.305 N 
ATOM     16  H5  UNL     1      43.195  -9.189  25.811  1.00  0.00     0.171 HD
HETATM   17  C9  UNL     1      41.808  -7.748  26.178  1.00  0.00     0.195 A 
HETATM   18  N6  UNL     1      41.641  -7.460  24.768  1.00  0.00    -0.063 NA
HETATM   19  N7  UNL     1      40.991  -7.018  27.080  1.00  0.00    -0.321 N 
ENDROOT
BRANCH   9  20
HETATM   20  O2  UNL     1      40.100  -8.676  29.977  1.00  0.00    -0.366 OA
ATOM     21  H2  UNL     1      39.717  -9.506  29.718  1.00  0.00     0.212 HD
ENDBRANCH   9  20
BRANCH  19  22
HETATM   22  C10 UNL     1      39.992  -6.165  26.471  1.00  0.00     0.129 C 
BRANCH  22  23
HETATM   23  C11 UNL     1      40.274  -4.718  26.387  1.00  0.00     0.022 C 
BRANCH  23  24
HETATM   24  C12 UNL     1      39.496  -4.100  25.196  1.00  0.00     0.029 C 
BRANCH  24  25
HETATM   25  C13 UNL     1      38.913  -5.258  24.423  1.00  0.00     0.229 C 
BRANCH  25  26
HETATM   26  N8  UNL     1      39.575  -5.433  23.149  1.00  0.00    -0.079 N 
ATOM     27  H83 UNL     1      40.576  -5.253  23.220  1.00  0.00     0.274 HD
ATOM     28  H82 UNL     1      39.609  -6.416  22.879  1.00  0.00     0.274 HD
ATOM     29  H81 UNL     1      39.145  -4.862  22.422  1.00  0.00     0.274 HD
ENDBRANCH  25  26
ENDBRANCH  24  25
ENDBRANCH  23  24
ENDBRANCH  22  23
ENDBRANCH  19  22
BRANCH   5  30
HETATM   30  N1  UNL     1      40.748  -6.532  31.543  1.00  0.00    -0.016 N 
ATOM     31  H13 UNL     1      40.700  -7.541  31.405  1.00  0.00     0.280 HD
ATOM     32  H12 UNL     1      41.735  -6.451  31.783  1.00  0.00     0.280 HD
ATOM     33  H11 UNL     1      40.151  -6.233  32.315  1.00  0.00     0.280 HD
ENDBRANCH   5  30
BRANCH   5  34
HETATM   34  O1  UNL     1      40.183  -4.511  30.662  1.00  0.00    -0.340 OA
ATOM     35  H1  UNL     1      40.549  -4.234  31.493  1.00  0.00     0.214 HD
ENDBRANCH   5  34
TORSDOF 8
ENDMDL
MODEL 5
REMARK VINA RESULT: -4.826890186      4.921      7.248
REMARK  8 active torsions:
REMARK  status: ('A' for Active; 'I' for Inactive)
REMARK    1  A    between atoms: C5_5  and  N1_6 
REMARK    2  A    between atoms: C5_5  and  O1_10 
REMARK    3  A    between atoms: C6_15  and  O2_16 
REMARK    4  A    between atoms: N7_27  and  C10_28 
REMARK    5  A    between atoms: C10_28  and  C11_29 
REMARK    6  A    between atoms: C11_29  and  C12_30 
REMARK    7  A    between atoms: C12_30  and  C13_31 
REMARK    8  A    between atoms: C13_31  and  N8_32 
ROOT
HETATM    1  C1  UNL     1      41.596  -4.066  21.027  1.00  0.00     0.043 C 
HETATM    2  C2  UNL     1      40.193  -4.147  21.596  1.00  0.00    -0.074 C 
HETATM    3  C3  UNL     1      39.082  -4.094  20.620  1.00  0.00     0.043 C 
HETATM    4  C4  UNL     1      40.019  -4.259  22.896  1.00  0.00     0.066 C 
HETATM    5  C5  UNL     1      41.159  -4.308  23.848  1.00  0.00     0.421 C 
HETATM    6  N2  UNL     1      40.579  -3.861  25.101  1.00  0.00     0.019 N 
ATOM      7  H21 UNL     1      40.588  -2.849  25.225  1.00  0.00     0.286 HD
ATOM      8  H22 UNL     1      41.142  -4.084  25.922  1.00  0.00     0.286 HD
HETATM    9  C6  UNL     1      39.270  -4.436  25.121  1.00  0.00     0.379 C 
HETATM   10  C7  UNL     1      38.763  -4.389  23.661  1.00  0.00     0.195 A 
HETATM   11  N3  UNL     1      38.117  -5.644  23.383  1.00  0.00    -0.330 N 
ATOM     12  H3  UNL     1      38.686  -6.483  23.497  1.00  0.00     0.165 HD
HETATM   13  C8  UNL     1      36.932  -5.815  23.016  1.00  0.00     0.192 A 
HETATM   14  N4  UNL     1      36.506  -7.183  22.792  1.00  0.00    -0.063 NA
HETATM   15  N5  UNL     1      36.024  -4.740  22.834  1.00  0.00    -0.305 N 
ATOM     16  H5  UNL     1      35.059  -4.880  22.532  1.00  0.00     0.171 HD
HETATM   17  C9  UNL     1      36.513  -3.569  23.082  1.00  0.00     0.195 A 
HETATM   18  N6  UNL     1      35.637  -2.428  22.910  1.00  0.00    -0.063 NA
HETATM   19  N7  UNL     1      37.826  -3.303  23.549  1.00  0.00    -0.321 N 
ENDROOT
BRANCH   9  20
HETATM   20  O2  UNL     1      39.262  -5.776  25.486  1.00  0.00    -0.366 OA
ATOM     21  H2  UNL     1      38.397  -6.168  25.464  1.00  0.00     0.212 HD
ENDBRANCH   9  20
BRANCH  19  22
HETATM   22  C10 UNL     1      38.091  -1.930  23.924  1.00  0.00     0.129 C 
BRANCH  22  23
HETATM   23  C11 UNL     1      38.689  -1.037  22.911  1.00  0.00     0.022 C 
BRANCH  23  24
HETATM   24  C12 UNL     1      38.004   0.354  22.968  1.00  0.00     0.029 C 
BRANCH  24  25
HETATM   25  C13 UNL     1      37.402   0.474  24.348  1.00  0.00     0.229 C 
BRANCH  25  26
HETATM   26  N8  UNL     1      35.966   0.631  24.288  1.00  0.00    -0.079 N 
ATOM     27  H83 UNL     1      35.645   0.772  23.330  1.00  0.00     0.274 HD
ATOM     28  H82 UNL     1      35.486  -0.246  24.488  1.00  0.00     0.274 HD
ATOM     29  H81 UNL     1      35.645   1.380  24.901  1.00  0.00     0.274 HD
ENDBRANCH  25  26
ENDBRANCH  24  25
ENDBRANCH  23  24
ENDBRANCH  22  23
ENDBRANCH  19  22
BRANCH   5  30
HETATM   30  N1  UNL     1      41.605  -5.678  24.083  1.00  0.00    -0.016 N 
ATOM     31  H13 UNL     1      42.086  -5.765  24.978  1.00  0.00     0.280 HD
ATOM     32  H12 UNL     1      40.818  -6.300  24.264  1.00  0.00     0.280 HD
ATOM     33  H11 UNL     1      42.183  -6.023  23.315  1.00  0.00     0.280 HD
ENDBRANCH   5  30
BRANCH   5  34
HETATM   34  O1  UNL     1      42.263  -3.584  23.483  1.00  0.00    -0.340 OA
ATOM     35  H1  UNL     1      43.095  -3.929  23.785  1.00  0.00     0.214 HD
ENDBRANCH   5  34
TORSDOF 8
ENDMDL
