MODEL 1
REMARK VINA RESULT: -7.296165119      0.000      0.000
REMARK  8 active torsions:
REMARK  status: ('A' for Active; 'I' for Inactive)
REMARK    1  A    between atoms: C2_2  and  O1_3 
REMARK    2  A    between atoms: C2_2  and  C3_5 
REMARK    3  A    between atoms: C3_5  and  N1_6 
REMARK    4  A    between atoms: N1_6  and  C4_8 
REMARK    5  A    between atoms: N4_14  and  C6_16 
REMARK    6  A    between atoms: C7_17  and  N5_18 
REMARK    7  A    between atoms: N5_18  and  N6_20 
REMARK    8  A    between atoms: C9_29  and  O4_31 
ROOT
HETATM    1  C6  UNL     1      38.734   0.565  24.030  1.00  0.00     0.126 A 
HETATM    2  C7  UNL     1      38.233  -0.789  23.853  1.00  0.00     0.155 A 
HETATM    3  N7  UNL     1      38.965  -1.821  23.962  1.00  0.00    -0.314 N 
ATOM      4  H7  UNL     1      38.531  -2.733  23.819  1.00  0.00     0.170 HD
HETATM    5  C8  UNL     1      40.342  -1.783  24.270  1.00  0.00     0.192 A 
HETATM    6  N8  UNL     1      41.136  -2.976  24.379  1.00  0.00    -0.063 NA
HETATM    7  N9  UNL     1      40.833  -0.618  24.443  1.00  0.00    -0.328 N 
ATOM      8  H9  UNL     1      41.827  -0.585  24.665  1.00  0.00     0.165 HD
HETATM    9  C9  UNL     1      40.176   0.641  24.369  1.00  0.00     0.178 A 
HETATM   10  C10 UNL     1      40.387   1.455  25.654  1.00  0.00     0.078 C 
ENDROOT
BRANCH   1  11
HETATM   11  N4  UNL     1      37.897   1.441  24.765  1.00  0.00    -0.185 N 
HETATM   12  C5  UNL     1      37.007   2.232  24.307  1.00  0.00     0.712 A 
HETATM   13  N3  UNL     1      36.600   2.474  23.060  1.00  0.00    -0.117 N 
HETATM   14  N10 UNL     1      36.230   3.062  25.085  1.00  0.00    -0.020 N 
HETATM   15  N2  UNL     1      35.624   3.399  23.025  1.00  0.00    -0.117 N 
ATOM     16  H3  UNL     1      36.983   2.015  22.235  1.00  0.00     0.206 HD
HETATM   17  C4  UNL     1      35.399   3.760  24.291  1.00  0.00     0.707 A 
ATOM     18  H2  UNL     1      35.149   3.754  22.196  1.00  0.00     0.206 HD
ATOM     19  H10 UNL     1      36.277   3.135  26.101  1.00  0.00     0.203 HD
ATOM     20  H4  UNL     1      38.020   1.439  25.777  1.00  0.00     0.184 HD
BRANCH  17  21
HETATM   21  N1  UNL     1      34.518   4.637  24.671  1.00  0.00    -0.222 N 
ATOM     22  H1  UNL     1      33.541   4.348  24.716  1.00  0.00     0.177 HD
BRANCH  21  23
HETATM   23  C3  UNL     1      34.841   5.988  25.032  1.00  0.00     0.169 C 
BRANCH  23  24
HETATM   24  C2  UNL     1      34.086   6.933  24.108  1.00  0.00     0.132 C 
HETATM   25  C1  UNL     1      34.880   7.200  22.851  1.00  0.00     0.041 C 
BRANCH  24  26
HETATM   26  O1  UNL     1      32.862   6.375  23.789  1.00  0.00    -0.394 OA
ATOM     27  H1  UNL     1      32.163   6.846  24.227  1.00  0.00     0.210 HD
ENDBRANCH  24  26
ENDBRANCH  23  24
ENDBRANCH  21  23
ENDBRANCH  17  21
ENDBRANCH   1  11
BRANCH   2  28
HETATM   28  N5  UNL     1      36.848  -1.052  23.538  1.00  0.00    -0.223 N 
ATOM     29  H5  UNL     1      36.280  -0.288  23.172  1.00  0.00     0.195 HD
BRANCH  28  30
HETATM   30  N6  UNL     1      36.253  -2.296  23.710  1.00  0.00    -0.037 N 
HETATM   31  O2  UNL     1      35.492  -2.780  22.826  1.00  0.00    -0.516 OA
HETATM   32  O3  UNL     1      36.441  -3.075  24.827  1.00  0.00    -0.516 OA
ENDBRANCH  28  30
ENDBRANCH   2  28
BRANCH   9  33
HETATM   33  O4  UNL     1      40.893   1.361  23.361  1.00  0.00    -0.365 OA
ATOM     34  H4  UNL     1      41.830   1.265  23.483  1.00  0.00     0.213 HD
ENDBRANCH   9  33
TORSDOF 8
ENDMDL
MODEL 2
REMARK VINA RESULT: -6.913657852      1.084      1.227
REMARK  8 active torsions:
REMARK  status: ('A' for Active; 'I' for Inactive)
REMARK    1  A    between atoms: C2_2  and  O1_3 
REMARK    2  A    between atoms: C2_2  and  C3_5 
REMARK    3  A    between atoms: C3_5  and  N1_6 
REMARK    4  A    between atoms: N1_6  and  C4_8 
REMARK    5  A    between atoms: N4_14  and  C6_16 
REMARK    6  A    between atoms: C7_17  and  N5_18 
REMARK    7  A    between atoms: N5_18  and  N6_20 
REMARK    8  A    between atoms: C9_29  and  O4_31 
ROOT
HETATM    1  C6  UNL     1      39.445  -0.057  23.905  1.00  0.00     0.126 A 
HETATM    2  C7  UNL     1      38.925  -1.399  23.690  1.00  0.00     0.155 A 
HETATM    3  N7  UNL     1      39.534  -2.449  24.061  1.00  0.00    -0.314 N 
ATOM      4  H7  UNL     1      39.097  -3.350  23.867  1.00  0.00     0.170 HD
HETATM    5  C8  UNL     1      40.779  -2.445  24.727  1.00  0.00     0.192 A 
HETATM    6  N8  UNL     1      41.438  -3.658  25.126  1.00  0.00    -0.063 NA
HETATM    7  N9  UNL     1      41.278  -1.291  24.948  1.00  0.00    -0.328 N 
ATOM      8  H9  UNL     1      42.178  -1.284  25.428  1.00  0.00     0.165 HD
HETATM    9  C9  UNL     1      40.746  -0.016  24.615  1.00  0.00     0.178 A 
HETATM   10  C10 UNL     1      40.658   0.891  25.852  1.00  0.00     0.078 C 
ENDROOT
BRANCH   1  11
HETATM   11  N4  UNL     1      38.499   0.911  24.325  1.00  0.00    -0.185 N 
HETATM   12  C5  UNL     1      37.806   1.690  23.591  1.00  0.00     0.712 A 
HETATM   13  N3  UNL     1      37.750   1.835  22.266  1.00  0.00    -0.117 N 
HETATM   14  N10 UNL     1      36.904   2.614  24.072  1.00  0.00    -0.020 N 
HETATM   15  N2  UNL     1      36.871   2.788  21.906  1.00  0.00    -0.117 N 
ATOM     16  H3  UNL     1      38.305   1.291  21.608  1.00  0.00     0.206 HD
HETATM   17  C4  UNL     1      36.349   3.269  23.037  1.00  0.00     0.707 A 
ATOM     18  H2  UNL     1      36.648   3.085  20.956  1.00  0.00     0.206 HD
ATOM     19  H10 UNL     1      36.692   2.775  25.057  1.00  0.00     0.203 HD
ATOM     20  H4  UNL     1      38.357   0.994  25.331  1.00  0.00     0.184 HD
BRANCH  17  21
HETATM   21  N1  UNL     1      35.453   4.208  23.105  1.00  0.00    -0.222 N 
ATOM     22  H1  UNL     1      35.226   4.718  22.252  1.00  0.00     0.177 HD
BRANCH  21  23
HETATM   23  C3  UNL     1      34.763   4.567  24.312  1.00  0.00     0.169 C 
BRANCH  23  24
HETATM   24  C2  UNL     1      34.904   6.068  24.525  1.00  0.00     0.132 C 
HETATM   25  C1  UNL     1      34.319   6.830  23.360  1.00  0.00     0.041 C 
BRANCH  24  26
HETATM   26  O1  UNL     1      34.263   6.423  25.697  1.00  0.00    -0.394 OA
ATOM     27  H1  UNL     1      34.095   7.358  25.709  1.00  0.00     0.210 HD
ENDBRANCH  24  26
ENDBRANCH  23  24
ENDBRANCH  21  23
ENDBRANCH  17  21
ENDBRANCH   1  11
BRANCH   2  28
HETATM   28  N5  UNL     1      37.660  -1.626  23.030  1.00  0.00    -0.223 N 
ATOM     29  H5  UNL     1      37.541  -1.287  22.075  1.00  0.00     0.195 HD
BRANCH  28  30
HETATM   30  N6  UNL     1      36.596  -2.287  23.634  1.00  0.00    -0.037 N 
HETATM   31  O2  UNL     1      35.440  -2.257  23.126  1.00  0.00    -0.516 OA
HETATM   32  O3  UNL     1      36.717  -3.002  24.801  1.00  0.00    -0.516 OA
ENDBRANCH  28  30
ENDBRANCH   2  28
BRANCH   9  33
HETATM   33  O4  UNL     1      41.750   0.588  23.792  1.00  0.00    -0.365 OA
ATOM     34  H4  UNL     1      42.455  -0.025  23.620  1.00  0.00     0.213 HD
ENDBRANCH   9  33
TORSDOF 8
ENDMDL
MODEL 3
REMARK VINA RESULT: -6.722078534      3.132      8.014
REMARK  8 active torsions:
REMARK  status: ('A' for Active; 'I' for Inactive)
REMARK    1  A    between atoms: C2_2  and  O1_3 
REMARK    2  A    between atoms: C2_2  and  C3_5 
REMARK    3  A    between atoms: C3_5  and  N1_6 
REMARK    4  A    between atoms: N1_6  and  C4_8 
REMARK    5  A    between atoms: N4_14  and  C6_16 
REMARK    6  A    between atoms: C7_17  and  N5_18 
REMARK    7  A    between atoms: N5_18  and  N6_20 
REMARK    8  A    between atoms: C9_29  and  O4_31 
ROOT
HETATM    1  C6  UNL     1      36.778   6.753  23.496  1.00  0.00     0.126 A 
HETATM    2  C7  UNL     1      35.668   7.564  23.020  1.00  0.00     0.155 A 
HETATM    3  N7  UNL     1      35.815   8.732  22.543  1.00  0.00    -0.314 N 
ATOM      4  H7  UNL     1      34.981   9.232  22.235  1.00  0.00     0.170 HD
HETATM    5  C8  UNL     1      37.062   9.380  22.413  1.00  0.00     0.192 A 
HETATM    6  N8  UNL     1      37.184  10.706  21.873  1.00  0.00    -0.063 NA
HETATM    7  N9  UNL     1      38.072   8.709  22.810  1.00  0.00    -0.328 N 
ATOM      8  H9  UNL     1      38.975   9.173  22.719  1.00  0.00     0.165 HD
HETATM    9  C9  UNL     1      38.105   7.399  23.361  1.00  0.00     0.178 A 
HETATM   10  C10 UNL     1      39.071   6.492  22.583  1.00  0.00     0.078 C 
ENDROOT
BRANCH   1  11
HETATM   11  N4  UNL     1      36.737   5.382  23.139  1.00  0.00    -0.185 N 
HETATM   12  C5  UNL     1      36.229   4.420  23.806  1.00  0.00     0.712 A 
HETATM   13  N3  UNL     1      35.608   4.396  24.986  1.00  0.00    -0.117 N 
HETATM   14  N10 UNL     1      36.230   3.104  23.396  1.00  0.00    -0.020 N 
HETATM   15  N2  UNL     1      35.228   3.151  25.325  1.00  0.00    -0.117 N 
ATOM     16  H3  UNL     1      35.442   5.221  25.561  1.00  0.00     0.206 HD
HETATM   17  C4  UNL     1      35.619   2.352  24.329  1.00  0.00     0.707 A 
ATOM     18  H2  UNL     1      34.737   2.872  26.174  1.00  0.00     0.206 HD
ATOM     19  H10 UNL     1      36.629   2.757  22.525  1.00  0.00     0.203 HD
ATOM     20  H4  UNL     1      37.162   5.136  22.246  1.00  0.00     0.184 HD
BRANCH  17  21
HETATM   21  N1  UNL     1      35.429   1.067  24.285  1.00  0.00    -0.222 N 
ATOM     22  H1  UNL     1      34.515   0.726  23.985  1.00  0.00     0.177 HD
BRANCH  21  23
HETATM   23  C3  UNL     1      36.430   0.099  24.634  1.00  0.00     0.169 C 
BRANCH  23  24
HETATM   24  C2  UNL     1      36.760  -0.728  23.400  1.00  0.00     0.132 C 
HETATM   25  C1  UNL     1      38.041  -1.501  23.601  1.00  0.00     0.041 C 
BRANCH  24  26
HETATM   26  O1  UNL     1      35.715  -1.596  23.142  1.00  0.00    -0.394 OA
ATOM     27  H1  UNL     1      34.885  -1.173  23.324  1.00  0.00     0.210 HD
ENDBRANCH  24  26
ENDBRANCH  23  24
ENDBRANCH  21  23
ENDBRANCH  17  21
ENDBRANCH   1  11
BRANCH   2  28
HETATM   28  N5  UNL     1      34.305   7.085  23.058  1.00  0.00    -0.223 N 
ATOM     29  H5  UNL     1      33.917   6.655  22.219  1.00  0.00     0.195 HD
BRANCH  28  30
HETATM   30  N6  UNL     1      33.498   7.183  24.186  1.00  0.00    -0.037 N 
HETATM   31  O2  UNL     1      32.876   6.177  24.628  1.00  0.00    -0.516 OA
HETATM   32  O3  UNL     1      33.319   8.351  24.887  1.00  0.00    -0.516 OA
ENDBRANCH  28  30
ENDBRANCH   2  28
BRANCH   9  33
HETATM   33  O4  UNL     1      38.717   7.564  24.644  1.00  0.00    -0.365 OA
ATOM     34  H4  UNL     1      39.514   8.077  24.571  1.00  0.00     0.213 HD
ENDBRANCH   9  33
TORSDOF 8
ENDMDL
MODEL 4
REMARK VINA RESULT: -6.515336591      2.769      4.093
REMARK  8 active torsions:
REMARK  status: ('A' for Active; 'I' for Inactive)
REMARK    1  A    between atoms: C2_2  and  O1_3 
REMARK    2  A    between atoms: C2_2  and  C3_5 
REMARK    3  A    between atoms: C3_5  and  N1_6 
REMARK    4  A    between atoms: N1_6  and  C4_8 
REMARK    5  A    between atoms: N4_14  and  C6_16 
REMARK    6  A    between atoms: C7_17  and  N5_18 
REMARK    7  A    between atoms: N5_18  and  N6_20 
REMARK    8  A    between atoms: C9_29  and  O4_31 
ROOT
HETATM    1  C6  UNL     1      37.350   2.878  23.074  1.00  0.00     0.126 A 
HETATM    2  C7  UNL     1      37.222   2.135  24.318  1.00  0.00     0.155 A 
HETATM    3  N7  UNL     1      37.680   0.962  24.478  1.00  0.00    -0.314 N 
ATOM      4  H7  UNL     1      37.543   0.514  25.384  1.00  0.00     0.170 HD
HETATM    5  C8  UNL     1      38.367   0.240  23.478  1.00  0.00     0.192 A 
HETATM    6  N8  UNL     1      38.865  -1.090  23.699  1.00  0.00    -0.063 NA
HETATM    7  N9  UNL     1      38.514   0.849  22.366  1.00  0.00    -0.328 N 
ATOM      8  H9  UNL     1      39.008   0.331  21.640  1.00  0.00     0.165 HD
HETATM    9  C9  UNL     1      38.079   2.153  22.005  1.00  0.00     0.178 A 
HETATM   10  C10 UNL     1      39.246   3.001  21.476  1.00  0.00     0.078 C 
ENDROOT
BRANCH   1  11
HETATM   11  N4  UNL     1      37.681   4.249  23.205  1.00  0.00    -0.185 N 
HETATM   12  C5  UNL     1      36.907   5.253  23.063  1.00  0.00     0.712 A 
HETATM   13  N3  UNL     1      35.610   5.331  22.763  1.00  0.00    -0.117 N 
HETATM   14  N10 UNL     1      37.303   6.566  23.203  1.00  0.00    -0.020 N 
HETATM   15  N2  UNL     1      35.186   6.606  22.711  1.00  0.00    -0.117 N 
ATOM     16  H3  UNL     1      35.013   4.522  22.595  1.00  0.00     0.206 HD
HETATM   17  C4  UNL     1      36.246   7.369  22.986  1.00  0.00     0.707 A 
ATOM     18  H2  UNL     1      34.241   6.927  22.503  1.00  0.00     0.206 HD
ATOM     19  H10 UNL     1      38.246   6.877  23.434  1.00  0.00     0.203 HD
ATOM     20  H4  UNL     1      38.651   4.458  23.440  1.00  0.00     0.184 HD
BRANCH  17  21
HETATM   21  N1  UNL     1      36.238   8.668  23.035  1.00  0.00    -0.222 N 
ATOM     22  H1  UNL     1      36.886   9.129  23.674  1.00  0.00     0.177 HD
BRANCH  21  23
HETATM   23  C3  UNL     1      35.371   9.492  22.242  1.00  0.00     0.169 C 
BRANCH  23  24
HETATM   24  C2  UNL     1      34.174   9.897  23.090  1.00  0.00     0.132 C 
HETATM   25  C1  UNL     1      33.712  11.290  22.733  1.00  0.00     0.041 C 
BRANCH  24  26
HETATM   26  O1  UNL     1      33.149   8.990  22.893  1.00  0.00    -0.394 OA
ATOM     27  H1  UNL     1      33.325   8.458  22.126  1.00  0.00     0.210 HD
ENDBRANCH  24  26
ENDBRANCH  23  24
ENDBRANCH  21  23
ENDBRANCH  17  21
ENDBRANCH   1  11
BRANCH   2  28
HETATM   28  N5  UNL     1      36.557   2.695  25.472  1.00  0.00    -0.223 N 
ATOM     29  H5  UNL     1      37.111   2.892  26.305  1.00  0.00     0.195 HD
BRANCH  28  30
HETATM   30  N6  UNL     1      35.196   2.978  25.500  1.00  0.00    -0.037 N 
HETATM   31  O2  UNL     1      34.355   2.089  25.813  1.00  0.00    -0.516 OA
HETATM   32  O3  UNL     1      34.675   4.213  25.199  1.00  0.00    -0.516 OA
ENDBRANCH  28  30
ENDBRANCH   2  28
BRANCH   9  33
HETATM   33  O4  UNL     1      37.234   1.949  20.868  1.00  0.00    -0.365 OA
ATOM     34  H4  UNL     1      37.742   1.972  20.065  1.00  0.00     0.213 HD
ENDBRANCH   9  33
TORSDOF 8
ENDMDL
MODEL 5
REMARK VINA RESULT: -6.470655970      1.998      2.666
REMARK  8 active torsions:
REMARK  status: ('A' for Active; 'I' for Inactive)
REMARK    1  A    between atoms: C2_2  and  O1_3 
REMARK    2  A    between atoms: C2_2  and  C3_5 
REMARK    3  A    between atoms: C3_5  and  N1_6 
REMARK    4  A    between atoms: N1_6  and  C4_8 
REMARK    5  A    between atoms: N4_14  and  C6_16 
REMARK    6  A    between atoms: C7_17  and  N5_18 
REMARK    7  A    between atoms: N5_18  and  N6_20 
REMARK    8  A    between atoms: C9_29  and  O4_31 
ROOT
HETATM    1  C6  UNL     1      38.969  -1.752  22.950  1.00  0.00     0.126 A 
HETATM    2  C7  UNL     1      38.525  -3.079  23.349  1.00  0.00     0.155 A 
HETATM    3  N7  UNL     1      39.166  -4.139  23.071  1.00  0.00    -0.314 N 
ATOM      4  H7  UNL     1      38.780  -5.029  23.388  1.00  0.00     0.170 HD
HETATM    5  C8  UNL     1      40.379  -4.162  22.351  1.00  0.00     0.192 A 
HETATM    6  N8  UNL     1      41.071  -5.385  22.052  1.00  0.00    -0.063 NA
HETATM    7  N9  UNL     1      40.819  -3.021  21.982  1.00  0.00    -0.328 N 
ATOM      8  H9  UNL     1      41.695  -3.033  21.460  1.00  0.00     0.165 HD
HETATM    9  C9  UNL     1      40.249  -1.738  22.203  1.00  0.00     0.178 A 
HETATM   10  C10 UNL     1      41.256  -0.791  22.873  1.00  0.00     0.078 C 
ENDROOT
BRANCH   1  11
HETATM   11  N4  UNL     1      38.833  -0.736  23.929  1.00  0.00    -0.185 N 
HETATM   12  C5  UNL     1      37.846   0.055  24.096  1.00  0.00     0.712 A 
HETATM   13  N3  UNL     1      36.691   0.174  23.441  1.00  0.00    -0.117 N 
HETATM   14  N10 UNL     1      37.784   1.026  25.071  1.00  0.00    -0.020 N 
HETATM   15  N2  UNL     1      35.925   1.155  23.953  1.00  0.00    -0.117 N 
ATOM     16  H3  UNL     1      36.420  -0.408  22.648  1.00  0.00     0.206 HD
HETATM   17  C4  UNL     1      36.614   1.681  24.968  1.00  0.00     0.707 A 
ATOM     18  H2  UNL     1      35.001   1.440  23.629  1.00  0.00     0.206 HD
ATOM     19  H10 UNL     1      38.510   1.218  25.761  1.00  0.00     0.203 HD
ATOM     20  H4  UNL     1      39.613  -0.625  24.575  1.00  0.00     0.184 HD
BRANCH  17  21
HETATM   21  N1  UNL     1      36.204   2.658  25.721  1.00  0.00    -0.222 N 
ATOM     22  H1  UNL     1      36.771   2.913  26.529  1.00  0.00     0.177 HD
BRANCH  21  23
HETATM   23  C3  UNL     1      34.998   3.399  25.481  1.00  0.00     0.169 C 
BRANCH  23  24
HETATM   24  C2  UNL     1      35.360   4.717  24.812  1.00  0.00     0.132 C 
HETATM   25  C1  UNL     1      35.086   4.656  23.328  1.00  0.00     0.041 C 
BRANCH  24  26
HETATM   26  O1  UNL     1      34.628   5.737  25.391  1.00  0.00    -0.394 OA
ATOM     27  H1  UNL     1      35.181   6.250  25.968  1.00  0.00     0.210 HD
ENDBRANCH  24  26
ENDBRANCH  23  24
ENDBRANCH  21  23
ENDBRANCH  17  21
ENDBRANCH   1  11
BRANCH   2  28
HETATM   28  N5  UNL     1      37.307  -3.279  24.101  1.00  0.00    -0.223 N 
ATOM     29  H5  UNL     1      37.371  -3.370  25.114  1.00  0.00     0.195 HD
BRANCH  28  30
HETATM   30  N6  UNL     1      36.052  -3.352  23.507  1.00  0.00    -0.037 N 
HETATM   31  O2  UNL     1      35.574  -2.367  22.877  1.00  0.00    -0.516 OA
HETATM   32  O3  UNL     1      35.257  -4.471  23.558  1.00  0.00    -0.516 OA
ENDBRANCH  28  30
ENDBRANCH   2  28
BRANCH   9  33
HETATM   33  O4  UNL     1      40.061  -1.198  20.891  1.00  0.00    -0.365 OA
ATOM     34  H4  UNL     1      40.813  -0.678  20.632  1.00  0.00     0.213 HD
ENDBRANCH   9  33
TORSDOF 8
ENDMDL
