MODEL 1
REMARK VINA RESULT: -4.667728377      0.000      0.000
REMARK  1 active torsions:
REMARK  status: ('A' for Active; 'I' for Inactive)
REMARK    1  A    between atoms: N2_10  and  O2_11 
ROOT
HETATM    1  C1  UNL     1      -4.982 -35.735  -1.900  1.00  0.00     0.037 C 
HETATM    2  C2  UNL     1      -4.476 -36.888  -1.068  1.00  0.00     0.136 C 
HETATM    3  C3  UNL     1      -3.783 -36.443   0.192  1.00  0.00     0.195 C 
HETATM    4  O1  UNL     1      -4.622 -36.312   1.273  1.00  0.00    -0.382 OA
HETATM    5  C4  UNL     1      -5.214 -37.497   1.671  1.00  0.00     0.245 C 
HETATM    6  C5  UNL     1      -6.094 -37.936   0.560  1.00  0.00     0.122 C 
HETATM    7  N1  UNL     1      -7.251 -38.479   0.696  1.00  0.00    -0.386 N 
ATOM      8  H11 UNL     1      -7.856 -38.780  -0.068  1.00  0.00     0.157 HD
ATOM      9  H12 UNL     1      -7.600 -38.624   1.644  1.00  0.00     0.157 HD
HETATM   10  N2  UNL     1      -5.610 -37.734  -0.756  1.00  0.00    -0.240 N 
ENDROOT
BRANCH  10  11
HETATM   11  O2  UNL     1      -6.232 -38.359  -1.780  1.00  0.00    -0.286 OA
ATOM     12  H2  UNL     1      -7.179 -38.298  -1.829  1.00  0.00     0.244 HD
ENDBRANCH  10  11
TORSDOF 1
ENDMDL
MODEL 2
REMARK VINA RESULT: -4.381888584      1.904      3.619
REMARK  1 active torsions:
REMARK  status: ('A' for Active; 'I' for Inactive)
REMARK    1  A    between atoms: N2_10  and  O2_11 
ROOT
HETATM    1  C1  UNL     1      -5.003 -37.050   1.231  1.00  0.00     0.037 C 
HETATM    2  C2  UNL     1      -4.751 -37.442  -0.205  1.00  0.00     0.136 C 
HETATM    3  C3  UNL     1      -5.925 -38.137  -0.839  1.00  0.00     0.195 C 
HETATM    4  O1  UNL     1      -6.814 -37.287  -1.453  1.00  0.00    -0.382 OA
HETATM    5  C4  UNL     1      -6.277 -36.591  -2.522  1.00  0.00     0.245 C 
HETATM    6  C5  UNL     1      -5.220 -35.706  -1.976  1.00  0.00     0.122 C 
HETATM    7  N1  UNL     1      -4.977 -34.506  -2.367  1.00  0.00    -0.386 N 
ATOM      8  H11 UNL     1      -4.250 -33.898  -1.992  1.00  0.00     0.157 HD
ATOM      9  H12 UNL     1      -5.556 -34.124  -3.116  1.00  0.00     0.157 HD
HETATM   10  N2  UNL     1      -4.417 -36.236  -0.936  1.00  0.00    -0.240 N 
ENDROOT
BRANCH  10  11
HETATM   11  O2  UNL     1      -3.278 -35.590  -0.602  1.00  0.00    -0.286 OA
ATOM     12  H2  UNL     1      -2.578 -36.099  -0.207  1.00  0.00     0.244 HD
ENDBRANCH  10  11
TORSDOF 1
ENDMDL
MODEL 3
REMARK VINA RESULT: -4.360517399      5.831      6.675
REMARK  1 active torsions:
REMARK  status: ('A' for Active; 'I' for Inactive)
REMARK    1  A    between atoms: N2_10  and  O2_11 
ROOT
HETATM    1  C1  UNL     1     -12.780 -40.875  -0.883  1.00  0.00     0.037 C 
HETATM    2  C2  UNL     1     -11.406 -40.290  -1.102  1.00  0.00     0.136 C 
HETATM    3  C3  UNL     1     -10.960 -39.401   0.027  1.00  0.00     0.195 C 
HETATM    4  O1  UNL     1     -10.284 -40.062   1.025  1.00  0.00    -0.382 OA
HETATM    5  C4  UNL     1      -9.091 -40.630   0.614  1.00  0.00     0.245 C 
HETATM    6  C5  UNL     1      -9.430 -41.681  -0.375  1.00  0.00     0.122 C 
HETATM    7  N1  UNL     1      -8.849 -42.823  -0.478  1.00  0.00    -0.386 N 
ATOM      8  H11 UNL     1      -9.082 -43.546  -1.158  1.00  0.00     0.157 HD
ATOM      9  H12 UNL     1      -8.090 -43.030   0.172  1.00  0.00     0.157 HD
HETATM   10  N2  UNL     1     -10.483 -41.394  -1.278  1.00  0.00    -0.240 N 
ENDROOT
BRANCH  10  11
HETATM   11  O2  UNL     1     -10.644 -42.184  -2.362  1.00  0.00    -0.286 OA
ATOM     12  H2  UNL     1     -10.730 -43.120  -2.221  1.00  0.00     0.244 HD
ENDBRANCH  10  11
TORSDOF 1
ENDMDL
MODEL 4
REMARK VINA RESULT: -4.311764539      4.819      6.275
REMARK  1 active torsions:
REMARK  status: ('A' for Active; 'I' for Inactive)
REMARK    1  A    between atoms: N2_10  and  O2_11 
ROOT
HETATM    1  C1  UNL     1      -8.832 -38.529  -0.191  1.00  0.00     0.037 C 
HETATM    2  C2  UNL     1     -10.013 -39.439   0.038  1.00  0.00     0.136 C 
HETATM    3  C3  UNL     1     -10.998 -39.422  -1.099  1.00  0.00     0.195 C 
HETATM    4  O1  UNL     1     -10.742 -40.355  -2.075  1.00  0.00    -0.382 OA
HETATM    5  C4  UNL     1     -10.830 -41.665  -1.636  1.00  0.00     0.245 C 
HETATM    6  C5  UNL     1      -9.754 -41.859  -0.634  1.00  0.00     0.122 C 
HETATM    7  N1  UNL     1      -9.041 -42.919  -0.502  1.00  0.00    -0.386 N 
ATOM      8  H11 UNL     1      -8.301 -43.052   0.187  1.00  0.00     0.157 HD
ATOM      9  H12 UNL     1      -9.224 -43.697  -1.137  1.00  0.00     0.157 HD
HETATM   10  N2  UNL     1      -9.499 -40.779   0.247  1.00  0.00    -0.240 N 
ENDROOT
BRANCH  10  11
HETATM   11  O2  UNL     1      -8.740 -40.999   1.343  1.00  0.00    -0.286 OA
ATOM     12  H2  UNL     1      -8.719 -41.880   1.699  1.00  0.00     0.244 HD
ENDBRANCH  10  11
TORSDOF 1
ENDMDL
MODEL 5
REMARK VINA RESULT: -4.309633738      2.147      3.891
REMARK  1 active torsions:
REMARK  status: ('A' for Active; 'I' for Inactive)
REMARK    1  A    between atoms: N2_10  and  O2_11 
ROOT
HETATM    1  C1  UNL     1      -6.823 -38.144   0.790  1.00  0.00     0.037 C 
HETATM    2  C2  UNL     1      -6.861 -38.453  -0.687  1.00  0.00     0.136 C 
HETATM    3  C3  UNL     1      -8.218 -38.233  -1.299  1.00  0.00     0.195 C 
HETATM    4  O1  UNL     1      -8.415 -36.961  -1.779  1.00  0.00    -0.382 OA
HETATM    5  C4  UNL     1      -7.570 -36.616  -2.819  1.00  0.00     0.245 C 
HETATM    6  C5  UNL     1      -6.191 -36.605  -2.271  1.00  0.00     0.122 C 
HETATM    7  N1  UNL     1      -5.275 -35.757  -2.575  1.00  0.00    -0.386 N 
ATOM      8  H11 UNL     1      -4.328 -35.750  -2.198  1.00  0.00     0.157 HD
ATOM      9  H12 UNL     1      -5.508 -35.027  -3.250  1.00  0.00     0.157 HD
HETATM   10  N2  UNL     1      -5.868 -37.618  -1.335  1.00  0.00    -0.240 N 
ENDROOT
BRANCH  10  11
HETATM   11  O2  UNL     1      -4.570 -37.824  -1.023  1.00  0.00    -0.286 OA
ATOM     12  H2  UNL     1      -3.925 -37.231  -1.391  1.00  0.00     0.244 HD
ENDBRANCH  10  11
TORSDOF 1
ENDMDL
