MODEL 1
REMARK VINA RESULT: -4.487170438      0.000      0.000
REMARK  2 active torsions:
REMARK  status: ('A' for Active; 'I' for Inactive)
REMARK    1  A    between atoms: N1_4  and  O1_5 
REMARK    2  A    between atoms: N2_9  and  O3_10 
ROOT
HETATM    1  C1  UNL     1      -8.124 -39.598   0.671  1.00  0.00     0.068 C 
HETATM    2  C2  UNL     1      -8.295 -38.805  -0.595  1.00  0.00     0.159 C 
HETATM    3  C3  UNL     1      -8.882 -37.426  -0.371  1.00  0.00     0.068 C 
HETATM    4  N1  UNL     1      -7.097 -38.678  -1.405  1.00  0.00    -0.176 N 
HETATM    5  C4  UNL     1      -7.920 -38.884  -2.549  1.00  0.00     0.372 C 
HETATM    6  O2  UNL     1      -7.795 -38.587  -3.769  1.00  0.00    -0.242 OA
HETATM    7  N2  UNL     1      -8.856 -39.527  -1.708  1.00  0.00    -0.176 N 
ENDROOT
BRANCH   4   8
HETATM    8  O1  UNL     1      -5.768 -38.460  -1.201  1.00  0.00    -0.281 OA
ATOM      9  H1  UNL     1      -5.143 -37.762  -1.358  1.00  0.00     0.245 HD
ENDBRANCH   4   8
BRANCH   7  10
HETATM   10  O3  UNL     1      -9.823 -40.422  -1.948  1.00  0.00    -0.281 OA
ATOM     11  H3  UNL     1     -10.010 -41.132  -2.551  1.00  0.00     0.245 HD
ENDBRANCH   7  10
TORSDOF 2
ENDMDL
MODEL 2
REMARK VINA RESULT: -4.325568337      1.350      2.535
REMARK  2 active torsions:
REMARK  status: ('A' for Active; 'I' for Inactive)
REMARK    1  A    between atoms: N1_4  and  O1_5 
REMARK    2  A    between atoms: N2_9  and  O3_10 
ROOT
HETATM    1  C1  UNL     1      -8.075 -38.192   0.701  1.00  0.00     0.068 C 
HETATM    2  C2  UNL     1      -8.163 -38.854  -0.646  1.00  0.00     0.159 C 
HETATM    3  C3  UNL     1      -8.735 -40.256  -0.594  1.00  0.00     0.068 C 
HETATM    4  N1  UNL     1      -8.874 -38.094  -1.657  1.00  0.00    -0.176 N 
HETATM    5  C4  UNL     1      -7.870 -38.497  -2.582  1.00  0.00     0.372 C 
HETATM    6  O2  UNL     1      -7.842 -38.599  -3.840  1.00  0.00    -0.242 OA
HETATM    7  N2  UNL     1      -7.002 -38.706  -1.486  1.00  0.00    -0.176 N 
ENDROOT
BRANCH   4   8
HETATM    8  O1  UNL     1      -9.998 -37.328  -1.728  1.00  0.00    -0.281 OA
ATOM      9  H1  UNL     1     -10.420 -36.764  -2.365  1.00  0.00     0.245 HD
ENDBRANCH   4   8
BRANCH   7  10
HETATM   10  O3  UNL     1      -5.668 -38.734  -1.380  1.00  0.00    -0.281 OA
ATOM     11  H3  UNL     1      -4.938 -39.279  -1.652  1.00  0.00     0.245 HD
ENDBRANCH   7  10
TORSDOF 2
ENDMDL
MODEL 3
REMARK VINA RESULT: -4.316914841      1.637      2.426
REMARK  2 active torsions:
REMARK  status: ('A' for Active; 'I' for Inactive)
REMARK    1  A    between atoms: N1_4  and  O1_5 
REMARK    2  A    between atoms: N2_9  and  O3_10 
ROOT
HETATM    1  C1  UNL     1      -7.106 -38.468   0.176  1.00  0.00     0.068 C 
HETATM    2  C2  UNL     1      -8.488 -38.849  -0.280  1.00  0.00     0.159 C 
HETATM    3  C3  UNL     1      -9.500 -37.730  -0.140  1.00  0.00     0.068 C 
HETATM    4  N1  UNL     1      -8.563 -39.384  -1.627  1.00  0.00    -0.176 N 
HETATM    5  C4  UNL     1      -9.494 -40.340  -1.131  1.00  0.00     0.372 C 
HETATM    6  O2  UNL     1     -10.397 -41.032  -1.679  1.00  0.00    -0.242 OA
HETATM    7  N2  UNL     1      -8.951 -40.141   0.158  1.00  0.00    -0.176 N 
ENDROOT
BRANCH   4   8
HETATM    8  O1  UNL     1      -8.008 -39.119  -2.842  1.00  0.00    -0.281 OA
ATOM      9  H1  UNL     1      -8.306 -38.837  -3.699  1.00  0.00     0.245 HD
ENDBRANCH   4   8
BRANCH   7  10
HETATM   10  O3  UNL     1      -8.931 -40.902   1.259  1.00  0.00    -0.281 OA
ATOM     11  H3  UNL     1      -9.530 -41.420   1.784  1.00  0.00     0.245 HD
ENDBRANCH   7  10
TORSDOF 2
ENDMDL
MODEL 4
REMARK VINA RESULT: -4.222602756      3.236      3.547
REMARK  2 active torsions:
REMARK  status: ('A' for Active; 'I' for Inactive)
REMARK    1  A    between atoms: N1_4  and  O1_5 
REMARK    2  A    between atoms: N2_9  and  O3_10 
ROOT
HETATM    1  C1  UNL     1      -9.427 -40.187   1.239  1.00  0.00     0.068 C 
HETATM    2  C2  UNL     1      -9.619 -40.418  -0.234  1.00  0.00     0.159 C 
HETATM    3  C3  UNL     1      -8.664 -39.623  -1.101  1.00  0.00     0.068 C 
HETATM    4  N1  UNL     1      -9.580 -41.809  -0.647  1.00  0.00    -0.176 N 
HETATM    5  C4  UNL     1     -10.669 -41.521  -1.517  1.00  0.00     0.372 C 
HETATM    6  O2  UNL     1     -11.104 -42.067  -2.569  1.00  0.00    -0.242 OA
HETATM    7  N2  UNL     1     -10.987 -40.421  -0.688  1.00  0.00    -0.176 N 
ENDROOT
BRANCH   4   8
HETATM    8  O1  UNL     1      -8.846 -42.919  -0.356  1.00  0.00    -0.281 OA
ATOM      9  H1  UNL     1      -8.961 -43.723   0.138  1.00  0.00     0.245 HD
ENDBRANCH   4   8
BRANCH   7  10
HETATM   10  O3  UNL     1     -12.121 -39.739  -0.483  1.00  0.00    -0.281 OA
ATOM     11  H3  UNL     1     -12.951 -39.848  -0.035  1.00  0.00     0.245 HD
ENDBRANCH   7  10
TORSDOF 2
ENDMDL
MODEL 5
REMARK VINA RESULT: -4.211666209      2.698      3.449
REMARK  2 active torsions:
REMARK  status: ('A' for Active; 'I' for Inactive)
REMARK    1  A    between atoms: N1_4  and  O1_5 
REMARK    2  A    between atoms: N2_9  and  O3_10 
ROOT
HETATM    1  C1  UNL     1      -8.582 -39.781   0.577  1.00  0.00     0.068 C 
HETATM    2  C2  UNL     1      -9.794 -40.463   0.007  1.00  0.00     0.159 C 
HETATM    3  C3  UNL     1     -11.021 -40.357   0.891  1.00  0.00     0.068 C 
HETATM    4  N1  UNL     1     -10.150 -40.055  -1.340  1.00  0.00    -0.176 N 
HETATM    5  C4  UNL     1     -10.424 -41.424  -1.618  1.00  0.00     0.372 C 
HETATM    6  O2  UNL     1     -11.144 -42.006  -2.477  1.00  0.00    -0.242 OA
HETATM    7  N2  UNL     1      -9.564 -41.771  -0.552  1.00  0.00    -0.176 N 
ENDROOT
BRANCH   4   8
HETATM    8  O1  UNL     1     -10.209 -38.896  -2.052  1.00  0.00    -0.281 OA
ATOM      9  H1  UNL     1     -10.623 -38.045  -1.968  1.00  0.00     0.245 HD
ENDBRANCH   4   8
BRANCH   7  10
HETATM   10  O3  UNL     1      -8.872 -42.882  -0.271  1.00  0.00    -0.281 OA
ATOM     11  H3  UNL     1      -8.049 -43.294  -0.510  1.00  0.00     0.245 HD
ENDBRANCH   7  10
TORSDOF 2
ENDMDL
