MODEL 1
REMARK VINA RESULT: -4.554653830      0.000      0.000
REMARK  1 active torsions:
REMARK  status: ('A' for Active; 'I' for Inactive)
REMARK    1  A    between atoms: O1_1  and  N1_3 
ROOT
HETATM    1  N1  UNL     1      -8.863 -42.944  -0.411  1.00  0.00    -0.275 N 
ATOM      2  H1  UNL     1      -7.866 -42.919  -0.197  1.00  0.00     0.193 HD
HETATM    3  C1  UNL     1      -9.498 -41.839  -0.421  1.00  0.00     0.043 C 
HETATM    4  C2  UNL     1     -10.951 -41.642  -0.706  1.00  0.00     0.327 C 
HETATM    5  N2  UNL     1     -11.163 -40.195  -0.610  1.00  0.00     0.094 N 
HETATM    6  C3  UNL     1     -11.028 -39.837   0.790  1.00  0.00     0.273 C 
HETATM    7  C4  UNL     1      -9.564 -40.037   1.161  1.00  0.00     0.042 C 
HETATM    8  C5  UNL     1      -8.984 -40.487  -0.162  1.00  0.00     0.065 C 
HETATM    9  C6  UNL     1      -9.877 -39.677  -1.114  1.00  0.00     0.283 C 
ENDROOT
BRANCH   1  10
HETATM   10  O1  UNL     1      -9.430 -44.156  -0.665  1.00  0.00    -0.290 OA
ATOM     11  H1  UNL     1     -10.090 -44.308  -1.331  1.00  0.00     0.244 HD
ENDBRANCH   1  10
TORSDOF 1
ENDMDL
MODEL 2
REMARK VINA RESULT: -4.417823330     14.271     15.187
REMARK  1 active torsions:
REMARK  status: ('A' for Active; 'I' for Inactive)
REMARK    1  A    between atoms: O1_1  and  N1_3 
ROOT
HETATM    1  N1  UNL     1      -4.999 -30.505   6.398  1.00  0.00    -0.275 N 
ATOM      2  H1  UNL     1      -5.152 -31.323   5.808  1.00  0.00     0.193 HD
HETATM    3  C1  UNL     1      -3.806 -30.071   6.517  1.00  0.00     0.043 C 
HETATM    4  C2  UNL     1      -3.356 -28.897   7.323  1.00  0.00     0.327 C 
HETATM    5  N2  UNL     1      -1.908 -28.819   7.102  1.00  0.00     0.094 N 
HETATM    6  C3  UNL     1      -1.313 -29.958   7.776  1.00  0.00     0.273 C 
HETATM    7  C4  UNL     1      -1.752 -31.204   7.017  1.00  0.00     0.042 C 
HETATM    8  C5  UNL     1      -2.578 -30.595   5.905  1.00  0.00     0.065 C 
HETATM    9  C6  UNL     1      -1.801 -29.285   5.706  1.00  0.00     0.283 C 
ENDROOT
BRANCH   1  10
HETATM   10  O1  UNL     1      -6.082 -29.948   7.009  1.00  0.00    -0.290 OA
ATOM     11  H1  UNL     1      -6.086 -29.629   7.904  1.00  0.00     0.244 HD
ENDBRANCH   1  10
TORSDOF 1
ENDMDL
MODEL 3
REMARK VINA RESULT: -4.319286103      1.551      1.890
REMARK  1 active torsions:
REMARK  status: ('A' for Active; 'I' for Inactive)
REMARK    1  A    between atoms: O1_1  and  N1_3 
ROOT
HETATM    1  N1  UNL     1      -9.807 -42.027  -0.843  1.00  0.00    -0.275 N 
ATOM      2  H1  UNL     1      -9.676 -42.823  -0.220  1.00  0.00     0.193 HD
HETATM    3  C1  UNL     1      -9.555 -40.864  -0.386  1.00  0.00     0.043 C 
HETATM    4  C2  UNL     1      -9.677 -39.567  -1.116  1.00  0.00     0.327 C 
HETATM    5  N2  UNL     1      -9.251 -38.548  -0.152  1.00  0.00     0.094 N 
HETATM    6  C3  UNL     1     -10.279 -38.474   0.870  1.00  0.00     0.273 C 
HETATM    7  C4  UNL     1     -10.230 -39.783   1.646  1.00  0.00     0.042 C 
HETATM    8  C5  UNL     1      -9.086 -40.492   0.956  1.00  0.00     0.065 C 
HETATM    9  C6  UNL     1      -8.215 -39.276   0.605  1.00  0.00     0.283 C 
ENDROOT
BRANCH   1  10
HETATM   10  O1  UNL     1     -10.241 -42.274  -2.111  1.00  0.00    -0.290 OA
ATOM     11  H1  UNL     1     -10.944 -42.876  -2.327  1.00  0.00     0.244 HD
ENDBRANCH   1  10
TORSDOF 1
ENDMDL
MODEL 4
REMARK VINA RESULT: -4.281375946      1.856      2.607
REMARK  1 active torsions:
REMARK  status: ('A' for Active; 'I' for Inactive)
REMARK    1  A    between atoms: O1_1  and  N1_3 
ROOT
HETATM    1  N1  UNL     1     -10.248 -40.813  -1.908  1.00  0.00    -0.275 N 
ATOM      2  H1  UNL     1     -10.694 -40.253  -2.635  1.00  0.00     0.193 HD
HETATM    3  C1  UNL     1      -9.777 -40.204  -0.892  1.00  0.00     0.043 C 
HETATM    4  C2  UNL     1      -9.088 -40.819   0.282  1.00  0.00     0.327 C 
HETATM    5  N2  UNL     1      -8.768 -39.694   1.166  1.00  0.00     0.094 N 
HETATM    6  C3  UNL     1      -7.727 -38.923   0.511  1.00  0.00     0.273 C 
HETATM    7  C4  UNL     1      -8.355 -38.281  -0.719  1.00  0.00     0.042 C 
HETATM    8  C5  UNL     1      -9.784 -38.764  -0.605  1.00  0.00     0.065 C 
HETATM    9  C6  UNL     1      -9.915 -38.797   0.925  1.00  0.00     0.283 C 
ENDROOT
BRANCH   1  10
HETATM   10  O1  UNL     1     -10.194 -42.163  -2.086  1.00  0.00    -0.290 OA
ATOM     11  H1  UNL     1      -9.699 -42.756  -1.533  1.00  0.00     0.244 HD
ENDBRANCH   1  10
TORSDOF 1
ENDMDL
MODEL 5
REMARK VINA RESULT: -4.110854821      1.652      1.760
REMARK  1 active torsions:
REMARK  status: ('A' for Active; 'I' for Inactive)
REMARK    1  A    between atoms: O1_1  and  N1_3 
ROOT
HETATM    1  N1  UNL     1      -9.884 -41.292  -1.753  1.00  0.00    -0.275 N 
ATOM      2  H1  UNL     1      -8.885 -41.303  -1.957  1.00  0.00     0.193 HD
HETATM    3  C1  UNL     1     -10.304 -40.474  -0.870  1.00  0.00     0.043 C 
HETATM    4  C2  UNL     1     -11.715 -40.289  -0.417  1.00  0.00     0.327 C 
HETATM    5  N2  UNL     1     -11.654 -39.222   0.587  1.00  0.00     0.094 N 
HETATM    6  C3  UNL     1     -10.980 -39.771   1.750  1.00  0.00     0.273 C 
HETATM    7  C4  UNL     1      -9.530 -40.010   1.352  1.00  0.00     0.042 C 
HETATM    8  C5  UNL     1      -9.530 -39.511  -0.076  1.00  0.00     0.065 C 
HETATM    9  C6  UNL     1     -10.564 -38.382   0.055  1.00  0.00     0.283 C 
ENDROOT
BRANCH   1  10
HETATM   10  O1  UNL     1     -10.685 -42.153  -2.442  1.00  0.00    -0.290 OA
ATOM     11  H1  UNL     1     -10.788 -42.147  -3.387  1.00  0.00     0.244 HD
ENDBRANCH   1  10
TORSDOF 1
ENDMDL
