MODEL 1
REMARK VINA RESULT: -4.303135922      0.000      0.000
REMARK  1 active torsions:
REMARK  status: ('A' for Active; 'I' for Inactive)
REMARK    1  A    between atoms: N1_7  and  O2_8 
ROOT
HETATM    1  O1  UNL     1      -6.619 -38.939  -1.586  1.00  0.00    -0.271 OA
HETATM    2  C1  UNL     1      -6.105 -37.878  -1.154  1.00  0.00     0.244 C 
HETATM    3  C2  UNL     1      -5.940 -37.697   0.293  1.00  0.00     0.115 C 
HETATM    4  C3  UNL     1      -4.540 -37.326   0.711  1.00  0.00     0.085 C 
HETATM    5  S1  UNL     1      -3.651 -36.361  -0.510  1.00  0.00    -0.146 SA
HETATM    6  C4  UNL     1      -4.795 -35.818  -1.780  1.00  0.00     0.232 C 
HETATM    7  N1  UNL     1      -5.706 -36.902  -2.088  1.00  0.00    -0.219 N 
ENDROOT
BRANCH   7   8
HETATM    8  O2  UNL     1      -6.180 -36.942  -3.361  1.00  0.00    -0.284 OA
ATOM      9  H2  UNL     1      -5.586 -37.094  -4.087  1.00  0.00     0.245 HD
ENDBRANCH   7   8
TORSDOF 1
ENDMDL
MODEL 2
REMARK VINA RESULT: -4.182975771      1.799      2.465
REMARK  1 active torsions:
REMARK  status: ('A' for Active; 'I' for Inactive)
REMARK    1  A    between atoms: N1_7  and  O2_8 
ROOT
HETATM    1  O1  UNL     1      -4.664 -35.392  -1.575  1.00  0.00    -0.271 OA
HETATM    2  C1  UNL     1      -4.989 -36.530  -1.157  1.00  0.00     0.244 C 
HETATM    3  C2  UNL     1      -4.429 -37.018   0.109  1.00  0.00     0.115 C 
HETATM    4  C3  UNL     1      -5.462 -37.495   1.096  1.00  0.00     0.085 C 
HETATM    5  S1  UNL     1      -6.924 -38.197   0.331  1.00  0.00    -0.146 SA
HETATM    6  C4  UNL     1      -6.617 -38.436  -1.419  1.00  0.00     0.232 C 
HETATM    7  N1  UNL     1      -5.886 -37.294  -1.929  1.00  0.00    -0.219 N 
ENDROOT
BRANCH   7   8
HETATM    8  O2  UNL     1      -6.106 -36.976  -3.232  1.00  0.00    -0.284 OA
ATOM      9  H2  UNL     1      -5.669 -36.227  -3.621  1.00  0.00     0.245 HD
ENDBRANCH   7   8
TORSDOF 1
ENDMDL
MODEL 3
REMARK VINA RESULT: -4.127186836      2.367      3.012
REMARK  1 active torsions:
REMARK  status: ('A' for Active; 'I' for Inactive)
REMARK    1  A    between atoms: N1_7  and  O2_8 
ROOT
HETATM    1  O1  UNL     1      -6.849 -38.052   1.101  1.00  0.00    -0.271 OA
HETATM    2  C1  UNL     1      -5.901 -37.761   0.332  1.00  0.00     0.244 C 
HETATM    3  C2  UNL     1      -6.058 -37.971  -1.113  1.00  0.00     0.115 C 
HETATM    4  C3  UNL     1      -5.746 -36.756  -1.948  1.00  0.00     0.085 C 
HETATM    5  S1  UNL     1      -4.489 -35.693  -1.238  1.00  0.00    -0.146 SA
HETATM    6  C4  UNL     1      -3.706 -36.540   0.134  1.00  0.00     0.232 C 
HETATM    7  N1  UNL     1      -4.719 -37.242   0.895  1.00  0.00    -0.219 N 
ENDROOT
BRANCH   7   8
HETATM    8  O2  UNL     1      -4.476 -37.387   2.224  1.00  0.00    -0.284 OA
ATOM      9  H2  UNL     1      -3.998 -36.716   2.697  1.00  0.00     0.245 HD
ENDBRANCH   7   8
TORSDOF 1
ENDMDL
MODEL 4
REMARK VINA RESULT: -4.079887077      2.641      3.224
REMARK  1 active torsions:
REMARK  status: ('A' for Active; 'I' for Inactive)
REMARK    1  A    between atoms: N1_7  and  O2_8 
ROOT
HETATM    1  O1  UNL     1      -5.986 -37.073  -2.733  1.00  0.00    -0.271 OA
HETATM    2  C1  UNL     1      -6.532 -37.916  -1.980  1.00  0.00     0.244 C 
HETATM    3  C2  UNL     1      -5.975 -38.153  -0.643  1.00  0.00     0.115 C 
HETATM    4  C3  UNL     1      -6.981 -38.037   0.473  1.00  0.00     0.085 C 
HETATM    5  S1  UNL     1      -8.644 -38.513   0.001  1.00  0.00    -0.146 SA
HETATM    6  C4  UNL     1      -8.595 -39.314  -1.602  1.00  0.00     0.232 C 
HETATM    7  N1  UNL     1      -7.667 -38.602  -2.457  1.00  0.00    -0.219 N 
ENDROOT
BRANCH   7   8
HETATM    8  O2  UNL     1      -7.942 -38.622  -3.788  1.00  0.00    -0.284 OA
ATOM      9  H2  UNL     1      -8.835 -38.745  -4.088  1.00  0.00     0.245 HD
ENDBRANCH   7   8
TORSDOF 1
ENDMDL
MODEL 5
REMARK VINA RESULT: -3.967346986      2.202      2.641
REMARK  1 active torsions:
REMARK  status: ('A' for Active; 'I' for Inactive)
REMARK    1  A    between atoms: N1_7  and  O2_8 
ROOT
HETATM    1  O1  UNL     1      -7.982 -38.693  -3.724  1.00  0.00    -0.271 OA
HETATM    2  C1  UNL     1      -7.790 -38.126  -2.620  1.00  0.00     0.244 C 
HETATM    3  C2  UNL     1      -8.771 -38.302  -1.542  1.00  0.00     0.115 C 
HETATM    4  C3  UNL     1      -8.175 -38.764  -0.238  1.00  0.00     0.085 C 
HETATM    5  S1  UNL     1      -6.501 -38.186   0.039  1.00  0.00    -0.146 SA
HETATM    6  C4  UNL     1      -6.100 -36.934  -1.180  1.00  0.00     0.232 C 
HETATM    7  N1  UNL     1      -6.631 -37.341  -2.465  1.00  0.00    -0.219 N 
ENDROOT
BRANCH   7   8
HETATM    8  O2  UNL     1      -5.942 -36.919  -3.558  1.00  0.00    -0.284 OA
ATOM      9  H2  UNL     1      -5.015 -37.109  -3.640  1.00  0.00     0.245 HD
ENDBRANCH   7   8
TORSDOF 1
ENDMDL
