MODEL 1
REMARK VINA RESULT: -4.929875342      0.000      0.000
REMARK  3 active torsions:
REMARK  status: ('A' for Active; 'I' for Inactive)
REMARK    1  A    between atoms: N1_2  and  C2_4 
REMARK    2  A    between atoms: C2_4  and  O1_8 
REMARK    3  A    between atoms: O1_8  and  N3_9 
ROOT
HETATM    1  N3  UNL     1      -5.921 -37.905  -0.733  1.00  0.00    -0.252 N 
ATOM      2  H3  UNL     1      -5.662 -37.882   0.253  1.00  0.00     0.195 HD
HETATM    3  C3  UNL     1      -7.054 -38.410  -1.052  1.00  0.00     0.108 C 
HETATM    4  C4  UNL     1      -7.921 -38.930   0.034  1.00  0.00     0.083 C 
HETATM    5  C5  UNL     1      -7.498 -38.483  -2.411  1.00  0.00     0.114 C 
HETATM    6  N4  UNL     1      -7.865 -38.561  -3.515  1.00  0.00    -0.190 NA
ENDROOT
BRANCH   1   7
HETATM    7  O1  UNL     1      -5.034 -37.392  -1.651  1.00  0.00    -0.201 OA
BRANCH   7   8
HETATM    8  C2  UNL     1      -4.703 -36.040  -1.643  1.00  0.00     0.236 C 
HETATM    9  N2  UNL     1      -5.395 -35.276  -2.439  1.00  0.00    -0.364 N 
ATOM     10  H22 UNL     1      -5.152 -34.285  -2.434  1.00  0.00     0.159 HD
ATOM     11  H21 UNL     1      -6.133 -35.667  -3.024  1.00  0.00     0.159 HD
BRANCH   8  12
HETATM   12  N1  UNL     1      -3.676 -35.496  -0.829  1.00  0.00    -0.359 N 
HETATM   13  C1  UNL     1      -2.340 -35.478  -1.349  1.00  0.00     0.150 C 
ATOM     14  H1  UNL     1      -3.882 -35.128   0.100  1.00  0.00     0.162 HD
ENDBRANCH   8  12
ENDBRANCH   7   8
ENDBRANCH   1   7
TORSDOF 3
ENDMDL
MODEL 2
REMARK VINA RESULT: -4.890855118      1.993      3.414
REMARK  3 active torsions:
REMARK  status: ('A' for Active; 'I' for Inactive)
REMARK    1  A    between atoms: N1_2  and  C2_4 
REMARK    2  A    between atoms: C2_4  and  O1_8 
REMARK    3  A    between atoms: O1_8  and  N3_9 
ROOT
HETATM    1  N3  UNL     1      -4.799 -37.591  -0.665  1.00  0.00    -0.252 N 
ATOM      2  H3  UNL     1      -3.807 -37.366  -0.737  1.00  0.00     0.195 HD
HETATM    3  C3  UNL     1      -5.301 -37.755   0.502  1.00  0.00     0.108 C 
HETATM    4  C4  UNL     1      -4.408 -37.608   1.677  1.00  0.00     0.083 C 
HETATM    5  C5  UNL     1      -6.684 -38.072   0.697  1.00  0.00     0.114 C 
HETATM    6  N4  UNL     1      -7.805 -38.344   0.868  1.00  0.00    -0.190 NA
ENDROOT
BRANCH   1   7
HETATM    7  O1  UNL     1      -5.528 -37.701  -1.826  1.00  0.00    -0.201 OA
BRANCH   7   8
HETATM    8  C2  UNL     1      -5.953 -36.566  -2.511  1.00  0.00     0.236 C 
HETATM    9  N2  UNL     1      -5.163 -35.533  -2.455  1.00  0.00    -0.364 N 
ATOM     10  H22 UNL     1      -5.474 -34.701  -2.957  1.00  0.00     0.159 HD
ATOM     11  H21 UNL     1      -4.287 -35.575  -1.935  1.00  0.00     0.159 HD
BRANCH   8  12
HETATM   12  N1  UNL     1      -7.173 -36.507  -3.235  1.00  0.00    -0.359 N 
HETATM   13  C1  UNL     1      -8.250 -37.355  -2.815  1.00  0.00     0.150 C 
ATOM     14  H1  UNL     1      -7.280 -35.879  -4.032  1.00  0.00     0.162 HD
ENDBRANCH   8  12
ENDBRANCH   7   8
ENDBRANCH   1   7
TORSDOF 3
ENDMDL
MODEL 3
REMARK VINA RESULT: -4.828500989      1.595      4.532
REMARK  3 active torsions:
REMARK  status: ('A' for Active; 'I' for Inactive)
REMARK    1  A    between atoms: N1_2  and  C2_4 
REMARK    2  A    between atoms: C2_4  and  O1_8 
REMARK    3  A    between atoms: O1_8  and  N3_9 
ROOT
HETATM    1  N3  UNL     1      -5.642 -38.159  -0.930  1.00  0.00    -0.252 N 
ATOM      2  H3  UNL     1      -5.773 -39.012  -0.388  1.00  0.00     0.195 HD
HETATM    3  C3  UNL     1      -4.924 -37.225  -0.428  1.00  0.00     0.108 C 
HETATM    4  C4  UNL     1      -4.326 -37.443   0.912  1.00  0.00     0.083 C 
HETATM    5  C5  UNL     1      -4.685 -35.993  -1.119  1.00  0.00     0.114 C 
HETATM    6  N4  UNL     1      -4.496 -34.981  -1.666  1.00  0.00    -0.190 NA
ENDROOT
BRANCH   1   7
HETATM    7  O1  UNL     1      -6.246 -38.071  -2.162  1.00  0.00    -0.201 OA
BRANCH   7   8
HETATM    8  C2  UNL     1      -7.449 -38.725  -2.414  1.00  0.00     0.236 C 
HETATM    9  N2  UNL     1      -8.049 -38.413  -3.527  1.00  0.00    -0.364 N 
ATOM     10  H22 UNL     1      -8.931 -38.893  -3.712  1.00  0.00     0.159 HD
ATOM     11  H21 UNL     1      -7.643 -37.728  -4.163  1.00  0.00     0.159 HD
BRANCH   8  12
HETATM   12  N1  UNL     1      -8.015 -39.680  -1.529  1.00  0.00    -0.359 N 
HETATM   13  C1  UNL     1      -9.421 -39.603  -1.262  1.00  0.00     0.150 C 
ATOM     14  H1  UNL     1      -7.437 -40.400  -1.095  1.00  0.00     0.162 HD
ENDBRANCH   8  12
ENDBRANCH   7   8
ENDBRANCH   1   7
TORSDOF 3
ENDMDL
MODEL 4
REMARK VINA RESULT: -4.803585229      1.619      2.655
REMARK  3 active torsions:
REMARK  status: ('A' for Active; 'I' for Inactive)
REMARK    1  A    between atoms: N1_2  and  C2_4 
REMARK    2  A    between atoms: C2_4  and  O1_8 
REMARK    3  A    between atoms: O1_8  and  N3_9 
ROOT
HETATM    1  N3  UNL     1      -5.956 -37.531  -0.978  1.00  0.00    -0.252 N 
ATOM      2  H3  UNL     1      -6.754 -37.684  -1.593  1.00  0.00     0.195 HD
HETATM    3  C3  UNL     1      -6.093 -37.787   0.269  1.00  0.00     0.108 C 
HETATM    4  C4  UNL     1      -7.405 -38.292   0.742  1.00  0.00     0.083 C 
HETATM    5  C5  UNL     1      -5.025 -37.603   1.206  1.00  0.00     0.114 C 
HETATM    6  N4  UNL     1      -4.167 -37.443   1.979  1.00  0.00    -0.190 NA
ENDROOT
BRANCH   1   7
HETATM    7  O1  UNL     1      -4.788 -37.061  -1.531  1.00  0.00    -0.201 OA
BRANCH   7   8
HETATM    8  C2  UNL     1      -4.626 -35.706  -1.808  1.00  0.00     0.236 C 
HETATM    9  N2  UNL     1      -5.535 -35.163  -2.566  1.00  0.00    -0.364 N 
ATOM     10  H22 UNL     1      -5.417 -34.170  -2.769  1.00  0.00     0.159 HD
ATOM     11  H21 UNL     1      -6.313 -35.717  -2.924  1.00  0.00     0.159 HD
BRANCH   8  12
HETATM   12  N1  UNL     1      -3.543 -34.934  -1.310  1.00  0.00    -0.359 N 
HETATM   13  C1  UNL     1      -2.213 -35.428  -1.513  1.00  0.00     0.150 C 
ATOM     14  H1  UNL     1      -3.707 -34.054  -0.821  1.00  0.00     0.162 HD
ENDBRANCH   8  12
ENDBRANCH   7   8
ENDBRANCH   1   7
TORSDOF 3
ENDMDL
MODEL 5
REMARK VINA RESULT: -4.758776514      2.522      3.570
REMARK  3 active torsions:
REMARK  status: ('A' for Active; 'I' for Inactive)
REMARK    1  A    between atoms: N1_2  and  C2_4 
REMARK    2  A    between atoms: C2_4  and  O1_8 
REMARK    3  A    between atoms: O1_8  and  N3_9 
ROOT
HETATM    1  N3  UNL     1      -2.997 -35.844  -0.464  1.00  0.00    -0.252 N 
ATOM      2  H3  UNL     1      -2.294 -35.649   0.249  1.00  0.00     0.195 HD
HETATM    3  C3  UNL     1      -3.888 -36.729  -0.212  1.00  0.00     0.108 C 
HETATM    4  C4  UNL     1      -3.842 -37.417   1.102  1.00  0.00     0.083 C 
HETATM    5  C5  UNL     1      -4.913 -37.066  -1.154  1.00  0.00     0.114 C 
HETATM    6  N4  UNL     1      -5.743 -37.359  -1.918  1.00  0.00    -0.190 NA
ENDROOT
BRANCH   1   7
HETATM    7  O1  UNL     1      -2.939 -35.142  -1.645  1.00  0.00    -0.201 OA
BRANCH   7   8
HETATM    8  C2  UNL     1      -1.772 -34.484  -2.026  1.00  0.00     0.236 C 
HETATM    9  N2  UNL     1      -1.224 -34.886  -3.137  1.00  0.00    -0.364 N 
ATOM     10  H22 UNL     1      -0.370 -34.404  -3.416  1.00  0.00     0.159 HD
ATOM     11  H21 UNL     1      -1.644 -35.639  -3.681  1.00  0.00     0.159 HD
BRANCH   8  12
HETATM   12  N1  UNL     1      -1.188 -33.435  -1.268  1.00  0.00    -0.359 N 
HETATM   13  C1  UNL     1      -1.158 -32.122  -1.843  1.00  0.00     0.150 C 
ATOM     14  H1  UNL     1      -0.802 -33.611  -0.341  1.00  0.00     0.162 HD
ENDBRANCH   8  12
ENDBRANCH   7   8
ENDBRANCH   1   7
TORSDOF 3
ENDMDL
