MODEL 1
REMARK VINA RESULT: -5.662915116      0.000      0.000
REMARK  10 active torsions:
REMARK  status: ('A' for Active; 'I' for Inactive)
REMARK    1  A    between atoms: O1_2  and  C2_3 
REMARK    2  A    between atoms: C2_3  and  C3_5 
REMARK    3  A    between atoms: C3_5  and  N1_6 
REMARK    4  A    between atoms: C3_5  and  C9_26 
REMARK       I    between atoms: N1_6  and  C4_8 
REMARK    5  A    between atoms: C4_8  and  C5_10 
REMARK    6  A    between atoms: C5_10  and  O4_11 
REMARK    7  A    between atoms: N3_18  and  O5_19 
REMARK    8  A    between atoms: N4_22  and  O6_24 
REMARK       I    between atoms: C9_26  and  N5_28 
REMARK    9  A    between atoms: N5_28  and  N6_30 
REMARK   10  A    between atoms: N6_30  and  N7_31 
ROOT
HETATM    1  N1  UNL     1      40.973 -19.747 114.795  1.00  0.00    -0.337 N 
ATOM      2  H1  UNL     1      41.758 -20.395 114.731  1.00  0.00     0.164 HD
HETATM    3  C4  UNL     1      40.077 -19.912 115.871  1.00  0.00     0.261 C 
HETATM    4  O3  UNL     1      39.113 -19.121 115.978  1.00  0.00    -0.270 OA
ENDROOT
BRANCH   3   5
HETATM    5  C5  UNL     1      40.237 -20.971 116.859  1.00  0.00     0.207 C 
HETATM    6  C6  UNL     1      41.182 -22.081 116.442  1.00  0.00     0.134 C 
HETATM    7  C7  UNL     1      41.413 -22.751 117.752  1.00  0.00     0.109 C 
HETATM    8  N2  UNL     1      41.587 -24.016 117.969  1.00  0.00    -0.387 N 
HETATM    9  N3  UNL     1      41.403 -21.706 118.715  1.00  0.00    -0.195 N 
ATOM     10  H22 UNL     1      41.594 -24.766 117.277  1.00  0.00     0.157 HD
ATOM     11  H21 UNL     1      41.746 -24.475 118.866  1.00  0.00     0.157 HD
HETATM   12  C8  UNL     1      40.910 -20.495 118.094  1.00  0.00     0.175 C 
HETATM   13  N4  UNL     1      41.072 -19.332 118.598  1.00  0.00    -0.252 N 
ATOM     14  H4  UNL     1      41.589 -19.300 119.477  1.00  0.00     0.195 HD
BRANCH   5  15
HETATM   15  O4  UNL     1      39.020 -21.599 117.154  1.00  0.00    -0.372 OA
ATOM     16  H4  UNL     1      39.105 -22.218 117.870  1.00  0.00     0.211 HD
ENDBRANCH   5  15
BRANCH   9  17
HETATM   17  O5  UNL     1      41.782 -21.768 120.034  1.00  0.00    -0.280 OA
ATOM     18  H5  UNL     1      41.224 -21.759 120.804  1.00  0.00     0.245 HD
ENDBRANCH   9  17
BRANCH  13  19
HETATM   19  O6  UNL     1      40.650 -18.134 118.124  1.00  0.00    -0.288 OA
ATOM     20  H6  UNL     1      40.354 -17.373 118.609  1.00  0.00     0.244 HD
ENDBRANCH  13  19
ENDBRANCH   3   5
BRANCH   1  21
HETATM   21  C3  UNL     1      40.861 -18.730 113.780  1.00  0.00     0.278 C 
BRANCH  21  22
HETATM   22  C2  UNL     1      42.158 -17.999 113.625  1.00  0.00     0.290 C 
HETATM   23  O2  UNL     1      43.125 -18.612 113.079  1.00  0.00    -0.262 OA
BRANCH  22  24
HETATM   24  O1  UNL     1      42.386 -16.708 114.028  1.00  0.00    -0.324 OA
HETATM   25  C1  UNL     1      43.651 -16.342 114.591  1.00  0.00     0.213 C 
ENDBRANCH  22  24
ENDBRANCH  21  22
BRANCH  21  26
HETATM   26  C9  UNL     1      40.488 -19.254 112.464  1.00  0.00     0.267 C 
HETATM   27  O7  UNL     1      39.685 -20.246 112.444  1.00  0.00    -0.269 OA
HETATM   28  N5  UNL     1      40.969 -18.720 111.245  1.00  0.00    -0.252 N 
ATOM     29  H5  UNL     1      41.608 -17.925 111.247  1.00  0.00     0.187 HD
BRANCH  28  30
HETATM   30  N6  UNL     1      40.556 -19.296 110.032  1.00  0.00    -0.027 NA
BRANCH  30  31
HETATM   31  N7  UNL     1      39.236 -19.045 109.721  1.00  0.00    -0.329 N 
ATOM     32  H72 UNL     1      38.530 -19.780 109.705  1.00  0.00     0.174 HD
ATOM     33  H71 UNL     1      39.045 -18.065 109.512  1.00  0.00     0.174 HD
ENDBRANCH  30  31
ENDBRANCH  28  30
ENDBRANCH  21  26
ENDBRANCH   1  21
TORSDOF 10
ENDMDL
MODEL 2
REMARK VINA RESULT: -5.640907565      2.727      6.890
REMARK  10 active torsions:
REMARK  status: ('A' for Active; 'I' for Inactive)
REMARK    1  A    between atoms: O1_2  and  C2_3 
REMARK    2  A    between atoms: C2_3  and  C3_5 
REMARK    3  A    between atoms: C3_5  and  N1_6 
REMARK    4  A    between atoms: C3_5  and  C9_26 
REMARK       I    between atoms: N1_6  and  C4_8 
REMARK    5  A    between atoms: C4_8  and  C5_10 
REMARK    6  A    between atoms: C5_10  and  O4_11 
REMARK    7  A    between atoms: N3_18  and  O5_19 
REMARK    8  A    between atoms: N4_22  and  O6_24 
REMARK       I    between atoms: C9_26  and  N5_28 
REMARK    9  A    between atoms: N5_28  and  N6_30 
REMARK   10  A    between atoms: N6_30  and  N7_31 
ROOT
HETATM    1  N1  UNL     1      41.676 -19.202 113.138  1.00  0.00    -0.337 N 
ATOM      2  H1  UNL     1      41.759 -18.187 113.080  1.00  0.00     0.164 HD
HETATM    3  C4  UNL     1      41.728 -19.931 111.932  1.00  0.00     0.261 C 
HETATM    4  O3  UNL     1      41.642 -21.179 111.980  1.00  0.00    -0.270 OA
ENDROOT
BRANCH   3   5
HETATM    5  C5  UNL     1      41.878 -19.280 110.637  1.00  0.00     0.207 C 
HETATM    6  C6  UNL     1      42.820 -19.988 109.684  1.00  0.00     0.134 C 
HETATM    7  C7  UNL     1      42.460 -19.325 108.400  1.00  0.00     0.109 C 
HETATM    8  N2  UNL     1      43.250 -19.036 107.415  1.00  0.00    -0.387 N 
HETATM    9  N3  UNL     1      41.063 -19.078 108.483  1.00  0.00    -0.195 N 
ATOM     10  H22 UNL     1      44.254 -19.213 107.356  1.00  0.00     0.157 HD
ATOM     11  H21 UNL     1      43.004 -18.582 106.536  1.00  0.00     0.157 HD
HETATM   12  C8  UNL     1      40.623 -19.305 109.844  1.00  0.00     0.175 C 
HETATM   13  N4  UNL     1      39.397 -19.467 110.167  1.00  0.00    -0.252 N 
ATOM     14  H4  UNL     1      38.730 -19.439 109.396  1.00  0.00     0.195 HD
BRANCH   5  15
HETATM   15  O4  UNL     1      42.374 -17.976 110.763  1.00  0.00    -0.372 OA
ATOM     16  H4  UNL     1      42.197 -17.453 109.989  1.00  0.00     0.211 HD
ENDBRANCH   5  15
BRANCH   9  17
HETATM   17  O5  UNL     1      40.213 -18.684 107.480  1.00  0.00    -0.280 OA
ATOM     18  H5  UNL     1      39.565 -17.988 107.501  1.00  0.00     0.245 HD
ENDBRANCH   9  17
BRANCH  13  19
HETATM   19  O6  UNL     1      38.863 -19.672 111.396  1.00  0.00    -0.288 OA
ATOM     20  H6  UNL     1      38.041 -20.088 111.625  1.00  0.00     0.244 HD
ENDBRANCH  13  19
ENDBRANCH   3   5
BRANCH   1  21
HETATM   21  C3  UNL     1      41.516 -19.785 114.446  1.00  0.00     0.278 C 
BRANCH  21  22
HETATM   22  C2  UNL     1      42.297 -19.014 115.464  1.00  0.00     0.290 C 
HETATM   23  O2  UNL     1      42.828 -19.658 116.419  1.00  0.00    -0.262 OA
BRANCH  22  24
HETATM   24  O1  UNL     1      42.488 -17.656 115.446  1.00  0.00    -0.324 OA
HETATM   25  C1  UNL     1      43.799 -17.115 115.247  1.00  0.00     0.213 C 
ENDBRANCH  22  24
ENDBRANCH  21  22
BRANCH  21  26
HETATM   26  C9  UNL     1      40.125 -19.833 114.900  1.00  0.00     0.267 C 
HETATM   27  O7  UNL     1      39.318 -20.545 114.214  1.00  0.00    -0.269 OA
HETATM   28  N5  UNL     1      39.649 -19.141 116.039  1.00  0.00    -0.252 N 
ATOM     29  H5  UNL     1      40.284 -18.572 116.598  1.00  0.00     0.187 HD
BRANCH  28  30
HETATM   30  N6  UNL     1      38.293 -19.247 116.391  1.00  0.00    -0.027 NA
BRANCH  30  31
HETATM   31  N7  UNL     1      38.076 -19.967 117.548  1.00  0.00    -0.329 N 
ATOM     32  H72 UNL     1      38.841 -20.286 118.143  1.00  0.00     0.174 HD
ATOM     33  H71 UNL     1      37.090 -20.144 117.740  1.00  0.00     0.174 HD
ENDBRANCH  30  31
ENDBRANCH  28  30
ENDBRANCH  21  26
ENDBRANCH   1  21
TORSDOF 10
ENDMDL
MODEL 3
REMARK VINA RESULT: -5.630446031      3.031      4.872
REMARK  10 active torsions:
REMARK  status: ('A' for Active; 'I' for Inactive)
REMARK    1  A    between atoms: O1_2  and  C2_3 
REMARK    2  A    between atoms: C2_3  and  C3_5 
REMARK    3  A    between atoms: C3_5  and  N1_6 
REMARK    4  A    between atoms: C3_5  and  C9_26 
REMARK       I    between atoms: N1_6  and  C4_8 
REMARK    5  A    between atoms: C4_8  and  C5_10 
REMARK    6  A    between atoms: C5_10  and  O4_11 
REMARK    7  A    between atoms: N3_18  and  O5_19 
REMARK    8  A    between atoms: N4_22  and  O6_24 
REMARK       I    between atoms: C9_26  and  N5_28 
REMARK    9  A    between atoms: N5_28  and  N6_30 
REMARK   10  A    between atoms: N6_30  and  N7_31 
ROOT
HETATM    1  N1  UNL     1      42.782 -18.688 114.934  1.00  0.00    -0.337 N 
ATOM      2  H1  UNL     1      42.242 -17.954 114.477  1.00  0.00     0.164 HD
HETATM    3  C4  UNL     1      42.070 -19.758 115.514  1.00  0.00     0.261 C 
HETATM    4  O3  UNL     1      42.712 -20.678 116.069  1.00  0.00    -0.270 OA
ENDROOT
BRANCH   3   5
HETATM    5  C5  UNL     1      40.614 -19.827 115.486  1.00  0.00     0.207 C 
HETATM    6  C6  UNL     1      40.056 -21.220 115.271  1.00  0.00     0.134 C 
HETATM    7  C7  UNL     1      38.636 -21.009 115.669  1.00  0.00     0.109 C 
HETATM    8  N2  UNL     1      37.585 -21.572 115.162  1.00  0.00    -0.387 N 
HETATM    9  N3  UNL     1      38.679 -20.062 116.728  1.00  0.00    -0.195 N 
ATOM     10  H22 UNL     1      37.555 -22.252 114.401  1.00  0.00     0.157 HD
ATOM     11  H21 UNL     1      36.613 -21.428 115.434  1.00  0.00     0.157 HD
HETATM   12  C8  UNL     1      40.008 -19.492 116.799  1.00  0.00     0.175 C 
HETATM   13  N4  UNL     1      40.445 -18.856 117.818  1.00  0.00    -0.252 N 
ATOM     14  H4  UNL     1      39.796 -18.779 118.601  1.00  0.00     0.195 HD
BRANCH   5  15
HETATM   15  O4  UNL     1      40.074 -19.039 114.461  1.00  0.00    -0.372 OA
ATOM     16  H4  UNL     1      39.145 -19.200 114.343  1.00  0.00     0.211 HD
ENDBRANCH   5  15
BRANCH   9  17
HETATM   17  O5  UNL     1      37.664 -19.697 117.577  1.00  0.00    -0.280 OA
ATOM     18  H5  UNL     1      37.650 -18.975 118.196  1.00  0.00     0.245 HD
ENDBRANCH   9  17
BRANCH  13  19
HETATM   19  O6  UNL     1      41.654 -18.271 117.999  1.00  0.00    -0.288 OA
ATOM     20  H6  UNL     1      42.032 -17.922 118.797  1.00  0.00     0.244 HD
ENDBRANCH  13  19
ENDBRANCH   3   5
BRANCH   1  21
HETATM   21  C3  UNL     1      44.217 -18.556 114.941  1.00  0.00     0.278 C 
BRANCH  21  22
HETATM   22  C2  UNL     1      44.682 -17.820 113.723  1.00  0.00     0.290 C 
HETATM   23  O2  UNL     1      44.240 -18.196 112.596  1.00  0.00    -0.262 OA
BRANCH  22  24
HETATM   24  O1  UNL     1      45.555 -16.762 113.729  1.00  0.00    -0.324 OA
HETATM   25  C1  UNL     1      46.825 -16.871 113.076  1.00  0.00     0.213 C 
ENDBRANCH  22  24
ENDBRANCH  21  22
BRANCH  21  26
HETATM   26  C9  UNL     1      44.736 -17.846 116.112  1.00  0.00     0.267 C 
HETATM   27  O7  UNL     1      43.895 -17.176 116.799  1.00  0.00    -0.269 OA
HETATM   28  N5  UNL     1      46.095 -17.871 116.503  1.00  0.00    -0.252 N 
ATOM     29  H5  UNL     1      46.777 -18.405 115.965  1.00  0.00     0.187 HD
BRANCH  28  30
HETATM   30  N6  UNL     1      46.497 -17.151 117.641  1.00  0.00    -0.027 NA
BRANCH  30  31
HETATM   31  N7  UNL     1      46.195 -17.783 118.830  1.00  0.00    -0.329 N 
ATOM     32  H72 UNL     1      46.915 -18.088 119.484  1.00  0.00     0.174 HD
ATOM     33  H71 UNL     1      45.194 -17.911 118.982  1.00  0.00     0.174 HD
ENDBRANCH  30  31
ENDBRANCH  28  30
ENDBRANCH  21  26
ENDBRANCH   1  21
TORSDOF 10
ENDMDL
MODEL 4
REMARK VINA RESULT: -5.598003514      3.305      5.758
REMARK  10 active torsions:
REMARK  status: ('A' for Active; 'I' for Inactive)
REMARK    1  A    between atoms: O1_2  and  C2_3 
REMARK    2  A    between atoms: C2_3  and  C3_5 
REMARK    3  A    between atoms: C3_5  and  N1_6 
REMARK    4  A    between atoms: C3_5  and  C9_26 
REMARK       I    between atoms: N1_6  and  C4_8 
REMARK    5  A    between atoms: C4_8  and  C5_10 
REMARK    6  A    between atoms: C5_10  and  O4_11 
REMARK    7  A    between atoms: N3_18  and  O5_19 
REMARK    8  A    between atoms: N4_22  and  O6_24 
REMARK       I    between atoms: C9_26  and  N5_28 
REMARK    9  A    between atoms: N5_28  and  N6_30 
REMARK   10  A    between atoms: N6_30  and  N7_31 
ROOT
HETATM    1  N1  UNL     1      42.543 -18.496 116.010  1.00  0.00    -0.337 N 
ATOM      2  H1  UNL     1      42.457 -17.546 116.371  1.00  0.00     0.164 HD
HETATM    3  C4  UNL     1      43.834 -18.956 115.683  1.00  0.00     0.261 C 
HETATM    4  O3  UNL     1      43.966 -20.123 115.250  1.00  0.00    -0.270 OA
ENDROOT
BRANCH   3   5
HETATM    5  C5  UNL     1      45.018 -18.118 115.833  1.00  0.00     0.207 C 
HETATM    6  C6  UNL     1      46.234 -18.842 116.377  1.00  0.00     0.134 C 
HETATM    7  C7  UNL     1      47.305 -17.860 116.051  1.00  0.00     0.109 C 
HETATM    8  N2  UNL     1      48.368 -17.597 116.742  1.00  0.00    -0.387 N 
HETATM    9  N3  UNL     1      46.915 -17.274 114.817  1.00  0.00    -0.195 N 
ATOM     10  H22 UNL     1      48.648 -18.018 117.628  1.00  0.00     0.157 HD
ATOM     11  H21 UNL     1      49.102 -16.925 116.519  1.00  0.00     0.157 HD
HETATM   12  C8  UNL     1      45.545 -17.647 114.528  1.00  0.00     0.175 C 
HETATM   13  N4  UNL     1      45.019 -17.540 113.368  1.00  0.00    -0.252 N 
ATOM     14  H4  UNL     1      45.632 -17.179 112.637  1.00  0.00     0.195 HD
BRANCH   5  15
HETATM   15  O4  UNL     1      44.792 -17.047 116.706  1.00  0.00    -0.372 OA
ATOM     16  H4  UNL     1      44.253 -16.373 116.308  1.00  0.00     0.211 HD
ENDBRANCH   5  15
BRANCH   9  17
HETATM   17  O5  UNL     1      47.660 -16.472 113.988  1.00  0.00    -0.280 OA
ATOM     18  H5  UNL     1      48.593 -16.520 113.810  1.00  0.00     0.245 HD
ENDBRANCH   9  17
BRANCH  13  19
HETATM   19  O6  UNL     1      43.756 -17.841 112.978  1.00  0.00    -0.288 OA
ATOM     20  H6  UNL     1      43.113 -17.280 112.562  1.00  0.00     0.244 HD
ENDBRANCH  13  19
ENDBRANCH   3   5
BRANCH   1  21
HETATM   21  C3  UNL     1      41.334 -19.269 115.871  1.00  0.00     0.278 C 
BRANCH  21  22
HETATM   22  C2  UNL     1      40.350 -18.900 116.937  1.00  0.00     0.290 C 
HETATM   23  O2  UNL     1      40.792 -18.351 117.990  1.00  0.00    -0.262 OA
BRANCH  22  24
HETATM   24  O1  UNL     1      38.996 -19.110 116.864  1.00  0.00    -0.324 OA
HETATM   25  C1  UNL     1      38.445 -20.385 117.210  1.00  0.00     0.213 C 
ENDBRANCH  22  24
ENDBRANCH  21  22
BRANCH  21  26
HETATM   26  C9  UNL     1      40.671 -19.094 114.577  1.00  0.00     0.267 C 
HETATM   27  O7  UNL     1      40.044 -20.102 114.109  1.00  0.00    -0.269 OA
HETATM   28  N5  UNL     1      40.697 -17.885 113.842  1.00  0.00    -0.252 N 
ATOM     29  H5  UNL     1      41.192 -17.071 114.206  1.00  0.00     0.187 HD
BRANCH  28  30
HETATM   30  N6  UNL     1      40.034 -17.818 112.605  1.00  0.00    -0.027 NA
BRANCH  30  31
HETATM   31  N7  UNL     1      40.766 -18.333 111.556  1.00  0.00    -0.329 N 
ATOM     32  H72 UNL     1      40.635 -19.285 111.215  1.00  0.00     0.174 HD
ATOM     33  H71 UNL     1      41.440 -17.674 111.165  1.00  0.00     0.174 HD
ENDBRANCH  30  31
ENDBRANCH  28  30
ENDBRANCH  21  26
ENDBRANCH   1  21
TORSDOF 10
ENDMDL
MODEL 5
REMARK VINA RESULT: -5.592190386      2.727      7.243
REMARK  10 active torsions:
REMARK  status: ('A' for Active; 'I' for Inactive)
REMARK    1  A    between atoms: O1_2  and  C2_3 
REMARK    2  A    between atoms: C2_3  and  C3_5 
REMARK    3  A    between atoms: C3_5  and  N1_6 
REMARK    4  A    between atoms: C3_5  and  C9_26 
REMARK       I    between atoms: N1_6  and  C4_8 
REMARK    5  A    between atoms: C4_8  and  C5_10 
REMARK    6  A    between atoms: C5_10  and  O4_11 
REMARK    7  A    between atoms: N3_18  and  O5_19 
REMARK    8  A    between atoms: N4_22  and  O6_24 
REMARK       I    between atoms: C9_26  and  N5_28 
REMARK    9  A    between atoms: N5_28  and  N6_30 
REMARK   10  A    between atoms: N6_30  and  N7_31 
ROOT
HETATM    1  N1  UNL     1      42.199 -20.232 118.357  1.00  0.00    -0.337 N 
ATOM      2  H1  UNL     1      42.615 -21.002 117.833  1.00  0.00     0.164 HD
HETATM    3  C4  UNL     1      41.695 -19.139 117.621  1.00  0.00     0.261 C 
HETATM    4  O3  UNL     1      41.168 -18.189 118.241  1.00  0.00    -0.270 OA
ENDROOT
BRANCH   3   5
HETATM    5  C5  UNL     1      41.768 -19.083 116.166  1.00  0.00     0.207 C 
HETATM    6  C6  UNL     1      42.546 -20.219 115.533  1.00  0.00     0.134 C 
HETATM    7  C7  UNL     1      42.116 -20.087 114.113  1.00  0.00     0.109 C 
HETATM    8  N2  UNL     1      42.824 -20.311 113.052  1.00  0.00    -0.387 N 
HETATM    9  N3  UNL     1      40.760 -19.665 114.169  1.00  0.00    -0.195 N 
ATOM     10  H22 UNL     1      43.798 -20.614 113.013  1.00  0.00     0.157 HD
ATOM     11  H21 UNL     1      42.530 -20.221 112.080  1.00  0.00     0.157 HD
HETATM   12  C8  UNL     1      40.442 -19.275 115.527  1.00  0.00     0.175 C 
HETATM   13  N4  UNL     1      39.245 -19.149 115.959  1.00  0.00    -0.252 N 
ATOM     14  H4  UNL     1      38.509 -19.353 115.283  1.00  0.00     0.195 HD
BRANCH   5  15
HETATM   15  O4  UNL     1      42.382 -17.906 115.720  1.00  0.00    -0.372 OA
ATOM     16  H4  UNL     1      42.866 -18.043 114.913  1.00  0.00     0.211 HD
ENDBRANCH   5  15
BRANCH   9  17
HETATM   17  O5  UNL     1      39.849 -19.608 113.143  1.00  0.00    -0.280 OA
ATOM     18  H5  UNL     1      38.992 -19.197 113.144  1.00  0.00     0.245 HD
ENDBRANCH   9  17
BRANCH  13  19
HETATM   19  O6  UNL     1      38.823 -18.781 117.193  1.00  0.00    -0.288 OA
ATOM     20  H6  UNL     1      38.678 -19.324 117.958  1.00  0.00     0.244 HD
ENDBRANCH  13  19
ENDBRANCH   3   5
BRANCH   1  21
HETATM   21  C3  UNL     1      42.169 -20.340 119.793  1.00  0.00     0.278 C 
BRANCH  21  22
HETATM   22  C2  UNL     1      42.030 -21.771 120.209  1.00  0.00     0.290 C 
HETATM   23  O2  UNL     1      41.960 -22.651 119.299  1.00  0.00    -0.262 OA
BRANCH  22  24
HETATM   24  O1  UNL     1      41.973 -22.211 121.507  1.00  0.00    -0.324 OA
HETATM   25  C1  UNL     1      42.731 -23.356 121.914  1.00  0.00     0.213 C 
ENDBRANCH  22  24
ENDBRANCH  21  22
BRANCH  21  26
HETATM   26  C9  UNL     1      43.365 -19.804 120.447  1.00  0.00     0.267 C 
HETATM   27  O7  UNL     1      44.309 -19.406 119.686  1.00  0.00    -0.269 OA
HETATM   28  N5  UNL     1      43.515 -19.711 121.851  1.00  0.00    -0.252 N 
ATOM     29  H5  UNL     1      42.766 -20.022 122.470  1.00  0.00     0.187 HD
BRANCH  28  30
HETATM   30  N6  UNL     1      44.704 -19.186 122.382  1.00  0.00    -0.027 NA
BRANCH  30  31
HETATM   31  N7  UNL     1      44.791 -17.812 122.292  1.00  0.00    -0.329 N 
ATOM     32  H72 UNL     1      44.834 -17.213 123.116  1.00  0.00     0.174 HD
ATOM     33  H71 UNL     1      44.808 -17.465 121.333  1.00  0.00     0.174 HD
ENDBRANCH  30  31
ENDBRANCH  28  30
ENDBRANCH  21  26
ENDBRANCH   1  21
TORSDOF 10
ENDMDL
