MODEL 1
REMARK VINA RESULT: -6.098822431      0.000      0.000
REMARK  9 active torsions:
REMARK  status: ('A' for Active; 'I' for Inactive)
REMARK    1  A    between atoms: N1_1  and  N2_4 
REMARK       I    between atoms: N2_4  and  C1_6 
REMARK    2  A    between atoms: C1_6  and  C2_8 
REMARK    3  A    between atoms: C2_8  and  C3_9 
REMARK    4  A    between atoms: C2_8  and  N3_13 
REMARK    5  A    between atoms: C3_9  and  C4_10 
REMARK    6  A    between atoms: C4_10  and  O2_11 
REMARK    7  A    between atoms: C9_25  and  C10_26 
REMARK    8  A    between atoms: C10_26  and  O6_27 
REMARK    9  A    between atoms: C10_26  and  O7_29 
ROOT
HETATM    1  N3  UNL     1      42.502 -18.648 114.547  1.00  0.00    -0.270 N 
HETATM    2  C5  UNL     1      43.772 -18.256 114.682  1.00  0.00     0.331 A 
HETATM    3  O3  UNL     1      44.420 -17.853 113.682  1.00  0.00    -0.246 OA
HETATM    4  N4  UNL     1      44.445 -18.254 115.845  1.00  0.00    -0.274 N 
ATOM      5  H4  UNL     1      45.416 -17.943 115.879  1.00  0.00     0.173 HD
HETATM    6  C6  UNL     1      43.828 -18.666 116.956  1.00  0.00     0.269 A 
HETATM    7  O4  UNL     1      44.467 -18.663 118.052  1.00  0.00    -0.267 OA
HETATM    8  C7  UNL     1      42.533 -19.079 116.896  1.00  0.00     0.144 A 
HETATM    9  C8  UNL     1      41.915 -19.494 118.065  1.00  0.00     0.266 A 
HETATM   10  O5  UNL     1      42.575 -19.483 119.145  1.00  0.00    -0.267 OA
HETATM   11  N5  UNL     1      40.635 -19.892 117.992  1.00  0.00    -0.308 N 
ATOM     12  H5  UNL     1      40.150 -20.202 118.834  1.00  0.00     0.170 HD
HETATM   13  C9  UNL     1      39.991 -19.881 116.813  1.00  0.00     0.141 A 
HETATM   14  N6  UNL     1      40.593 -19.474 115.661  1.00  0.00    -0.327 N 
ATOM     15  H6  UNL     1      40.071 -19.478 114.785  1.00  0.00     0.169 HD
HETATM   16  C11 UNL     1      41.872 -19.067 115.676  1.00  0.00     0.135 A 
ENDROOT
BRANCH   1  17
HETATM   17  C2  UNL     1      41.824 -18.637 113.245  1.00  0.00     0.192 C 
BRANCH  17  18
HETATM   18  C1  UNL     1      42.585 -19.426 112.253  1.00  0.00     0.259 C 
HETATM   19  N2  UNL     1      43.122 -18.774 111.127  1.00  0.00    -0.275 N 
ATOM     20  H2  UNL     1      42.971 -17.770 111.025  1.00  0.00     0.189 HD
HETATM   21  O1  UNL     1      42.755 -20.638 112.396  1.00  0.00    -0.269 OA
BRANCH  19  22
HETATM   22  N1  UNL     1      43.861 -19.452 110.133  1.00  0.00    -0.343 N 
ATOM     23  H12 UNL     1      43.358 -20.110 109.538  1.00  0.00     0.176 HD
ATOM     24  H11 UNL     1      44.860 -19.307 109.995  1.00  0.00     0.176 HD
ENDBRANCH  19  22
ENDBRANCH  17  18
BRANCH  17  25
HETATM   25  C3  UNL     1      41.485 -17.251 112.822  1.00  0.00     0.061 C 
BRANCH  25  26
HETATM   26  C4  UNL     1      40.094 -16.939 112.487  1.00  0.00     0.166 C 
BRANCH  26  27
HETATM   27  O2  UNL     1      39.517 -17.948 111.677  1.00  0.00    -0.401 OA
ATOM     28  H2  UNL     1      39.134 -17.582 110.888  1.00  0.00     0.209 HD
ENDBRANCH  26  27
ENDBRANCH  25  26
ENDBRANCH  17  25
ENDBRANCH   1  17
BRANCH  13  29
HETATM   29  C10 UNL     1      38.585 -20.327 116.787  1.00  0.00     0.323 C 
BRANCH  29  30
HETATM   30  O6  UNL     1      38.172 -20.618 115.476  1.00  0.00    -0.365 OA
ATOM     31  H6  UNL     1      37.704 -21.445 115.441  1.00  0.00     0.213 HD
ENDBRANCH  29  30
BRANCH  29  32
HETATM   32  O7  UNL     1      37.721 -19.409 117.377  1.00  0.00    -0.365 OA
ATOM     33  H7  UNL     1      36.839 -19.748 117.477  1.00  0.00     0.213 HD
ENDBRANCH  29  32
ENDBRANCH  13  29
TORSDOF 9
ENDMDL
MODEL 2
REMARK VINA RESULT: -5.928179563      0.749      1.026
REMARK  9 active torsions:
REMARK  status: ('A' for Active; 'I' for Inactive)
REMARK    1  A    between atoms: N1_1  and  N2_4 
REMARK       I    between atoms: N2_4  and  C1_6 
REMARK    2  A    between atoms: C1_6  and  C2_8 
REMARK    3  A    between atoms: C2_8  and  C3_9 
REMARK    4  A    between atoms: C2_8  and  N3_13 
REMARK    5  A    between atoms: C3_9  and  C4_10 
REMARK    6  A    between atoms: C4_10  and  O2_11 
REMARK    7  A    between atoms: C9_25  and  C10_26 
REMARK    8  A    between atoms: C10_26  and  O6_27 
REMARK    9  A    between atoms: C10_26  and  O7_29 
ROOT
HETATM    1  N3  UNL     1      42.774 -19.093 114.415  1.00  0.00    -0.270 N 
HETATM    2  C5  UNL     1      44.077 -18.928 114.663  1.00  0.00     0.331 A 
HETATM    3  O3  UNL     1      44.890 -18.793 113.712  1.00  0.00    -0.246 OA
HETATM    4  N4  UNL     1      44.615 -18.890 115.893  1.00  0.00    -0.274 N 
ATOM      5  H4  UNL     1      45.620 -18.762 116.013  1.00  0.00     0.173 HD
HETATM    6  C6  UNL     1      43.819 -19.024 116.958  1.00  0.00     0.269 A 
HETATM    7  O4  UNL     1      44.331 -18.988 118.118  1.00  0.00    -0.267 OA
HETATM    8  C7  UNL     1      42.480 -19.195 116.783  1.00  0.00     0.144 A 
HETATM    9  C8  UNL     1      41.677 -19.324 117.905  1.00  0.00     0.266 A 
HETATM   10  O5  UNL     1      42.213 -19.286 119.051  1.00  0.00    -0.267 OA
HETATM   11  N5  UNL     1      40.357 -19.484 117.717  1.00  0.00    -0.308 N 
ATOM     12  H5  UNL     1      39.738 -19.581 118.521  1.00  0.00     0.170 HD
HETATM   13  C9  UNL     1      39.851 -19.518 116.473  1.00  0.00     0.141 A 
HETATM   14  N6  UNL     1      40.636 -19.391 115.368  1.00  0.00    -0.327 N 
ATOM     15  H6  UNL     1      40.216 -19.419 114.439  1.00  0.00     0.169 HD
HETATM   16  C11 UNL     1      41.962 -19.229 115.497  1.00  0.00     0.135 A 
ENDROOT
BRANCH   1  17
HETATM   17  C2  UNL     1      42.248 -19.137 113.045  1.00  0.00     0.192 C 
BRANCH  17  18
HETATM   18  C1  UNL     1      42.905 -20.209 112.267  1.00  0.00     0.259 C 
HETATM   19  N2  UNL     1      43.692 -19.860 111.153  1.00  0.00    -0.275 N 
ATOM     20  H2  UNL     1      43.789 -18.874 110.912  1.00  0.00     0.189 HD
HETATM   21  O1  UNL     1      42.774 -21.394 112.576  1.00  0.00    -0.269 OA
BRANCH  19  22
HETATM   22  N1  UNL     1      44.353 -20.820 110.357  1.00  0.00    -0.343 N 
ATOM     23  H12 UNL     1      43.894 -21.721 110.224  1.00  0.00     0.176 HD
ATOM     24  H11 UNL     1      45.258 -20.645 109.920  1.00  0.00     0.176 HD
ENDBRANCH  19  22
ENDBRANCH  17  18
BRANCH  17  25
HETATM   25  C3  UNL     1      42.275 -17.790 112.411  1.00  0.00     0.061 C 
BRANCH  25  26
HETATM   26  C4  UNL     1      41.182 -16.858 112.697  1.00  0.00     0.166 C 
BRANCH  26  27
HETATM   27  O2  UNL     1      40.004 -17.544 113.087  1.00  0.00    -0.401 OA
ATOM     28  H2  UNL     1      39.535 -17.882 112.333  1.00  0.00     0.209 HD
ENDBRANCH  26  27
ENDBRANCH  25  26
ENDBRANCH  17  25
ENDBRANCH   1  17
BRANCH  13  29
HETATM   29  C10 UNL     1      38.395 -19.696 116.322  1.00  0.00     0.323 C 
BRANCH  29  30
HETATM   30  O6  UNL     1      37.750 -19.664 117.570  1.00  0.00    -0.365 OA
ATOM     31  H6  UNL     1      37.477 -20.535 117.835  1.00  0.00     0.213 HD
ENDBRANCH  29  30
BRANCH  29  32
HETATM   32  O7  UNL     1      38.066 -20.860 115.633  1.00  0.00    -0.365 OA
ATOM     33  H7  UNL     1      38.084 -21.630 116.188  1.00  0.00     0.213 HD
ENDBRANCH  29  32
ENDBRANCH  13  29
TORSDOF 9
ENDMDL
MODEL 3
REMARK VINA RESULT: -5.878084335      1.554      2.132
REMARK  9 active torsions:
REMARK  status: ('A' for Active; 'I' for Inactive)
REMARK    1  A    between atoms: N1_1  and  N2_4 
REMARK       I    between atoms: N2_4  and  C1_6 
REMARK    2  A    between atoms: C1_6  and  C2_8 
REMARK    3  A    between atoms: C2_8  and  C3_9 
REMARK    4  A    between atoms: C2_8  and  N3_13 
REMARK    5  A    between atoms: C3_9  and  C4_10 
REMARK    6  A    between atoms: C4_10  and  O2_11 
REMARK    7  A    between atoms: C9_25  and  C10_26 
REMARK    8  A    between atoms: C10_26  and  O6_27 
REMARK    9  A    between atoms: C10_26  and  O7_29 
ROOT
HETATM    1  N3  UNL     1      42.661 -19.605 115.035  1.00  0.00    -0.270 N 
HETATM    2  C5  UNL     1      43.965 -19.364 115.193  1.00  0.00     0.331 A 
HETATM    3  O3  UNL     1      44.712 -19.236 114.188  1.00  0.00    -0.246 OA
HETATM    4  N4  UNL     1      44.574 -19.240 116.384  1.00  0.00    -0.274 N 
ATOM      5  H4  UNL     1      45.576 -19.057 116.435  1.00  0.00     0.173 HD
HETATM    6  C6  UNL     1      43.851 -19.361 117.502  1.00  0.00     0.269 A 
HETATM    7  O4  UNL     1      44.429 -19.243 118.625  1.00  0.00    -0.267 OA
HETATM    8  C7  UNL     1      42.515 -19.605 117.419  1.00  0.00     0.144 A 
HETATM    9  C8  UNL     1      41.788 -19.718 118.593  1.00  0.00     0.266 A 
HETATM   10  O5  UNL     1      42.389 -19.598 119.701  1.00  0.00    -0.267 OA
HETATM   11  N5  UNL     1      40.470 -19.951 118.495  1.00  0.00    -0.308 N 
ATOM     12  H5  UNL     1      39.905 -20.039 119.340  1.00  0.00     0.170 HD
HETATM   13  C9  UNL     1      39.892 -20.070 117.288  1.00  0.00     0.141 A 
HETATM   14  N6  UNL     1      40.602 -19.959 116.131  1.00  0.00    -0.327 N 
ATOM     15  H6  UNL     1      40.129 -20.053 115.233  1.00  0.00     0.169 HD
HETATM   16  C11 UNL     1      41.923 -19.727 116.170  1.00  0.00     0.135 A 
ENDROOT
BRANCH   1  17
HETATM   17  C2  UNL     1      42.056 -19.741 113.704  1.00  0.00     0.192 C 
BRANCH  17  18
HETATM   18  C1  UNL     1      41.202 -18.574 113.395  1.00  0.00     0.259 C 
HETATM   19  N2  UNL     1      41.733 -17.525 112.621  1.00  0.00    -0.275 N 
ATOM     20  H2  UNL     1      42.695 -17.598 112.292  1.00  0.00     0.189 HD
HETATM   21  O1  UNL     1      40.042 -18.506 113.804  1.00  0.00    -0.269 OA
BRANCH  19  22
HETATM   22  N1  UNL     1      40.986 -16.376 112.281  1.00  0.00    -0.343 N 
ATOM     23  H12 UNL     1      41.310 -15.818 111.492  1.00  0.00     0.176 HD
ATOM     24  H11 UNL     1      40.150 -16.092 112.791  1.00  0.00     0.176 HD
ENDBRANCH  19  22
ENDBRANCH  17  18
BRANCH  17  25
HETATM   25  C3  UNL     1      41.398 -21.066 113.541  1.00  0.00     0.061 C 
BRANCH  25  26
HETATM   26  C4  UNL     1      40.114 -21.130 112.838  1.00  0.00     0.166 C 
BRANCH  26  27
HETATM   27  O2  UNL     1      39.029 -21.195 113.747  1.00  0.00    -0.401 OA
ATOM     28  H2  UNL     1      39.291 -20.924 114.620  1.00  0.00     0.209 HD
ENDBRANCH  26  27
ENDBRANCH  25  26
ENDBRANCH  17  25
ENDBRANCH   1  17
BRANCH  13  29
HETATM   29  C10 UNL     1      38.441 -20.326 117.236  1.00  0.00     0.323 C 
BRANCH  29  30
HETATM   30  O6  UNL     1      38.170 -21.587 116.680  1.00  0.00    -0.365 OA
ATOM     31  H6  UNL     1      37.640 -22.113 117.269  1.00  0.00     0.213 HD
ENDBRANCH  29  30
BRANCH  29  32
HETATM   32  O7  UNL     1      37.746 -19.333 116.552  1.00  0.00    -0.365 OA
ATOM     33  H7  UNL     1      36.910 -19.636 116.216  1.00  0.00     0.213 HD
ENDBRANCH  29  32
ENDBRANCH  13  29
TORSDOF 9
ENDMDL
MODEL 4
REMARK VINA RESULT: -5.817401451      2.193      2.960
REMARK  9 active torsions:
REMARK  status: ('A' for Active; 'I' for Inactive)
REMARK    1  A    between atoms: N1_1  and  N2_4 
REMARK       I    between atoms: N2_4  and  C1_6 
REMARK    2  A    between atoms: C1_6  and  C2_8 
REMARK    3  A    between atoms: C2_8  and  C3_9 
REMARK    4  A    between atoms: C2_8  and  N3_13 
REMARK    5  A    between atoms: C3_9  and  C4_10 
REMARK    6  A    between atoms: C4_10  and  O2_11 
REMARK    7  A    between atoms: C9_25  and  C10_26 
REMARK    8  A    between atoms: C10_26  and  O6_27 
REMARK    9  A    between atoms: C10_26  and  O7_29 
ROOT
HETATM    1  N3  UNL     1      42.070 -19.874 113.617  1.00  0.00    -0.270 N 
HETATM    2  C5  UNL     1      43.057 -20.594 113.077  1.00  0.00     0.331 A 
HETATM    3  O3  UNL     1      43.648 -20.185 112.045  1.00  0.00    -0.246 OA
HETATM    4  N4  UNL     1      43.491 -21.769 113.564  1.00  0.00    -0.274 N 
ATOM      5  H4  UNL     1      44.249 -22.270 113.102  1.00  0.00     0.173 HD
HETATM    6  C6  UNL     1      42.916 -22.273 114.660  1.00  0.00     0.269 A 
HETATM    7  O4  UNL     1      43.329 -23.383 115.117  1.00  0.00    -0.267 OA
HETATM    8  C7  UNL     1      41.905 -21.594 115.266  1.00  0.00     0.144 A 
HETATM    9  C8  UNL     1      41.332 -22.136 116.405  1.00  0.00     0.266 A 
HETATM   10  O5  UNL     1      41.761 -23.245 116.840  1.00  0.00    -0.267 OA
HETATM   11  N5  UNL     1      40.341 -21.451 116.996  1.00  0.00    -0.308 N 
ATOM     12  H5  UNL     1      39.898 -21.821 117.837  1.00  0.00     0.170 HD
HETATM   13  C9  UNL     1      39.930 -20.279 116.484  1.00  0.00     0.141 A 
HETATM   14  N6  UNL     1      40.490 -19.742 115.365  1.00  0.00    -0.327 N 
ATOM     15  H6  UNL     1      40.153 -18.848 115.006  1.00  0.00     0.169 HD
HETATM   16  C11 UNL     1      41.484 -20.384 114.733  1.00  0.00     0.135 A 
ENDROOT
BRANCH   1  17
HETATM   17  C2  UNL     1      41.633 -18.600 113.031  1.00  0.00     0.192 C 
BRANCH  17  18
HETATM   18  C1  UNL     1      40.927 -18.829 111.753  1.00  0.00     0.259 C 
HETATM   19  N2  UNL     1      41.647 -18.734 110.547  1.00  0.00    -0.275 N 
ATOM     20  H2  UNL     1      42.641 -18.508 110.587  1.00  0.00     0.189 HD
HETATM   21  O1  UNL     1      39.725 -19.100 111.727  1.00  0.00    -0.269 OA
BRANCH  19  22
HETATM   22  N1  UNL     1      41.050 -18.937 109.284  1.00  0.00    -0.343 N 
ATOM     23  H12 UNL     1      41.180 -19.847 108.841  1.00  0.00     0.176 HD
ATOM     24  H11 UNL     1      40.504 -18.218 108.810  1.00  0.00     0.176 HD
ENDBRANCH  19  22
ENDBRANCH  17  18
BRANCH  17  25
HETATM   25  C3  UNL     1      42.752 -17.621 112.967  1.00  0.00     0.061 C 
BRANCH  25  26
HETATM   26  C4  UNL     1      43.435 -17.253 114.209  1.00  0.00     0.166 C 
BRANCH  26  27
HETATM   27  O2  UNL     1      43.008 -15.986 114.679  1.00  0.00    -0.401 OA
ATOM     28  H2  UNL     1      42.267 -16.067 115.268  1.00  0.00     0.209 HD
ENDBRANCH  26  27
ENDBRANCH  25  26
ENDBRANCH  17  25
ENDBRANCH   1  17
BRANCH  13  29
HETATM   29  C10 UNL     1      38.838 -19.566 117.172  1.00  0.00     0.323 C 
BRANCH  29  30
HETATM   30  O6  UNL     1      37.678 -19.532 116.379  1.00  0.00    -0.365 OA
ATOM     31  H6  UNL     1      37.869 -19.790 115.485  1.00  0.00     0.213 HD
ENDBRANCH  29  30
BRANCH  29  32
HETATM   32  O7  UNL     1      39.199 -18.279 117.561  1.00  0.00    -0.365 OA
ATOM     33  H7  UNL     1      39.774 -17.856 116.934  1.00  0.00     0.213 HD
ENDBRANCH  29  32
ENDBRANCH  13  29
TORSDOF 9
ENDMDL
MODEL 5
REMARK VINA RESULT: -5.807699232      2.016      5.720
REMARK  9 active torsions:
REMARK  status: ('A' for Active; 'I' for Inactive)
REMARK    1  A    between atoms: N1_1  and  N2_4 
REMARK       I    between atoms: N2_4  and  C1_6 
REMARK    2  A    between atoms: C1_6  and  C2_8 
REMARK    3  A    between atoms: C2_8  and  C3_9 
REMARK    4  A    between atoms: C2_8  and  N3_13 
REMARK    5  A    between atoms: C3_9  and  C4_10 
REMARK    6  A    between atoms: C4_10  and  O2_11 
REMARK    7  A    between atoms: C9_25  and  C10_26 
REMARK    8  A    between atoms: C10_26  and  O6_27 
REMARK    9  A    between atoms: C10_26  and  O7_29 
ROOT
HETATM    1  N3  UNL     1      41.491 -20.751 116.249  1.00  0.00    -0.270 N 
HETATM    2  C5  UNL     1      42.135 -21.871 116.588  1.00  0.00     0.331 A 
HETATM    3  O3  UNL     1      42.080 -22.300 117.770  1.00  0.00    -0.246 OA
HETATM    4  N4  UNL     1      42.866 -22.612 115.739  1.00  0.00    -0.274 N 
ATOM      5  H4  UNL     1      43.334 -23.458 116.063  1.00  0.00     0.173 HD
HETATM    6  C6  UNL     1      42.973 -22.226 114.464  1.00  0.00     0.269 A 
HETATM    7  O4  UNL     1      43.664 -22.928 113.664  1.00  0.00    -0.267 OA
HETATM    8  C7  UNL     1      42.343 -21.095 114.045  1.00  0.00     0.144 A 
HETATM    9  C8  UNL     1      42.466 -20.723 112.716  1.00  0.00     0.266 A 
HETATM   10  O5  UNL     1      43.162 -21.439 111.939  1.00  0.00    -0.267 OA
HETATM   11  N5  UNL     1      41.833 -19.608 112.316  1.00  0.00    -0.308 N 
ATOM     12  H5  UNL     1      41.901 -19.306 111.344  1.00  0.00     0.170 HD
HETATM   13  C9  UNL     1      41.110 -18.890 113.191  1.00  0.00     0.141 A 
HETATM   14  N6  UNL     1      40.986 -19.252 114.498  1.00  0.00    -0.327 N 
ATOM     15  H6  UNL     1      40.427 -18.683 115.133  1.00  0.00     0.169 HD
HETATM   16  C11 UNL     1      41.598 -20.357 114.953  1.00  0.00     0.135 A 
ENDROOT
BRANCH   1  17
HETATM   17  C2  UNL     1      40.716 -19.978 117.229  1.00  0.00     0.192 C 
BRANCH  17  18
HETATM   18  C1  UNL     1      41.546 -19.645 118.406  1.00  0.00     0.259 C 
HETATM   19  N2  UNL     1      41.127 -20.072 119.680  1.00  0.00    -0.275 N 
ATOM     20  H2  UNL     1      40.259 -20.602 119.758  1.00  0.00     0.189 HD
HETATM   21  O1  UNL     1      42.591 -19.004 118.289  1.00  0.00    -0.269 OA
BRANCH  19  22
HETATM   22  N1  UNL     1      41.860 -19.797 120.855  1.00  0.00    -0.343 N 
ATOM     23  H12 UNL     1      42.063 -20.578 121.479  1.00  0.00     0.176 HD
ATOM     24  H11 UNL     1      42.186 -18.861 121.094  1.00  0.00     0.176 HD
ENDBRANCH  19  22
ENDBRANCH  17  18
BRANCH  17  25
HETATM   25  C3  UNL     1      39.420 -20.641 117.538  1.00  0.00     0.061 C 
BRANCH  25  26
HETATM   26  C4  UNL     1      38.198 -20.113 116.926  1.00  0.00     0.166 C 
BRANCH  26  27
HETATM   27  O2  UNL     1      38.435 -18.873 116.282  1.00  0.00    -0.401 OA
ATOM     28  H2  UNL     1      38.276 -18.142 116.868  1.00  0.00     0.209 HD
ENDBRANCH  26  27
ENDBRANCH  25  26
ENDBRANCH  17  25
ENDBRANCH   1  17
BRANCH  13  29
HETATM   29  C10 UNL     1      40.434 -17.674 112.700  1.00  0.00     0.323 C 
BRANCH  29  30
HETATM   30  O6  UNL     1      39.549 -17.977 111.651  1.00  0.00    -0.365 OA
ATOM     31  H6  UNL     1      39.571 -17.305 110.981  1.00  0.00     0.213 HD
ENDBRANCH  29  30
BRANCH  29  32
HETATM   32  O7  UNL     1      41.330 -16.684 112.310  1.00  0.00    -0.365 OA
ATOM     33  H7  UNL     1      41.048 -16.222 111.529  1.00  0.00     0.213 HD
ENDBRANCH  29  32
ENDBRANCH  13  29
TORSDOF 9
ENDMDL
