MODEL 1
REMARK VINA RESULT: -6.523675551      0.000      0.000
REMARK  10 active torsions:
REMARK  status: ('A' for Active; 'I' for Inactive)
REMARK       I    between atoms: C1_2  and  N7_29 
REMARK    1  A    between atoms: N2_3  and  N3_5 
REMARK    2  A    between atoms: N4_9  and  O1_10 
REMARK    3  A    between atoms: C4_12  and  C5_13 
REMARK    4  A    between atoms: C5_13  and  C6_14 
REMARK    5  A    between atoms: N6_20  and  O3_21 
REMARK    6  A    between atoms: C9_23  and  O4_24 
REMARK    7  A    between atoms: C10_26  and  O5_27 
REMARK    8  A    between atoms: N7_29  and  N8_31 
REMARK    9  A    between atoms: N8_31  and  N9_32 
REMARK   10  A    between atoms: N8_31  and  O6_35 
ROOT
HETATM    1  N3  UNL     1      43.060 -19.411 117.081  1.00  0.00    -0.303 N 
ATOM      2  H3  UNL     1      42.567 -19.991 117.761  1.00  0.00     0.186 HD
HETATM    3  C2  UNL     1      44.301 -19.165 117.285  1.00  0.00     0.050 C 
HETATM    4  C3  UNL     1      45.037 -18.346 116.341  1.00  0.00     0.177 C 
HETATM    5  N4  UNL     1      46.036 -17.496 116.906  1.00  0.00    -0.187 NA
HETATM    6  C4  UNL     1      46.549 -17.901 118.170  1.00  0.00     0.123 C 
HETATM    7  C9  UNL     1      46.468 -19.417 118.309  1.00  0.00     0.173 C 
HETATM    8  C10 UNL     1      44.972 -19.721 118.480  1.00  0.00     0.196 C 
ENDROOT
BRANCH   1   9
HETATM    9  N2  UNL     1      42.347 -18.932 115.985  1.00  0.00    -0.273 N 
HETATM   10  C1  UNL     1      41.076 -19.110 115.844  1.00  0.00     0.221 C 
HETATM   11  N1  UNL     1      40.354 -18.618 114.721  1.00  0.00    -0.061 NA
HETATM   12  N7  UNL     1      40.342 -19.817 116.827  1.00  0.00    -0.250 N 
ATOM     13  H7  UNL     1      40.728 -20.669 117.234  1.00  0.00     0.187 HD
ATOM     14  H2  UNL     1      42.851 -18.419 115.262  1.00  0.00     0.189 HD
BRANCH  12  15
HETATM   15  N8  UNL     1      39.104 -19.357 117.236  1.00  0.00    -0.009 NA
BRANCH  15  16
HETATM   16  N9  UNL     1      38.154 -19.624 116.272  1.00  0.00    -0.322 NA
ATOM     17  H92 UNL     1      37.228 -19.465 116.667  1.00  0.00     0.175 HD
ATOM     18  H91 UNL     1      38.334 -19.065 115.438  1.00  0.00     0.175 HD
ENDBRANCH  15  16
BRANCH  15  19
HETATM   19  O6  UNL     1      39.094 -18.031 117.507  1.00  0.00    -0.276 OA
ATOM     20  H6  UNL     1      38.228 -17.644 117.443  1.00  0.00     0.241 HD
ENDBRANCH  15  19
ENDBRANCH  12  15
ENDBRANCH   1   9
BRANCH   8  21
HETATM   21  O5  UNL     1      44.593 -19.019 119.646  1.00  0.00    -0.387 OA
ATOM     22  H5  UNL     1      44.827 -19.506 120.427  1.00  0.00     0.210 HD
ENDBRANCH   8  21
BRANCH   5  23
HETATM   23  O1  UNL     1      46.998 -17.331 115.967  1.00  0.00    -0.312 OA
ATOM     24  H1  UNL     1      47.602 -16.675 116.297  1.00  0.00     0.237 HD
ENDBRANCH   5  23
BRANCH   7  25
HETATM   25  O4  UNL     1      47.212 -19.892 119.365  1.00  0.00    -0.391 OA
ATOM     26  H4  UNL     1      46.907 -20.735 119.677  1.00  0.00     0.210 HD
ENDBRANCH   7  25
BRANCH   6  27
HETATM   27  C5  UNL     1      47.979 -17.512 118.313  1.00  0.00     0.086 C 
BRANCH  27  28
HETATM   28  C6  UNL     1      48.190 -16.419 119.295  1.00  0.00     0.062 A 
HETATM   29  C7  UNL     1      48.409 -15.094 119.122  1.00  0.00     0.120 A 
HETATM   30  N5  UNL     1      48.536 -14.538 120.331  1.00  0.00    -0.315 N 
HETATM   31  C8  UNL     1      48.401 -15.499 121.289  1.00  0.00     0.350 A 
ATOM     32  H5  UNL     1      48.708 -13.549 120.510  1.00  0.00     0.170 HD
HETATM   33  O2  UNL     1      48.465 -15.326 122.541  1.00  0.00    -0.244 OA
HETATM   34  N6  UNL     1      48.189 -16.648 120.623  1.00  0.00    -0.176 N 
BRANCH  34  35
HETATM   35  O3  UNL     1      48.002 -17.858 121.280  1.00  0.00    -0.279 OA
ATOM     36  H3  UNL     1      48.538 -18.237 121.967  1.00  0.00     0.245 HD
ENDBRANCH  34  35
ENDBRANCH  27  28
ENDBRANCH   6  27
TORSDOF 10
ENDMDL
MODEL 2
REMARK VINA RESULT: -6.378082074      4.626      6.719
REMARK  10 active torsions:
REMARK  status: ('A' for Active; 'I' for Inactive)
REMARK       I    between atoms: C1_2  and  N7_29 
REMARK    1  A    between atoms: N2_3  and  N3_5 
REMARK    2  A    between atoms: N4_9  and  O1_10 
REMARK    3  A    between atoms: C4_12  and  C5_13 
REMARK    4  A    between atoms: C5_13  and  C6_14 
REMARK    5  A    between atoms: N6_20  and  O3_21 
REMARK    6  A    between atoms: C9_23  and  O4_24 
REMARK    7  A    between atoms: C10_26  and  O5_27 
REMARK    8  A    between atoms: N7_29  and  N8_31 
REMARK    9  A    between atoms: N8_31  and  N9_32 
REMARK   10  A    between atoms: N8_31  and  O6_35 
ROOT
HETATM    1  N3  UNL     1      37.587 -21.760 116.524  1.00  0.00    -0.303 N 
ATOM      2  H3  UNL     1      36.779 -21.206 116.808  1.00  0.00     0.186 HD
HETATM    3  C2  UNL     1      38.754 -21.256 116.690  1.00  0.00     0.050 C 
HETATM    4  C3  UNL     1      39.928 -22.015 116.299  1.00  0.00     0.177 C 
HETATM    5  N4  UNL     1      41.013 -21.249 115.774  1.00  0.00    -0.187 NA
HETATM    6  C4  UNL     1      41.047 -19.880 116.162  1.00  0.00     0.123 C 
HETATM    7  C9  UNL     1      40.395 -19.704 117.529  1.00  0.00     0.173 C 
HETATM    8  C10 UNL     1      38.894 -19.908 117.281  1.00  0.00     0.196 C 
ENDROOT
BRANCH   1   9
HETATM    9  N2  UNL     1      37.360 -23.020 115.977  1.00  0.00    -0.273 N 
HETATM   10  C1  UNL     1      36.928 -23.194 114.773  1.00  0.00     0.221 C 
HETATM   11  N1  UNL     1      36.698 -24.486 114.222  1.00  0.00    -0.061 NA
HETATM   12  N7  UNL     1      36.665 -22.079 113.943  1.00  0.00    -0.250 N 
ATOM     13  H7  UNL     1      36.188 -21.262 114.324  1.00  0.00     0.187 HD
ATOM     14  H2  UNL     1      37.542 -23.842 116.554  1.00  0.00     0.189 HD
BRANCH  12  15
HETATM   15  N8  UNL     1      37.052 -22.092 112.615  1.00  0.00    -0.009 NA
BRANCH  15  16
HETATM   16  N9  UNL     1      38.402 -22.362 112.516  1.00  0.00    -0.322 NA
ATOM     17  H92 UNL     1      38.642 -23.094 113.184  1.00  0.00     0.175 HD
ATOM     18  H91 UNL     1      38.642 -22.605 111.555  1.00  0.00     0.175 HD
ENDBRANCH  15  16
BRANCH  15  19
HETATM   19  O6  UNL     1      36.789 -20.929 111.973  1.00  0.00    -0.276 OA
ATOM     20  H6  UNL     1      37.230 -20.859 111.135  1.00  0.00     0.241 HD
ENDBRANCH  15  19
ENDBRANCH  12  15
ENDBRANCH   1   9
BRANCH   8  21
HETATM   21  O5  UNL     1      38.543 -18.907 116.348  1.00  0.00    -0.387 OA
ATOM     22  H5  UNL     1      37.740 -18.470 116.604  1.00  0.00     0.210 HD
ENDBRANCH   8  21
BRANCH   5  23
HETATM   23  O1  UNL     1      42.153 -21.917 116.068  1.00  0.00    -0.312 OA
ATOM     24  H1  UNL     1      42.828 -21.588 115.486  1.00  0.00     0.237 HD
ENDBRANCH   5  23
BRANCH   7  25
HETATM   25  O4  UNL     1      40.662 -18.475 118.087  1.00  0.00    -0.391 OA
ATOM     26  H4  UNL     1      39.911 -17.893 118.062  1.00  0.00     0.210 HD
ENDBRANCH   7  25
BRANCH   6  27
HETATM   27  C5  UNL     1      42.451 -19.394 116.266  1.00  0.00     0.086 C 
BRANCH  27  28
HETATM   28  C6  UNL     1      42.770 -18.321 115.292  1.00  0.00     0.062 A 
HETATM   29  C7  UNL     1      42.368 -18.128 114.013  1.00  0.00     0.120 A 
HETATM   30  N5  UNL     1      42.941 -17.006 113.567  1.00  0.00    -0.315 N 
HETATM   31  C8  UNL     1      43.714 -16.469 114.554  1.00  0.00     0.350 A 
ATOM     32  H5  UNL     1      42.819 -16.612 112.635  1.00  0.00     0.170 HD
HETATM   33  O2  UNL     1      44.398 -15.407 114.478  1.00  0.00    -0.244 OA
HETATM   34  N6  UNL     1      43.590 -17.299 115.605  1.00  0.00    -0.176 N 
BRANCH  34  35
HETATM   35  O3  UNL     1      44.245 -17.068 116.808  1.00  0.00    -0.279 OA
ATOM     36  H3  UNL     1      44.667 -16.268 117.098  1.00  0.00     0.245 HD
ENDBRANCH  34  35
ENDBRANCH  27  28
ENDBRANCH   6  27
TORSDOF 10
ENDMDL
MODEL 3
REMARK VINA RESULT: -6.376835281      6.215      8.040
REMARK  10 active torsions:
REMARK  status: ('A' for Active; 'I' for Inactive)
REMARK       I    between atoms: C1_2  and  N7_29 
REMARK    1  A    between atoms: N2_3  and  N3_5 
REMARK    2  A    between atoms: N4_9  and  O1_10 
REMARK    3  A    between atoms: C4_12  and  C5_13 
REMARK    4  A    between atoms: C5_13  and  C6_14 
REMARK    5  A    between atoms: N6_20  and  O3_21 
REMARK    6  A    between atoms: C9_23  and  O4_24 
REMARK    7  A    between atoms: C10_26  and  O5_27 
REMARK    8  A    between atoms: N7_29  and  N8_31 
REMARK    9  A    between atoms: N8_31  and  N9_32 
REMARK   10  A    between atoms: N8_31  and  O6_35 
ROOT
HETATM    1  N3  UNL     1      37.569 -22.359 116.556  1.00  0.00    -0.303 N 
ATOM      2  H3  UNL     1      36.779 -22.039 117.116  1.00  0.00     0.186 HD
HETATM    3  C2  UNL     1      38.589 -21.590 116.453  1.00  0.00     0.050 C 
HETATM    4  C3  UNL     1      39.732 -22.011 115.665  1.00  0.00     0.177 C 
HETATM    5  N4  UNL     1      40.412 -20.973 114.958  1.00  0.00    -0.187 NA
HETATM    6  C4  UNL     1      40.252 -19.660 115.484  1.00  0.00     0.123 C 
HETATM    7  C9  UNL     1      40.014 -19.722 116.988  1.00  0.00     0.173 C 
HETATM    8  C10 UNL     1      38.592 -20.281 117.142  1.00  0.00     0.196 C 
ENDROOT
BRANCH   1   9
HETATM    9  N2  UNL     1      37.477 -23.607 115.944  1.00  0.00    -0.273 N 
HETATM   10  C1  UNL     1      36.466 -23.963 115.226  1.00  0.00     0.221 C 
HETATM   11  N1  UNL     1      36.380 -25.240 114.604  1.00  0.00    -0.061 NA
HETATM   12  N7  UNL     1      35.383 -23.073 115.029  1.00  0.00    -0.250 N 
ATOM     13  H7  UNL     1      35.026 -22.525 115.811  1.00  0.00     0.187 HD
ATOM     14  H2  UNL     1      38.244 -24.269 116.070  1.00  0.00     0.189 HD
BRANCH  12  15
HETATM   15  N8  UNL     1      34.807 -22.942 113.778  1.00  0.00    -0.009 NA
BRANCH  15  16
HETATM   16  N9  UNL     1      35.787 -22.829 112.813  1.00  0.00    -0.322 NA
ATOM     17  H92 UNL     1      36.701 -22.853 113.265  1.00  0.00     0.175 HD
ATOM     18  H91 UNL     1      35.672 -23.557 112.108  1.00  0.00     0.175 HD
ENDBRANCH  15  16
BRANCH  15  19
HETATM   19  O6  UNL     1      33.975 -21.879 113.685  1.00  0.00    -0.276 OA
ATOM     20  H6  UNL     1      34.045 -21.286 114.424  1.00  0.00     0.241 HD
ENDBRANCH  15  19
ENDBRANCH  12  15
ENDBRANCH   1   9
BRANCH   8  21
HETATM   21  O5  UNL     1      37.766 -19.353 116.470  1.00  0.00    -0.387 OA
ATOM     22  H5  UNL     1      36.848 -19.577 116.573  1.00  0.00     0.210 HD
ENDBRANCH   8  21
BRANCH   5  23
HETATM   23  O1  UNL     1      41.707 -21.350 114.843  1.00  0.00    -0.312 OA
ATOM     24  H1  UNL     1      42.240 -20.597 115.072  1.00  0.00     0.237 HD
ENDBRANCH   5  23
BRANCH   7  25
HETATM   25  O4  UNL     1      40.152 -18.495 117.597  1.00  0.00    -0.391 OA
ATOM     26  H4  UNL     1      39.934 -18.520 118.521  1.00  0.00     0.210 HD
ENDBRANCH   7  25
BRANCH   6  27
HETATM   27  C5  UNL     1      41.477 -18.845 115.256  1.00  0.00     0.086 C 
BRANCH  27  28
HETATM   28  C6  UNL     1      41.580 -18.323 113.870  1.00  0.00     0.062 A 
HETATM   29  C7  UNL     1      40.777 -17.487 113.170  1.00  0.00     0.120 A 
HETATM   30  N5  UNL     1      41.311 -17.326 111.955  1.00  0.00    -0.315 N 
HETATM   31  C8  UNL     1      42.460 -18.055 111.865  1.00  0.00     0.350 A 
ATOM     32  H5  UNL     1      40.921 -16.748 111.212  1.00  0.00     0.170 HD
HETATM   33  O2  UNL     1      43.223 -18.134 110.858  1.00  0.00    -0.244 OA
HETATM   34  N6  UNL     1      42.602 -18.659 113.059  1.00  0.00    -0.176 N 
BRANCH  34  35
HETATM   35  O3  UNL     1      43.675 -19.495 113.339  1.00  0.00    -0.279 OA
ATOM     36  H3  UNL     1      44.546 -19.474 112.959  1.00  0.00     0.245 HD
ENDBRANCH  34  35
ENDBRANCH  27  28
ENDBRANCH   6  27
TORSDOF 10
ENDMDL
MODEL 4
REMARK VINA RESULT: -6.306707455      4.600      6.915
REMARK  10 active torsions:
REMARK  status: ('A' for Active; 'I' for Inactive)
REMARK       I    between atoms: C1_2  and  N7_29 
REMARK    1  A    between atoms: N2_3  and  N3_5 
REMARK    2  A    between atoms: N4_9  and  O1_10 
REMARK    3  A    between atoms: C4_12  and  C5_13 
REMARK    4  A    between atoms: C5_13  and  C6_14 
REMARK    5  A    between atoms: N6_20  and  O3_21 
REMARK    6  A    between atoms: C9_23  and  O4_24 
REMARK    7  A    between atoms: C10_26  and  O5_27 
REMARK    8  A    between atoms: N7_29  and  N8_31 
REMARK    9  A    between atoms: N8_31  and  N9_32 
REMARK   10  A    between atoms: N8_31  and  O6_35 
ROOT
HETATM    1  N3  UNL     1      37.791 -22.090 116.607  1.00  0.00    -0.303 N 
ATOM      2  H3  UNL     1      36.904 -21.605 116.739  1.00  0.00     0.186 HD
HETATM    3  C2  UNL     1      38.874 -21.440 116.826  1.00  0.00     0.050 C 
HETATM    4  C3  UNL     1      40.156 -22.097 116.650  1.00  0.00     0.177 C 
HETATM    5  N4  UNL     1      41.208 -21.273 116.147  1.00  0.00    -0.187 NA
HETATM    6  C4  UNL     1      41.058 -19.875 116.366  1.00  0.00     0.123 C 
HETATM    7  C9  UNL     1      40.241 -19.626 117.629  1.00  0.00     0.173 C 
HETATM    8  C10 UNL     1      38.806 -20.028 117.259  1.00  0.00     0.196 C 
ENDROOT
BRANCH   1   9
HETATM    9  N2  UNL     1      37.758 -23.421 116.198  1.00  0.00    -0.273 N 
HETATM   10  C1  UNL     1      36.767 -23.929 115.545  1.00  0.00     0.221 C 
HETATM   11  N1  UNL     1      36.740 -25.290 115.131  1.00  0.00    -0.061 NA
HETATM   12  N7  UNL     1      35.648 -23.128 115.211  1.00  0.00    -0.250 N 
ATOM     13  H7  UNL     1      35.263 -22.481 115.899  1.00  0.00     0.187 HD
ATOM     14  H2  UNL     1      38.551 -24.021 116.425  1.00  0.00     0.189 HD
BRANCH  12  15
HETATM   15  N8  UNL     1      35.075 -23.220 113.956  1.00  0.00    -0.009 NA
BRANCH  15  16
HETATM   16  N9  UNL     1      34.497 -22.017 113.607  1.00  0.00    -0.322 NA
ATOM     17  H92 UNL     1      33.577 -21.954 114.042  1.00  0.00     0.175 HD
ATOM     18  H91 UNL     1      35.112 -21.244 113.863  1.00  0.00     0.175 HD
ENDBRANCH  15  16
BRANCH  15  19
HETATM   19  O6  UNL     1      34.143 -24.197 113.868  1.00  0.00    -0.276 OA
ATOM     20  H6  UNL     1      33.459 -24.118 114.524  1.00  0.00     0.241 HD
ENDBRANCH  15  19
ENDBRANCH  12  15
ENDBRANCH   1   9
BRANCH   8  21
HETATM   21  O5  UNL     1      38.462 -19.183 116.181  1.00  0.00    -0.387 OA
ATOM     22  H5  UNL     1      39.185 -18.612 115.951  1.00  0.00     0.210 HD
ENDBRANCH   8  21
BRANCH   5  23
HETATM   23  O1  UNL     1      42.371 -21.769 116.633  1.00  0.00    -0.312 OA
ATOM     24  H1  UNL     1      42.996 -21.054 116.650  1.00  0.00     0.237 HD
ENDBRANCH   5  23
BRANCH   7  25
HETATM   25  O4  UNL     1      40.315 -18.320 118.057  1.00  0.00    -0.391 OA
ATOM     26  H4  UNL     1      39.469 -17.971 118.311  1.00  0.00     0.210 HD
ENDBRANCH   7  25
BRANCH   6  27
HETATM   27  C5  UNL     1      42.383 -19.222 116.550  1.00  0.00     0.086 C 
BRANCH  27  28
HETATM   28  C6  UNL     1      42.695 -18.227 115.494  1.00  0.00     0.062 A 
HETATM   29  C7  UNL     1      42.199 -18.068 114.244  1.00  0.00     0.120 A 
HETATM   30  N5  UNL     1      42.812 -17.017 113.689  1.00  0.00    -0.315 N 
HETATM   31  C8  UNL     1      43.704 -16.493 114.577  1.00  0.00     0.350 A 
ATOM     32  H5  UNL     1      42.638 -16.662 112.749  1.00  0.00     0.170 HD
HETATM   33  O2  UNL     1      44.456 -15.493 114.385  1.00  0.00    -0.244 OA
HETATM   34  N6  UNL     1      43.612 -17.258 115.680  1.00  0.00    -0.176 N 
BRANCH  34  35
HETATM   35  O3  UNL     1      44.384 -17.018 116.810  1.00  0.00    -0.279 OA
ATOM     36  H3  UNL     1      45.229 -17.393 117.029  1.00  0.00     0.245 HD
ENDBRANCH  34  35
ENDBRANCH  27  28
ENDBRANCH   6  27
TORSDOF 10
ENDMDL
MODEL 5
REMARK VINA RESULT: -6.246747211      2.498      3.280
REMARK  10 active torsions:
REMARK  status: ('A' for Active; 'I' for Inactive)
REMARK       I    between atoms: C1_2  and  N7_29 
REMARK    1  A    between atoms: N2_3  and  N3_5 
REMARK    2  A    between atoms: N4_9  and  O1_10 
REMARK    3  A    between atoms: C4_12  and  C5_13 
REMARK    4  A    between atoms: C5_13  and  C6_14 
REMARK    5  A    between atoms: N6_20  and  O3_21 
REMARK    6  A    between atoms: C9_23  and  O4_24 
REMARK    7  A    between atoms: C10_26  and  O5_27 
REMARK    8  A    between atoms: N7_29  and  N8_31 
REMARK    9  A    between atoms: N8_31  and  N9_32 
REMARK   10  A    between atoms: N8_31  and  O6_35 
ROOT
HETATM    1  N3  UNL     1      43.372 -19.977 120.762  1.00  0.00    -0.303 N 
ATOM      2  H3  UNL     1      42.690 -19.664 121.453  1.00  0.00     0.186 HD
HETATM    3  C2  UNL     1      44.599 -19.651 120.934  1.00  0.00     0.050 C 
HETATM    4  C3  UNL     1      45.599 -20.078 119.972  1.00  0.00     0.177 C 
HETATM    5  N4  UNL     1      46.661 -19.155 119.732  1.00  0.00    -0.187 NA
HETATM    6  C4  UNL     1      46.914 -18.219 120.774  1.00  0.00     0.123 C 
HETATM    7  C9  UNL     1      46.522 -18.814 122.121  1.00  0.00     0.173 C 
HETATM    8  C10 UNL     1      44.987 -18.843 122.110  1.00  0.00     0.196 C 
ENDROOT
BRANCH   1   9
HETATM    9  N2  UNL     1      42.916 -20.734 119.686  1.00  0.00    -0.273 N 
HETATM   10  C1  UNL     1      41.968 -20.340 118.904  1.00  0.00     0.221 C 
HETATM   11  N1  UNL     1      41.507 -21.120 117.806  1.00  0.00    -0.061 NA
HETATM   12  N7  UNL     1      41.341 -19.089 119.118  1.00  0.00    -0.250 N 
ATOM     13  H7  UNL     1      41.099 -18.797 120.064  1.00  0.00     0.187 HD
ATOM     14  H2  UNL     1      43.350 -21.640 119.509  1.00  0.00     0.189 HD
BRANCH  12  15
HETATM   15  N8  UNL     1      41.056 -18.260 118.047  1.00  0.00    -0.009 NA
BRANCH  15  16
HETATM   16  N9  UNL     1      39.835 -18.594 117.500  1.00  0.00    -0.322 NA
ATOM     17  H92 UNL     1      39.916 -19.499 117.037  1.00  0.00     0.175 HD
ATOM     18  H91 UNL     1      39.111 -18.576 118.218  1.00  0.00     0.175 HD
ENDBRANCH  15  16
BRANCH  15  19
HETATM   19  O6  UNL     1      41.999 -18.305 117.076  1.00  0.00    -0.276 OA
ATOM     20  H6  UNL     1      41.924 -17.592 116.452  1.00  0.00     0.241 HD
ENDBRANCH  15  19
ENDBRANCH  12  15
ENDBRANCH   1   9
BRANCH   8  21
HETATM   21  O5  UNL     1      44.602 -17.495 121.948  1.00  0.00    -0.387 OA
ATOM     22  H5  UNL     1      45.207 -16.912 122.391  1.00  0.00     0.210 HD
ENDBRANCH   8  21
BRANCH   5  23
HETATM   23  O1  UNL     1      47.751 -19.881 119.388  1.00  0.00    -0.312 OA
ATOM     24  H1  UNL     1      48.368 -19.284 118.979  1.00  0.00     0.237 HD
ENDBRANCH   5  23
BRANCH   7  25
HETATM   25  O4  UNL     1      47.014 -18.090 123.183  1.00  0.00    -0.391 OA
ATOM     26  H4  UNL     1      47.211 -18.634 123.936  1.00  0.00     0.210 HD
ENDBRANCH   7  25
BRANCH   6  27
HETATM   27  C5  UNL     1      48.361 -17.875 120.838  1.00  0.00     0.086 C 
BRANCH  27  28
HETATM   28  C6  UNL     1      48.672 -16.550 120.246  1.00  0.00     0.062 A 
HETATM   29  C7  UNL     1      48.907 -15.348 120.824  1.00  0.00     0.120 A 
HETATM   30  N5  UNL     1      49.139 -14.462 119.850  1.00  0.00    -0.315 N 
HETATM   31  C8  UNL     1      49.054 -15.086 118.641  1.00  0.00     0.350 A 
ATOM     32  H5  UNL     1      49.347 -13.474 119.989  1.00  0.00     0.170 HD
HETATM   33  O2  UNL     1      49.217 -14.550 117.505  1.00  0.00    -0.244 OA
HETATM   34  N6  UNL     1      48.765 -16.371 118.914  1.00  0.00    -0.176 N 
BRANCH  34  35
HETATM   35  O3  UNL     1      48.602 -17.319 117.912  1.00  0.00    -0.279 OA
ATOM     36  H3  UNL     1      49.228 -17.578 117.245  1.00  0.00     0.245 HD
ENDBRANCH  34  35
ENDBRANCH  27  28
ENDBRANCH   6  27
TORSDOF 10
ENDMDL
