MODEL 1
REMARK VINA RESULT: -6.878378172      0.000      0.000
REMARK  10 active torsions:
REMARK  status: ('A' for Active; 'I' for Inactive)
REMARK    1  A    between atoms: C2_2  and  C4_4 
REMARK    2  A    between atoms: C4_4  and  C5_5 
REMARK    3  A    between atoms: C9_12  and  O2_13 
REMARK    4  A    between atoms: C10_17  and  C11_18 
REMARK    5  A    between atoms: C11_18  and  C12_19 
REMARK    6  A    between atoms: C12_19  and  C13_20 
REMARK    7  A    between atoms: C13_20  and  N3_21 
REMARK    8  A    between atoms: C18_29  and  C19_30 
REMARK    9  A    between atoms: C19_30  and  C20_31 
REMARK   10  A    between atoms: C25_39  and  O4_40 
ROOT
HETATM    1  C5  UNL     1       2.999  20.481  17.720  1.00  0.00     0.178 C 
HETATM    2  C6  UNL     1       3.360  21.757  18.399  1.00  0.00     0.245 C 
HETATM    3  O1  UNL     1       3.542  22.724  17.623  1.00  0.00    -0.271 OA
HETATM    4  N1  UNL     1       3.512  22.008  19.812  1.00  0.00    -0.325 N 
ATOM      5  H1  UNL     1       4.511  22.127  19.981  1.00  0.00     0.168 HD
HETATM    6  C7  UNL     1       2.885  22.157  21.037  1.00  0.00     0.059 C 
HETATM    7  C8  UNL     1       3.731  21.371  22.089  1.00  0.00     0.072 C 
HETATM    8  C9  UNL     1       1.517  22.136  21.471  1.00  0.00     0.159 C 
HETATM    9  N2  UNL     1       0.540  21.267  21.990  1.00  0.00    -0.356 N 
ATOM     10  H2  UNL     1       0.409  21.450  22.986  1.00  0.00     0.162 HD
HETATM   11  C10 UNL     1      -0.324  20.214  21.575  1.00  0.00     0.175 C 
HETATM   12  C17 UNL     1       0.094  18.806  21.642  1.00  0.00     0.241 C 
HETATM   13  O3  UNL     1       0.628  18.484  22.768  1.00  0.00    -0.271 OA
HETATM   14  N4  UNL     1       0.008  17.758  20.684  1.00  0.00    -0.347 N 
ATOM     15  H4  UNL     1      -0.428  16.895  21.008  1.00  0.00     0.163 HD
HETATM   16  C18 UNL     1       0.470  17.757  19.278  1.00  0.00     0.159 C 
HETATM   17  C25 UNL     1       1.328  18.958  19.052  1.00  0.00     0.137 C 
HETATM   18  N6  UNL     1       1.718  20.008  18.319  1.00  0.00    -0.355 N 
HETATM   19  C26 UNL     1       0.822  21.078  17.953  1.00  0.00     0.152 C 
ENDROOT
BRANCH  16  20
HETATM   20  C19 UNL     1      -0.577  17.497  18.292  1.00  0.00     0.038 C 
BRANCH  20  21
HETATM   21  C20 UNL     1      -0.947  16.212  17.773  1.00  0.00    -0.009 C 
HETATM   22  C21 UNL     1      -2.367  16.038  17.299  1.00  0.00     0.032 C 
HETATM   23  C22 UNL     1      -2.404  14.989  16.189  1.00  0.00     0.232 C 
HETATM   24  N5  UNL     1      -1.448  13.977  16.508  1.00  0.00    -0.075 N 
HETATM   25  C23 UNL     1      -1.331  13.816  17.926  1.00  0.00     0.232 C 
ATOM     26  H52 UNL     1      -1.664  13.094  16.045  1.00  0.00     0.277 HD
ATOM     27  H51 UNL     1      -0.544  14.162  16.074  1.00  0.00     0.277 HD
HETATM   28  C24 UNL     1      -0.567  14.977  18.576  1.00  0.00     0.032 C 
ENDBRANCH  20  21
ENDBRANCH  16  20
BRANCH  17  29
HETATM   29  O4  UNL     1       1.986  18.848  20.171  1.00  0.00    -0.348 OA
ATOM     30  H4  UNL     1       1.214  18.773  20.719  1.00  0.00     0.219 HD
ENDBRANCH  17  29
BRANCH  11  31
HETATM   31  C11 UNL     1      -1.648  20.214  22.371  1.00  0.00     0.036 C 
BRANCH  31  32
HETATM   32  C12 UNL     1      -1.641  21.193  23.484  1.00  0.00     0.030 C 
BRANCH  32  33
HETATM   33  C13 UNL     1      -1.298  20.637  24.825  1.00  0.00     0.236 C 
BRANCH  33  34
HETATM   34  N3  UNL     1      -0.278  21.291  25.560  1.00  0.00    -0.079 N 
HETATM   35  C14 UNL     1       1.004  20.620  25.530  1.00  0.00     0.271 C 
HETATM   36  C15 UNL     1      -0.086  22.679  25.248  1.00  0.00     0.271 C 
HETATM   37  C16 UNL     1      -0.710  21.237  26.973  1.00  0.00     0.271 C 
ENDBRANCH  33  34
ENDBRANCH  32  33
ENDBRANCH  31  32
ENDBRANCH  11  31
BRANCH   1  38
HETATM   38  C4  UNL     1       2.801  20.521  16.253  1.00  0.00     0.039 C 
BRANCH  38  39
HETATM   39  C2  UNL     1       3.678  21.152  15.291  1.00  0.00    -0.020 C 
HETATM   40  C1  UNL     1       5.034  20.729  14.910  1.00  0.00     0.009 C 
HETATM   41  C3  UNL     1       2.937  21.339  13.917  1.00  0.00     0.009 C 
ENDBRANCH  38  39
ENDBRANCH   1  38
BRANCH   8  42
HETATM   42  O2  UNL     1       1.003  23.366  21.334  1.00  0.00    -0.345 OA
ATOM     43  H2  UNL     1       0.813  23.518  20.416  1.00  0.00     0.219 HD
ENDBRANCH   8  42
TORSDOF 10
ENDMDL
MODEL 2
REMARK VINA RESULT: -6.874151024      4.257      7.883
REMARK  10 active torsions:
REMARK  status: ('A' for Active; 'I' for Inactive)
REMARK    1  A    between atoms: C2_2  and  C4_4 
REMARK    2  A    between atoms: C4_4  and  C5_5 
REMARK    3  A    between atoms: C9_12  and  O2_13 
REMARK    4  A    between atoms: C10_17  and  C11_18 
REMARK    5  A    between atoms: C11_18  and  C12_19 
REMARK    6  A    between atoms: C12_19  and  C13_20 
REMARK    7  A    between atoms: C13_20  and  N3_21 
REMARK    8  A    between atoms: C18_29  and  C19_30 
REMARK    9  A    between atoms: C19_30  and  C20_31 
REMARK   10  A    between atoms: C25_39  and  O4_40 
ROOT
HETATM    1  C5  UNL     1       1.296  23.136  12.573  1.00  0.00     0.178 C 
HETATM    2  C6  UNL     1      -0.190  23.015  12.585  1.00  0.00     0.245 C 
HETATM    3  O1  UNL     1      -0.700  22.781  11.465  1.00  0.00    -0.271 OA
HETATM    4  N1  UNL     1      -1.088  23.124  13.710  1.00  0.00    -0.325 N 
ATOM      5  H1  UNL     1      -1.582  24.009  13.603  1.00  0.00     0.168 HD
HETATM    6  C7  UNL     1      -1.567  22.544  14.871  1.00  0.00     0.059 C 
HETATM    7  C8  UNL     1      -1.660  23.671  15.949  1.00  0.00     0.072 C 
HETATM    8  C9  UNL     1      -1.308  21.307  15.554  1.00  0.00     0.159 C 
HETATM    9  N2  UNL     1      -0.509  20.758  16.572  1.00  0.00    -0.356 N 
ATOM     10  H2  UNL     1      -1.070  20.612  17.411  1.00  0.00     0.162 HD
HETATM   11  C10 UNL     1       0.832  20.340  16.810  1.00  0.00     0.175 C 
HETATM   12  C17 UNL     1       1.840  21.265  17.351  1.00  0.00     0.241 C 
HETATM   13  O3  UNL     1       1.426  21.931  18.372  1.00  0.00    -0.271 OA
HETATM   14  N4  UNL     1       3.173  21.540  16.940  1.00  0.00    -0.347 N 
ATOM     15  H4  UNL     1       3.884  21.479  17.669  1.00  0.00     0.163 HD
HETATM   16  C18 UNL     1       3.664  21.903  15.592  1.00  0.00     0.159 C 
HETATM   17  C25 UNL     1       2.492  22.230  14.725  1.00  0.00     0.137 C 
HETATM   18  N6  UNL     1       1.827  22.158  13.567  1.00  0.00    -0.355 N 
HETATM   19  C26 UNL     1       1.389  20.908  12.996  1.00  0.00     0.152 C 
ENDROOT
BRANCH  16  20
HETATM   20  C19 UNL     1       4.662  20.991  15.039  1.00  0.00     0.038 C 
BRANCH  20  21
HETATM   21  C20 UNL     1       5.856  21.369  14.339  1.00  0.00    -0.009 C 
HETATM   22  C21 UNL     1       5.705  22.297  13.162  1.00  0.00     0.032 C 
HETATM   23  C22 UNL     1       6.975  23.131  13.010  1.00  0.00     0.232 C 
HETATM   24  N5  UNL     1       8.088  22.301  13.344  1.00  0.00    -0.075 N 
HETATM   25  C23 UNL     1       7.832  20.938  12.990  1.00  0.00     0.232 C 
ATOM     26  H52 UNL     1       8.953  22.643  12.926  1.00  0.00     0.277 HD
ATOM     27  H51 UNL     1       8.346  22.393  14.327  1.00  0.00     0.277 HD
HETATM   28  C24 UNL     1       6.835  20.273  13.947  1.00  0.00     0.032 C 
ENDBRANCH  20  21
ENDBRANCH  16  20
BRANCH  17  29
HETATM   29  O4  UNL     1       1.866  22.930  15.628  1.00  0.00    -0.348 OA
ATOM     30  H4  UNL     1       2.251  23.761  15.376  1.00  0.00     0.219 HD
ENDBRANCH  17  29
BRANCH  11  31
HETATM   31  C11 UNL     1       0.895  19.154  17.796  1.00  0.00     0.036 C 
BRANCH  31  32
HETATM   32  C12 UNL     1      -0.443  18.585  18.086  1.00  0.00     0.030 C 
BRANCH  32  33
HETATM   33  C13 UNL     1      -0.789  17.344  17.334  1.00  0.00     0.236 C 
BRANCH  33  34
HETATM   34  N3  UNL     1      -1.939  16.628  17.753  1.00  0.00    -0.079 N 
HETATM   35  C14 UNL     1      -3.106  17.455  17.982  1.00  0.00     0.271 C 
HETATM   36  C15 UNL     1      -2.309  15.517  16.925  1.00  0.00     0.271 C 
HETATM   37  C16 UNL     1      -1.596  16.067  19.077  1.00  0.00     0.271 C 
ENDBRANCH  33  34
ENDBRANCH  32  33
ENDBRANCH  31  32
ENDBRANCH  11  31
BRANCH   1  38
HETATM   38  C4  UNL     1       1.991  22.871  11.293  1.00  0.00     0.039 C 
BRANCH  38  39
HETATM   39  C2  UNL     1       3.135  23.593  10.780  1.00  0.00    -0.020 C 
HETATM   40  C1  UNL     1       3.346  24.066   9.404  1.00  0.00     0.009 C 
HETATM   41  C3  UNL     1       3.425  24.859  11.667  1.00  0.00     0.009 C 
ENDBRANCH  38  39
ENDBRANCH   1  38
BRANCH   8  42
HETATM   42  O2  UNL     1      -2.106  20.358  15.042  1.00  0.00    -0.345 OA
ATOM     43  H2  UNL     1      -2.417  19.806  15.750  1.00  0.00     0.219 HD
ENDBRANCH   8  42
TORSDOF 10
ENDMDL
MODEL 3
REMARK VINA RESULT: -6.865386108      2.081      6.841
REMARK  10 active torsions:
REMARK  status: ('A' for Active; 'I' for Inactive)
REMARK    1  A    between atoms: C2_2  and  C4_4 
REMARK    2  A    between atoms: C4_4  and  C5_5 
REMARK    3  A    between atoms: C9_12  and  O2_13 
REMARK    4  A    between atoms: C10_17  and  C11_18 
REMARK    5  A    between atoms: C11_18  and  C12_19 
REMARK    6  A    between atoms: C12_19  and  C13_20 
REMARK    7  A    between atoms: C13_20  and  N3_21 
REMARK    8  A    between atoms: C18_29  and  C19_30 
REMARK    9  A    between atoms: C19_30  and  C20_31 
REMARK   10  A    between atoms: C25_39  and  O4_40 
ROOT
HETATM    1  C5  UNL     1       0.041  20.281  21.851  1.00  0.00     0.178 C 
HETATM    2  C6  UNL     1       0.786  21.571  21.898  1.00  0.00     0.245 C 
HETATM    3  O1  UNL     1       1.531  21.703  22.897  1.00  0.00    -0.271 OA
HETATM    4  N1  UNL     1       0.757  22.658  20.948  1.00  0.00    -0.325 N 
ATOM      5  H1  UNL     1       0.247  23.420  21.394  1.00  0.00     0.168 HD
HETATM    6  C7  UNL     1       1.123  23.110  19.693  1.00  0.00     0.059 C 
HETATM    7  C8  UNL     1      -0.110  23.855  19.090  1.00  0.00     0.072 C 
HETATM    8  C9  UNL     1       1.868  22.545  18.603  1.00  0.00     0.159 C 
HETATM    9  N2  UNL     1       1.695  21.830  17.405  1.00  0.00    -0.356 N 
ATOM     10  H2  UNL     1       1.820  22.456  16.608  1.00  0.00     0.162 HD
HETATM   11  C10 UNL     1       1.401  20.515  16.944  1.00  0.00     0.175 C 
HETATM   12  C17 UNL     1       0.017  20.080  16.695  1.00  0.00     0.241 C 
HETATM   13  O3  UNL     1      -0.667  20.924  16.005  1.00  0.00    -0.271 OA
HETATM   14  N4  UNL     1      -0.677  18.902  17.084  1.00  0.00    -0.347 N 
ATOM     15  H4  UNL     1      -1.144  18.394  16.333  1.00  0.00     0.163 HD
HETATM   16  C18 UNL     1      -0.809  18.317  18.436  1.00  0.00     0.159 C 
HETATM   17  C25 UNL     1      -0.329  19.312  19.441  1.00  0.00     0.137 C 
HETATM   18  N6  UNL     1       0.357  19.637  20.543  1.00  0.00    -0.355 N 
HETATM   19  C26 UNL     1       1.779  19.428  20.666  1.00  0.00     0.152 C 
ENDROOT
BRANCH  16  20
HETATM   20  C19 UNL     1      -0.304  16.952  18.563  1.00  0.00     0.038 C 
BRANCH  20  21
HETATM   21  C20 UNL     1      -0.792  15.802  17.857  1.00  0.00    -0.009 C 
HETATM   22  C21 UNL     1      -2.238  15.809  17.435  1.00  0.00     0.032 C 
HETATM   23  C22 UNL     1      -2.400  14.968  16.170  1.00  0.00     0.232 C 
HETATM   24  N5  UNL     1      -1.512  13.853  16.267  1.00  0.00    -0.075 N 
HETATM   25  C23 UNL     1      -1.352  13.447  17.631  1.00  0.00     0.232 C 
ATOM     26  H52 UNL     1      -1.813  13.078  15.676  1.00  0.00     0.277 HD
ATOM     27  H51 UNL     1      -0.615  14.046  15.823  1.00  0.00     0.277 HD
HETATM   28  C24 UNL     1      -0.477  14.425  18.423  1.00  0.00     0.032 C 
ENDBRANCH  20  21
ENDBRANCH  16  20
BRANCH  17  29
HETATM   29  O4  UNL     1      -0.916  20.335  18.887  1.00  0.00    -0.348 OA
ATOM     30  H4  UNL     1      -0.482  20.240  18.048  1.00  0.00     0.219 HD
ENDBRANCH  17  29
BRANCH  11  31
HETATM   31  C11 UNL     1       2.100  20.210  15.601  1.00  0.00     0.036 C 
BRANCH  31  32
HETATM   32  C12 UNL     1       3.543  20.548  15.623  1.00  0.00     0.030 C 
BRANCH  32  33
HETATM   33  C13 UNL     1       4.044  21.298  14.435  1.00  0.00     0.236 C 
BRANCH  33  34
HETATM   34  N3  UNL     1       5.416  21.654  14.421  1.00  0.00    -0.079 N 
HETATM   35  C14 UNL     1       6.318  20.548  14.176  1.00  0.00     0.271 C 
HETATM   36  C15 UNL     1       5.762  22.741  13.550  1.00  0.00     0.271 C 
HETATM   37  C16 UNL     1       5.722  22.106  15.795  1.00  0.00     0.271 C 
ENDBRANCH  33  34
ENDBRANCH  32  33
ENDBRANCH  31  32
ENDBRANCH  11  31
BRANCH   1  38
HETATM   38  C4  UNL     1       0.336  19.284  22.905  1.00  0.00     0.039 C 
BRANCH  38  39
HETATM   39  C2  UNL     1      -0.565  18.864  23.956  1.00  0.00    -0.020 C 
HETATM   40  C1  UNL     1      -0.462  17.655  24.787  1.00  0.00     0.009 C 
HETATM   41  C3  UNL     1      -0.770  20.025  24.997  1.00  0.00     0.009 C 
ENDBRANCH  38  39
ENDBRANCH   1  38
BRANCH   8  42
HETATM   42  O2  UNL     1       3.172  22.788  18.802  1.00  0.00    -0.345 OA
ATOM     43  H2  UNL     1       3.397  23.610  18.384  1.00  0.00     0.219 HD
ENDBRANCH   8  42
TORSDOF 10
ENDMDL
MODEL 4
REMARK VINA RESULT: -6.823249756      3.527      5.834
REMARK  10 active torsions:
REMARK  status: ('A' for Active; 'I' for Inactive)
REMARK    1  A    between atoms: C2_2  and  C4_4 
REMARK    2  A    between atoms: C4_4  and  C5_5 
REMARK    3  A    between atoms: C9_12  and  O2_13 
REMARK    4  A    between atoms: C10_17  and  C11_18 
REMARK    5  A    between atoms: C11_18  and  C12_19 
REMARK    6  A    between atoms: C12_19  and  C13_20 
REMARK    7  A    between atoms: C13_20  and  N3_21 
REMARK    8  A    between atoms: C18_29  and  C19_30 
REMARK    9  A    between atoms: C19_30  and  C20_31 
REMARK   10  A    between atoms: C25_39  and  O4_40 
ROOT
HETATM    1  C5  UNL     1      -4.482  20.672  17.134  1.00  0.00     0.178 C 
HETATM    2  C6  UNL     1      -4.349  22.101  17.535  1.00  0.00     0.245 C 
HETATM    3  O1  UNL     1      -5.313  22.545  18.202  1.00  0.00    -0.271 OA
HETATM    4  N1  UNL     1      -3.262  23.011  17.261  1.00  0.00    -0.325 N 
ATOM      5  H1  UNL     1      -3.607  23.675  16.568  1.00  0.00     0.168 HD
HETATM    6  C7  UNL     1      -1.954  23.370  17.533  1.00  0.00     0.059 C 
HETATM    7  C8  UNL     1      -1.270  23.700  16.168  1.00  0.00     0.072 C 
HETATM    8  C9  UNL     1      -0.942  22.869  18.420  1.00  0.00     0.159 C 
HETATM    9  N2  UNL     1       0.149  21.982  18.456  1.00  0.00    -0.356 N 
ATOM     10  H2  UNL     1       1.023  22.508  18.441  1.00  0.00     0.162 HD
HETATM   11  C10 UNL     1       0.427  20.586  18.507  1.00  0.00     0.175 C 
HETATM   12  C17 UNL     1       0.600  19.792  17.281  1.00  0.00     0.241 C 
HETATM   13  O3  UNL     1       1.390  20.341  16.425  1.00  0.00    -0.271 OA
HETATM   14  N4  UNL     1       0.050  18.540  16.890  1.00  0.00    -0.347 N 
ATOM     15  H4  UNL     1       0.721  17.838  16.581  1.00  0.00     0.163 HD
HETATM   16  C18 UNL     1      -1.369  18.125  16.876  1.00  0.00     0.159 C 
HETATM   17  C25 UNL     1      -2.227  19.331  17.072  1.00  0.00     0.137 C 
HETATM   18  N6  UNL     1      -3.268  19.959  17.630  1.00  0.00    -0.355 N 
HETATM   19  C26 UNL     1      -3.403  20.128  19.056  1.00  0.00     0.152 C 
ENDROOT
BRANCH  16  20
HETATM   20  C19 UNL     1      -1.672  16.957  17.700  1.00  0.00     0.038 C 
BRANCH  20  21
HETATM   21  C20 UNL     1      -1.450  15.586  17.337  1.00  0.00    -0.009 C 
HETATM   22  C21 UNL     1      -2.413  14.963  16.360  1.00  0.00     0.032 C 
HETATM   23  C22 UNL     1      -1.693  13.876  15.564  1.00  0.00     0.232 C 
HETATM   24  N5  UNL     1      -0.778  13.221  16.444  1.00  0.00    -0.075 N 
HETATM   25  C23 UNL     1      -1.284  13.202  17.784  1.00  0.00     0.232 C 
ATOM     26  H52 UNL     1      -0.544  12.284  16.117  1.00  0.00     0.277 HD
ATOM     27  H51 UNL     1       0.152  13.636  16.398  1.00  0.00     0.277 HD
HETATM   28  C24 UNL     1      -1.198  14.581  18.450  1.00  0.00     0.032 C 
ENDBRANCH  20  21
ENDBRANCH  16  20
BRANCH  17  29
HETATM   29  O4  UNL     1      -1.548  20.094  16.263  1.00  0.00    -0.348 OA
ATOM     30  H4  UNL     1      -1.901  20.910  16.596  1.00  0.00     0.219 HD
ENDBRANCH  17  29
BRANCH  11  31
HETATM   31  C11 UNL     1       1.723  20.289  19.291  1.00  0.00     0.036 C 
BRANCH  31  32
HETATM   32  C12 UNL     1       1.536  19.240  20.322  1.00  0.00     0.030 C 
BRANCH  32  33
HETATM   33  C13 UNL     1       0.952  19.708  21.613  1.00  0.00     0.236 C 
BRANCH  33  34
HETATM   34  N3  UNL     1      -0.274  19.126  22.022  1.00  0.00    -0.079 N 
HETATM   35  C14 UNL     1      -0.846  18.204  21.063  1.00  0.00     0.271 C 
HETATM   36  C15 UNL     1      -0.260  18.505  23.316  1.00  0.00     0.271 C 
HETATM   37  C16 UNL     1      -1.236  20.245  22.106  1.00  0.00     0.271 C 
ENDBRANCH  33  34
ENDBRANCH  32  33
ENDBRANCH  31  32
ENDBRANCH  11  31
BRANCH   1  38
HETATM   38  C4  UNL     1      -5.657  19.928  17.642  1.00  0.00     0.039 C 
BRANCH  38  39
HETATM   39  C2  UNL     1      -6.958  19.857  17.013  1.00  0.00    -0.020 C 
HETATM   40  C1  UNL     1      -7.261  19.434  15.638  1.00  0.00     0.009 C 
HETATM   41  C3  UNL     1      -7.946  19.013  17.898  1.00  0.00     0.009 C 
ENDBRANCH  38  39
ENDBRANCH   1  38
BRANCH   8  42
HETATM   42  O2  UNL     1      -1.093  23.452  19.618  1.00  0.00    -0.345 OA
ATOM     43  H2  UNL     1      -0.280  23.884  19.852  1.00  0.00     0.219 HD
ENDBRANCH   8  42
TORSDOF 10
ENDMDL
MODEL 5
REMARK VINA RESULT: -6.804807148      3.342      7.023
REMARK  10 active torsions:
REMARK  status: ('A' for Active; 'I' for Inactive)
REMARK    1  A    between atoms: C2_2  and  C4_4 
REMARK    2  A    between atoms: C4_4  and  C5_5 
REMARK    3  A    between atoms: C9_12  and  O2_13 
REMARK    4  A    between atoms: C10_17  and  C11_18 
REMARK    5  A    between atoms: C11_18  and  C12_19 
REMARK    6  A    between atoms: C12_19  and  C13_20 
REMARK    7  A    between atoms: C13_20  and  N3_21 
REMARK    8  A    between atoms: C18_29  and  C19_30 
REMARK    9  A    between atoms: C19_30  and  C20_31 
REMARK   10  A    between atoms: C25_39  and  O4_40 
ROOT
HETATM    1  C5  UNL     1       2.248  21.790  14.606  1.00  0.00     0.178 C 
HETATM    2  C6  UNL     1       1.097  21.412  13.739  1.00  0.00     0.245 C 
HETATM    3  O1  UNL     1       1.387  20.628  12.805  1.00  0.00    -0.271 OA
HETATM    4  N1  UNL     1      -0.282  21.826  13.848  1.00  0.00    -0.325 N 
ATOM      5  H1  UNL     1      -0.455  22.469  13.076  1.00  0.00     0.168 HD
HETATM    6  C7  UNL     1      -1.470  21.725  14.550  1.00  0.00     0.059 C 
HETATM    7  C8  UNL     1      -2.055  23.167  14.682  1.00  0.00     0.072 C 
HETATM    8  C9  UNL     1      -1.894  20.975  15.699  1.00  0.00     0.159 C 
HETATM    9  N2  UNL     1      -2.018  21.077  17.096  1.00  0.00    -0.356 N 
ATOM     10  H2  UNL     1      -2.999  21.206  17.347  1.00  0.00     0.162 HD
HETATM   11  C10 UNL     1      -1.217  21.060  18.273  1.00  0.00     0.175 C 
HETATM   12  C17 UNL     1      -0.658  22.297  18.840  1.00  0.00     0.241 C 
HETATM   13  O3  UNL     1      -1.520  23.248  18.939  1.00  0.00    -0.271 OA
HETATM   14  N4  UNL     1       0.654  22.611  19.289  1.00  0.00    -0.347 N 
ATOM     15  H4  UNL     1       0.719  23.003  20.228  1.00  0.00     0.163 HD
HETATM   16  C18 UNL     1       1.936  22.442  18.572  1.00  0.00     0.159 C 
HETATM   17  C25 UNL     1       1.650  22.139  17.137  1.00  0.00     0.137 C 
HETATM   18  N6  UNL     1       1.871  21.454  16.010  1.00  0.00    -0.355 N 
HETATM   19  C26 UNL     1       1.714  20.022  15.926  1.00  0.00     0.152 C 
ENDROOT
BRANCH  16  20
HETATM   20  C19 UNL     1       2.906  21.584  19.248  1.00  0.00     0.038 C 
BRANCH  20  21
HETATM   21  C20 UNL     1       4.035  22.026  20.016  1.00  0.00    -0.009 C 
HETATM   22  C21 UNL     1       3.919  21.966  21.517  1.00  0.00     0.032 C 
HETATM   23  C22 UNL     1       5.306  21.758  22.123  1.00  0.00     0.232 C 
HETATM   24  N5  UNL     1       6.243  22.496  21.337  1.00  0.00    -0.075 N 
HETATM   25  C23 UNL     1       5.639  23.677  20.799  1.00  0.00     0.232 C 
ATOM     26  H52 UNL     1       7.089  22.712  21.864  1.00  0.00     0.277 HD
ATOM     27  H51 UNL     1       6.660  21.919  20.607  1.00  0.00     0.277 HD
HETATM   28  C24 UNL     1       4.675  23.357  19.650  1.00  0.00     0.032 C 
ENDBRANCH  20  21
ENDBRANCH  16  20
BRANCH  17  29
HETATM   29  O4  UNL     1       0.707  23.031  17.013  1.00  0.00    -0.348 OA
ATOM     30  H4  UNL     1       0.251  22.577  16.315  1.00  0.00     0.219 HD
ENDBRANCH  17  29
BRANCH  11  31
HETATM   31  C11 UNL     1      -1.975  20.449  19.472  1.00  0.00     0.036 C 
BRANCH  31  32
HETATM   32  C12 UNL     1      -1.695  19.003  19.643  1.00  0.00     0.030 C 
BRANCH  32  33
HETATM   33  C13 UNL     1      -2.503  18.088  18.786  1.00  0.00     0.236 C 
BRANCH  33  34
HETATM   34  N3  UNL     1      -1.839  16.971  18.219  1.00  0.00    -0.079 N 
HETATM   35  C14 UNL     1      -1.433  15.967  19.181  1.00  0.00     0.271 C 
HETATM   36  C15 UNL     1      -2.526  16.329  17.135  1.00  0.00     0.271 C 
HETATM   37  C16 UNL     1      -0.579  17.501  17.658  1.00  0.00     0.271 C 
ENDBRANCH  33  34
ENDBRANCH  32  33
ENDBRANCH  31  32
ENDBRANCH  11  31
BRANCH   1  38
HETATM   38  C4  UNL     1       3.548  21.134  14.339  1.00  0.00     0.039 C 
BRANCH  38  39
HETATM   39  C2  UNL     1       4.848  21.625  14.740  1.00  0.00    -0.020 C 
HETATM   40  C1  UNL     1       5.246  22.111  16.070  1.00  0.00     0.009 C 
HETATM   41  C3  UNL     1       5.964  20.581  14.367  1.00  0.00     0.009 C 
ENDBRANCH  38  39
ENDBRANCH   1  38
BRANCH   8  42
HETATM   42  O2  UNL     1      -2.315  19.768  15.294  1.00  0.00    -0.345 OA
ATOM     43  H2  UNL     1      -2.961  19.446  15.912  1.00  0.00     0.219 HD
ENDBRANCH   8  42
TORSDOF 10
ENDMDL
