MODEL 1
REMARK VINA RESULT: -7.461400043      0.000      0.000
REMARK  13 active torsions:
REMARK  status: ('A' for Active; 'I' for Inactive)
REMARK    1  A    between atoms: C2_2  and  C3_3 
REMARK    2  A    between atoms: C3_3  and  C4_4 
REMARK    3  A    between atoms: C4_4  and  C5_5 
REMARK    4  A    between atoms: C7_10  and  C8_11 
REMARK    5  A    between atoms: C11_19  and  C12_20 
REMARK    6  A    between atoms: C12_20  and  C13_21 
REMARK    7  A    between atoms: C17_25  and  N4_26 
REMARK    8  A    between atoms: N4_26  and  C18_28 
REMARK    9  A    between atoms: C18_28  and  C19_29 
REMARK   10  A    between atoms: C19_29  and  N5_30 
REMARK   11  A    between atoms: N5_30  and  N6_31 
REMARK   12  A    between atoms: C20_36  and  O2_37 
REMARK   13  A    between atoms: C25_46  and  O3_47 
ROOT
HETATM    1  C5  UNL     1       2.811  21.469  13.672  1.00  0.00     0.062 C 
HETATM    2  N1  UNL     1       3.103  21.305  14.887  1.00  0.00    -0.325 N 
ATOM      3  H1  UNL     1       4.078  21.569  15.028  1.00  0.00     0.169 HD
HETATM    4  C6  UNL     1       2.584  20.905  16.072  1.00  0.00     0.244 C 
HETATM    5  O1  UNL     1       2.325  19.728  16.495  1.00  0.00    -0.271 OA
HETATM    6  C7  UNL     1       2.254  21.965  17.073  1.00  0.00     0.175 C 
HETATM    7  N2  UNL     1       1.080  21.573  17.796  1.00  0.00    -0.366 N 
ATOM      8  H2  UNL     1       1.272  21.331  18.769  1.00  0.00     0.161 HD
HETATM    9  C10 UNL     1      -0.268  21.451  17.456  1.00  0.00     0.083 C 
HETATM   10  N3  UNL     1      -1.007  22.426  18.003  1.00  0.00    -0.388 N 
ATOM     11  H31 UNL     1      -1.992  22.337  17.755  1.00  0.00     0.157 HD
ATOM     12  H32 UNL     1      -0.431  23.070  18.546  1.00  0.00     0.157 HD
HETATM   13  C11 UNL     1      -1.079  20.544  16.691  1.00  0.00     0.132 C 
HETATM   14  C20 UNL     1      -1.822  20.985  15.531  1.00  0.00     0.127 C 
HETATM   15  N8  UNL     1      -1.776  22.057  14.626  1.00  0.00    -0.343 N 
HETATM   16  C21 UNL     1      -2.916  22.944  14.428  1.00  0.00     0.154 C 
HETATM   17  C22 UNL     1      -0.621  22.447  13.778  1.00  0.00     0.101 C 
HETATM   18  C23 UNL     1      -1.198  22.934  12.435  1.00  0.00     0.063 C 
HETATM   19  C24 UNL     1       0.010  23.655  14.411  1.00  0.00     0.063 C 
HETATM   20  N9  UNL     1       0.222  21.358  13.476  1.00  0.00    -0.343 N 
ATOM     21  H9  UNL     1      -0.246  20.465  13.631  1.00  0.00     0.164 HD
HETATM   22  C25 UNL     1       1.506  21.185  13.029  1.00  0.00     0.161 C 
ENDROOT
BRANCH  13  23
HETATM   23  C12 UNL     1      -2.071  19.882  17.668  1.00  0.00     0.077 C 
BRANCH  23  24
HETATM   24  C13 UNL     1      -1.928  18.452  17.854  1.00  0.00     0.012 A 
HETATM   25  C14 UNL     1      -1.736  17.832  19.064  1.00  0.00     0.025 A 
HETATM   26  C15 UNL     1      -1.631  16.446  19.179  1.00  0.00     0.006 A 
HETATM   27  C16 UNL     1      -1.721  15.663  18.053  1.00  0.00     0.048 A 
HETATM   28  C17 UNL     1      -1.918  16.298  16.820  1.00  0.00     0.101 A 
HETATM   29  N7  UNL     1      -2.011  17.632  16.755  1.00  0.00    -0.346 N 
ATOM     30  H7  UNL     1      -2.152  18.063  15.842  1.00  0.00     0.167 HD
BRANCH  28  31
HETATM   31  N4  UNL     1      -2.029  15.561  15.770  1.00  0.00    -0.370 N 
ATOM     32  H4  UNL     1      -1.700  15.942  14.883  1.00  0.00     0.161 HD
BRANCH  31  33
HETATM   33  C18 UNL     1      -2.593  14.222  15.766  1.00  0.00     0.182 C 
BRANCH  33  34
HETATM   34  C19 UNL     1      -1.625  13.328  15.087  1.00  0.00     0.200 C 
BRANCH  34  35
HETATM   35  N5  UNL     1      -0.759  12.758  15.769  1.00  0.00    -0.348 NA
BRANCH  35  36
HETATM   36  N6  UNL     1       0.188  12.283  16.421  1.00  0.00    -0.281 N 
ATOM     37  H62 UNL     1       0.678  13.087  16.028  1.00  0.00     0.191 HD
ATOM     38  H61 UNL     1       0.897  11.818  16.986  1.00  0.00     0.191 HD
ENDBRANCH  35  36
ENDBRANCH  34  35
ENDBRANCH  33  34
ENDBRANCH  31  33
ENDBRANCH  28  31
ENDBRANCH  23  24
ENDBRANCH  13  23
BRANCH  14  39
HETATM   39  O2  UNL     1      -2.792  20.149  15.275  1.00  0.00    -0.349 OA
ATOM     40  H2  UNL     1      -2.557  19.590  14.544  1.00  0.00     0.219 HD
ENDBRANCH  14  39
BRANCH   6  41
HETATM   41  C8  UNL     1       3.511  21.950  17.991  1.00  0.00     0.030 C 
HETATM   42  C9  UNL     1       3.184  21.498  19.373  1.00  0.00     0.007 C 
ENDBRANCH   6  41
BRANCH  22  43
HETATM   43  O3  UNL     1       1.738  20.683  11.834  1.00  0.00    -0.345 OA
ATOM     44  H3  UNL     1       0.969  20.194  11.565  1.00  0.00     0.219 HD
ENDBRANCH  22  43
BRANCH   1  45
HETATM   45  C4  UNL     1       3.894  21.975  12.791  1.00  0.00     0.062 C 
BRANCH  45  46
HETATM   46  C3  UNL     1       5.257  22.087  13.284  1.00  0.00     0.006 C 
BRANCH  46  47
HETATM   47  C2  UNL     1       6.145  20.872  13.119  1.00  0.00    -0.004 C 
HETATM   48  C1  UNL     1       6.543  20.381  14.495  1.00  0.00     0.005 C 
ENDBRANCH  46  47
ENDBRANCH  45  46
ENDBRANCH   1  45
TORSDOF 13
ENDMDL
MODEL 2
REMARK VINA RESULT: -7.376600800      0.887      1.074
REMARK  13 active torsions:
REMARK  status: ('A' for Active; 'I' for Inactive)
REMARK    1  A    between atoms: C2_2  and  C3_3 
REMARK    2  A    between atoms: C3_3  and  C4_4 
REMARK    3  A    between atoms: C4_4  and  C5_5 
REMARK    4  A    between atoms: C7_10  and  C8_11 
REMARK    5  A    between atoms: C11_19  and  C12_20 
REMARK    6  A    between atoms: C12_20  and  C13_21 
REMARK    7  A    between atoms: C17_25  and  N4_26 
REMARK    8  A    between atoms: N4_26  and  C18_28 
REMARK    9  A    between atoms: C18_28  and  C19_29 
REMARK   10  A    between atoms: C19_29  and  N5_30 
REMARK   11  A    between atoms: N5_30  and  N6_31 
REMARK   12  A    between atoms: C20_36  and  O2_37 
REMARK   13  A    between atoms: C25_46  and  O3_47 
ROOT
HETATM    1  C5  UNL     1       2.574  21.309  13.636  1.00  0.00     0.062 C 
HETATM    2  N1  UNL     1       2.825  21.073  14.849  1.00  0.00    -0.325 N 
ATOM      3  H1  UNL     1       3.820  21.225  15.012  1.00  0.00     0.169 HD
HETATM    4  C6  UNL     1       2.245  20.691  16.011  1.00  0.00     0.244 C 
HETATM    5  O1  UNL     1       1.853  19.534  16.387  1.00  0.00    -0.271 OA
HETATM    6  C7  UNL     1       2.013  21.745  17.045  1.00  0.00     0.175 C 
HETATM    7  N2  UNL     1       0.792  21.458  17.737  1.00  0.00    -0.366 N 
ATOM      8  H2  UNL     1       0.939  21.163  18.703  1.00  0.00     0.161 HD
HETATM    9  C10 UNL     1      -0.556  21.494  17.374  1.00  0.00     0.083 C 
HETATM   10  N3  UNL     1      -1.195  22.524  17.946  1.00  0.00    -0.388 N 
ATOM     11  H31 UNL     1      -2.179  22.551  17.680  1.00  0.00     0.157 HD
ATOM     12  H32 UNL     1      -0.563  23.082  18.520  1.00  0.00     0.157 HD
HETATM   13  C11 UNL     1      -1.446  20.708  16.565  1.00  0.00     0.132 C 
HETATM   14  C20 UNL     1      -2.116  21.266  15.411  1.00  0.00     0.127 C 
HETATM   15  N8  UNL     1      -1.939  22.357  14.547  1.00  0.00    -0.343 N 
HETATM   16  C21 UNL     1      -2.973  23.369  14.365  1.00  0.00     0.154 C 
HETATM   17  C22 UNL     1      -0.733  22.649  13.730  1.00  0.00     0.101 C 
HETATM   18  C23 UNL     1      -1.231  23.241  12.397  1.00  0.00     0.063 C 
HETATM   19  C24 UNL     1       0.013  23.759  14.415  1.00  0.00     0.063 C 
HETATM   20  N9  UNL     1      -0.008  21.486  13.400  1.00  0.00    -0.343 N 
ATOM     21  H9  UNL     1      -0.572  20.645  13.516  1.00  0.00     0.164 HD
HETATM   22  C25 UNL     1       1.257  21.191  12.965  1.00  0.00     0.161 C 
ENDROOT
BRANCH  13  23
HETATM   23  C12 UNL     1      -2.521  20.123  17.503  1.00  0.00     0.077 C 
BRANCH  23  24
HETATM   24  C13 UNL     1      -2.139  18.948  18.261  1.00  0.00     0.012 A 
HETATM   25  C14 UNL     1      -1.822  18.942  19.596  1.00  0.00     0.025 A 
HETATM   26  C15 UNL     1      -1.487  17.770  20.274  1.00  0.00     0.006 A 
HETATM   27  C16 UNL     1      -1.472  16.575  19.596  1.00  0.00     0.048 A 
HETATM   28  C17 UNL     1      -1.797  16.584  18.233  1.00  0.00     0.101 A 
HETATM   29  N7  UNL     1      -2.111  17.733  17.621  1.00  0.00    -0.346 N 
ATOM     30  H7  UNL     1      -2.341  17.704  16.628  1.00  0.00     0.167 HD
BRANCH  28  31
HETATM   31  N4  UNL     1      -1.809  15.459  17.605  1.00  0.00    -0.370 N 
ATOM     32  H4  UNL     1      -2.153  15.452  16.645  1.00  0.00     0.161 HD
BRANCH  31  33
HETATM   33  C18 UNL     1      -1.362  14.199  18.176  1.00  0.00     0.182 C 
BRANCH  33  34
HETATM   34  C19 UNL     1      -0.666  13.443  17.108  1.00  0.00     0.200 C 
BRANCH  34  35
HETATM   35  N5  UNL     1      -1.304  13.114  16.096  1.00  0.00    -0.348 NA
BRANCH  35  36
HETATM   36  N6  UNL     1      -1.931  12.906  15.042  1.00  0.00    -0.281 N 
ATOM     37  H62 UNL     1      -2.349  13.805  15.277  1.00  0.00     0.191 HD
ATOM     38  H61 UNL     1      -2.390  12.644  14.170  1.00  0.00     0.191 HD
ENDBRANCH  35  36
ENDBRANCH  34  35
ENDBRANCH  33  34
ENDBRANCH  31  33
ENDBRANCH  28  31
ENDBRANCH  23  24
ENDBRANCH  13  23
BRANCH  14  39
HETATM   39  O2  UNL     1      -3.166  20.549  15.112  1.00  0.00    -0.349 OA
ATOM     40  H2  UNL     1      -3.955  21.067  15.220  1.00  0.00     0.219 HD
ENDBRANCH  14  39
BRANCH   6  41
HETATM   41  C8  UNL     1       3.245  21.562  17.979  1.00  0.00     0.030 C 
HETATM   42  C9  UNL     1       4.351  22.500  17.629  1.00  0.00     0.007 C 
ENDBRANCH   6  41
BRANCH  22  43
HETATM   43  O3  UNL     1       1.456  20.708  11.757  1.00  0.00    -0.345 OA
ATOM     44  H3  UNL     1       1.227  19.786  11.765  1.00  0.00     0.219 HD
ENDBRANCH  22  43
BRANCH   1  45
HETATM   45  C4  UNL     1       3.721  21.725  12.790  1.00  0.00     0.062 C 
BRANCH  45  46
HETATM   46  C3  UNL     1       5.021  21.991  13.383  1.00  0.00     0.006 C 
BRANCH  46  47
HETATM   47  C2  UNL     1       6.077  20.918  13.223  1.00  0.00    -0.004 C 
HETATM   48  C1  UNL     1       6.450  20.405  14.598  1.00  0.00     0.005 C 
ENDBRANCH  46  47
ENDBRANCH  45  46
ENDBRANCH   1  45
TORSDOF 13
ENDMDL
MODEL 3
REMARK VINA RESULT: -7.258977508      1.216      1.552
REMARK  13 active torsions:
REMARK  status: ('A' for Active; 'I' for Inactive)
REMARK    1  A    between atoms: C2_2  and  C3_3 
REMARK    2  A    between atoms: C3_3  and  C4_4 
REMARK    3  A    between atoms: C4_4  and  C5_5 
REMARK    4  A    between atoms: C7_10  and  C8_11 
REMARK    5  A    between atoms: C11_19  and  C12_20 
REMARK    6  A    between atoms: C12_20  and  C13_21 
REMARK    7  A    between atoms: C17_25  and  N4_26 
REMARK    8  A    between atoms: N4_26  and  C18_28 
REMARK    9  A    between atoms: C18_28  and  C19_29 
REMARK   10  A    between atoms: C19_29  and  N5_30 
REMARK   11  A    between atoms: N5_30  and  N6_31 
REMARK   12  A    between atoms: C20_36  and  O2_37 
REMARK   13  A    between atoms: C25_46  and  O3_47 
ROOT
HETATM    1  C5  UNL     1       3.447  21.562  13.599  1.00  0.00     0.062 C 
HETATM    2  N1  UNL     1       3.290  21.163  14.784  1.00  0.00    -0.325 N 
ATOM      3  H1  UNL     1       4.203  21.115  15.237  1.00  0.00     0.169 HD
HETATM    4  C6  UNL     1       2.343  20.775  15.672  1.00  0.00     0.244 C 
HETATM    5  O1  UNL     1       1.696  19.677  15.748  1.00  0.00    -0.271 OA
HETATM    6  C7  UNL     1       1.969  21.745  16.747  1.00  0.00     0.175 C 
HETATM    7  N2  UNL     1       0.569  21.614  17.024  1.00  0.00    -0.366 N 
ATOM      8  H2  UNL     1       0.380  21.201  17.938  1.00  0.00     0.161 HD
HETATM    9  C10 UNL     1      -0.590  21.929  16.314  1.00  0.00     0.083 C 
HETATM   10  N3  UNL     1      -1.215  22.994  16.834  1.00  0.00    -0.388 N 
ATOM     11  H31 UNL     1      -2.062  23.225  16.315  1.00  0.00     0.157 HD
ATOM     12  H32 UNL     1      -0.709  23.368  17.636  1.00  0.00     0.157 HD
HETATM   13  C11 UNL     1      -1.303  21.402  15.183  1.00  0.00     0.132 C 
HETATM   14  C20 UNL     1      -1.514  22.186  13.986  1.00  0.00     0.127 C 
HETATM   15  N8  UNL     1      -0.934  23.310  13.376  1.00  0.00    -0.343 N 
HETATM   16  C21 UNL     1      -1.712  24.504  13.070  1.00  0.00     0.154 C 
HETATM   17  C22 UNL     1       0.489  23.460  12.976  1.00  0.00     0.101 C 
HETATM   18  C23 UNL     1       0.499  24.264  11.662  1.00  0.00     0.063 C 
HETATM   19  C24 UNL     1       1.149  24.342  13.998  1.00  0.00     0.063 C 
HETATM   20  N9  UNL     1       1.104  22.225  12.690  1.00  0.00    -0.343 N 
ATOM     21  H9  UNL     1       0.417  21.492  12.519  1.00  0.00     0.164 HD
HETATM   22  C25 UNL     1       2.386  21.752  12.582  1.00  0.00     0.161 C 
ENDROOT
BRANCH  13  23
HETATM   23  C12 UNL     1      -2.681  20.930  15.691  1.00  0.00     0.077 C 
BRANCH  23  24
HETATM   24  C13 UNL     1      -2.682  19.754  16.539  1.00  0.00     0.012 A 
HETATM   25  C14 UNL     1      -2.931  19.759  17.889  1.00  0.00     0.025 A 
HETATM   26  C15 UNL     1      -2.943  18.588  18.645  1.00  0.00     0.006 A 
HETATM   27  C16 UNL     1      -2.699  17.382  18.032  1.00  0.00     0.048 A 
HETATM   28  C17 UNL     1      -2.445  17.380  16.654  1.00  0.00     0.101 A 
HETATM   29  N7  UNL     1      -2.442  18.529  15.967  1.00  0.00    -0.346 N 
ATOM     30  H7  UNL     1      -2.251  18.492  14.966  1.00  0.00     0.167 HD
BRANCH  28  31
HETATM   31  N4  UNL     1      -2.243  16.246  16.077  1.00  0.00    -0.370 N 
ATOM     32  H4  UNL     1      -2.193  16.232  15.059  1.00  0.00     0.161 HD
BRANCH  31  33
HETATM   33  C18 UNL     1      -2.081  14.986  16.783  1.00  0.00     0.182 C 
BRANCH  33  34
HETATM   34  C19 UNL     1      -1.784  13.941  15.776  1.00  0.00     0.200 C 
BRANCH  34  35
HETATM   35  N5  UNL     1      -0.916  13.093  16.033  1.00  0.00    -0.348 NA
BRANCH  35  36
HETATM   36  N6  UNL     1       0.041  12.330  16.255  1.00  0.00    -0.281 N 
ATOM     37  H62 UNL     1       0.473  12.884  15.515  1.00  0.00     0.191 HD
ATOM     38  H61 UNL     1       0.765  11.659  16.510  1.00  0.00     0.191 HD
ENDBRANCH  35  36
ENDBRANCH  34  35
ENDBRANCH  33  34
ENDBRANCH  31  33
ENDBRANCH  28  31
ENDBRANCH  23  24
ENDBRANCH  13  23
BRANCH  14  39
HETATM   39  O2  UNL     1      -2.519  21.705  13.306  1.00  0.00    -0.349 OA
ATOM     40  H2  UNL     1      -2.603  22.164  12.478  1.00  0.00     0.219 HD
ENDBRANCH  14  39
BRANCH   6  41
HETATM   41  C8  UNL     1       2.829  21.249  17.946  1.00  0.00     0.030 C 
HETATM   42  C9  UNL     1       4.029  22.107  18.160  1.00  0.00     0.007 C 
ENDBRANCH   6  41
BRANCH  22  43
HETATM   43  O3  UNL     1       2.862  21.366  11.416  1.00  0.00    -0.345 OA
ATOM     44  H3  UNL     1       2.227  21.593  10.747  1.00  0.00     0.219 HD
ENDBRANCH  22  43
BRANCH   1  45
HETATM   45  C4  UNL     1       4.840  21.847  13.173  1.00  0.00     0.062 C 
BRANCH  45  46
HETATM   46  C3  UNL     1       5.950  21.644  14.089  1.00  0.00     0.006 C 
BRANCH  46  47
HETATM   47  C2  UNL     1       6.726  20.352  13.947  1.00  0.00    -0.004 C 
HETATM   48  C1  UNL     1       7.653  20.479  12.756  1.00  0.00     0.005 C 
ENDBRANCH  46  47
ENDBRANCH  45  46
ENDBRANCH   1  45
TORSDOF 13
ENDMDL
MODEL 4
REMARK VINA RESULT: -7.071193898      1.339      1.702
REMARK  13 active torsions:
REMARK  status: ('A' for Active; 'I' for Inactive)
REMARK    1  A    between atoms: C2_2  and  C3_3 
REMARK    2  A    between atoms: C3_3  and  C4_4 
REMARK    3  A    between atoms: C4_4  and  C5_5 
REMARK    4  A    between atoms: C7_10  and  C8_11 
REMARK    5  A    between atoms: C11_19  and  C12_20 
REMARK    6  A    between atoms: C12_20  and  C13_21 
REMARK    7  A    between atoms: C17_25  and  N4_26 
REMARK    8  A    between atoms: N4_26  and  C18_28 
REMARK    9  A    between atoms: C18_28  and  C19_29 
REMARK   10  A    between atoms: C19_29  and  N5_30 
REMARK   11  A    between atoms: N5_30  and  N6_31 
REMARK   12  A    between atoms: C20_36  and  O2_37 
REMARK   13  A    between atoms: C25_46  and  O3_47 
ROOT
HETATM    1  C5  UNL     1       4.172  21.881  14.839  1.00  0.00     0.062 C 
HETATM    2  N1  UNL     1       3.930  21.547  16.030  1.00  0.00    -0.325 N 
ATOM      3  H1  UNL     1       4.777  21.671  16.584  1.00  0.00     0.169 HD
HETATM    4  C6  UNL     1       2.946  21.082  16.836  1.00  0.00     0.244 C 
HETATM    5  O1  UNL     1       2.459  19.905  16.936  1.00  0.00    -0.271 OA
HETATM    6  C7  UNL     1       2.306  22.055  17.773  1.00  0.00     0.175 C 
HETATM    7  N2  UNL     1       0.917  21.730  17.904  1.00  0.00    -0.366 N 
ATOM      8  H2  UNL     1       0.677  21.358  18.823  1.00  0.00     0.161 HD
HETATM    9  C10 UNL     1      -0.180  21.813  17.043  1.00  0.00     0.083 C 
HETATM   10  N3  UNL     1      -1.011  22.803  17.395  1.00  0.00    -0.388 N 
ATOM     11  H31 UNL     1      -1.812  22.864  16.766  1.00  0.00     0.157 HD
ATOM     12  H32 UNL     1      -0.667  23.306  18.213  1.00  0.00     0.157 HD
HETATM   13  C11 UNL     1      -0.664  21.105  15.891  1.00  0.00     0.132 C 
HETATM   14  C20 UNL     1      -0.836  21.761  14.613  1.00  0.00     0.127 C 
HETATM   15  N8  UNL     1      -0.354  22.915  13.976  1.00  0.00    -0.343 N 
HETATM   16  C21 UNL     1      -1.251  23.951  13.481  1.00  0.00     0.154 C 
HETATM   17  C22 UNL     1       1.071  23.253  13.725  1.00  0.00     0.101 C 
HETATM   18  C23 UNL     1       1.127  23.956  12.355  1.00  0.00     0.063 C 
HETATM   19  C24 UNL     1       1.466  24.296  14.733  1.00  0.00     0.063 C 
HETATM   20  N9  UNL     1       1.889  22.110  13.619  1.00  0.00    -0.343 N 
ATOM     21  H9  UNL     1       1.341  21.270  13.437  1.00  0.00     0.164 HD
HETATM   22  C25 UNL     1       3.229  21.834  13.697  1.00  0.00     0.161 C 
ENDROOT
BRANCH  13  23
HETATM   23  C12 UNL     1      -2.011  20.463  16.281  1.00  0.00     0.077 C 
BRANCH  23  24
HETATM   24  C13 UNL     1      -1.950  19.387  17.250  1.00  0.00     0.012 A 
HETATM   25  C14 UNL     1      -2.207  19.523  18.592  1.00  0.00     0.025 A 
HETATM   26  C15 UNL     1      -2.157  18.440  19.470  1.00  0.00     0.006 A 
HETATM   27  C16 UNL     1      -1.843  17.191  18.990  1.00  0.00     0.048 A 
HETATM   28  C17 UNL     1      -1.582  17.056  17.620  1.00  0.00     0.101 A 
HETATM   29  N7  UNL     1      -1.640  18.123  16.813  1.00  0.00    -0.346 N 
ATOM     30  H7  UNL     1      -1.443  17.990  15.822  1.00  0.00     0.167 HD
BRANCH  28  31
HETATM   31  N4  UNL     1      -1.315  15.880  17.168  1.00  0.00    -0.370 N 
ATOM     32  H4  UNL     1      -1.085  15.790  16.178  1.00  0.00     0.161 HD
BRANCH  31  33
HETATM   33  C18 UNL     1      -1.318  14.672  17.975  1.00  0.00     0.182 C 
BRANCH  33  34
HETATM   34  C19 UNL     1      -0.765  13.575  17.148  1.00  0.00     0.200 C 
BRANCH  34  35
HETATM   35  N5  UNL     1      -1.389  13.217  16.136  1.00  0.00    -0.348 NA
BRANCH  35  36
HETATM   36  N6  UNL     1      -1.975  12.968  15.068  1.00  0.00    -0.281 N 
ATOM     37  H62 UNL     1      -1.206  13.513  14.680  1.00  0.00     0.191 HD
ATOM     38  H61 UNL     1      -2.527  12.711  14.250  1.00  0.00     0.191 HD
ENDBRANCH  35  36
ENDBRANCH  34  35
ENDBRANCH  33  34
ENDBRANCH  31  33
ENDBRANCH  28  31
ENDBRANCH  23  24
ENDBRANCH  13  23
BRANCH  14  39
HETATM   39  O2  UNL     1      -1.670  21.084  13.870  1.00  0.00    -0.349 OA
ATOM     40  H2  UNL     1      -1.337  21.020  12.982  1.00  0.00     0.219 HD
ENDBRANCH  14  39
BRANCH   6  41
HETATM   41  C8  UNL     1       3.074  21.782  19.100  1.00  0.00     0.030 C 
HETATM   42  C9  UNL     1       2.172  21.259  20.166  1.00  0.00     0.007 C 
ENDBRANCH   6  41
BRANCH  22  43
HETATM   43  O3  UNL     1       3.896  21.445  12.630  1.00  0.00    -0.345 OA
ATOM     44  H3  UNL     1       3.294  20.984  12.057  1.00  0.00     0.219 HD
ENDBRANCH  22  43
BRANCH   1  45
HETATM   45  C4  UNL     1       5.551  22.346  14.548  1.00  0.00     0.062 C 
BRANCH  45  46
HETATM   46  C3  UNL     1       6.699  21.527  14.900  1.00  0.00     0.006 C 
BRANCH  46  47
HETATM   47  C2  UNL     1       6.892  20.247  14.115  1.00  0.00    -0.004 C 
HETATM   48  C1  UNL     1       7.489  20.597  12.769  1.00  0.00     0.005 C 
ENDBRANCH  46  47
ENDBRANCH  45  46
ENDBRANCH   1  45
TORSDOF 13
ENDMDL
MODEL 5
REMARK VINA RESULT: -6.834143662      2.459      7.869
REMARK  13 active torsions:
REMARK  status: ('A' for Active; 'I' for Inactive)
REMARK    1  A    between atoms: C2_2  and  C3_3 
REMARK    2  A    between atoms: C3_3  and  C4_4 
REMARK    3  A    between atoms: C4_4  and  C5_5 
REMARK    4  A    between atoms: C7_10  and  C8_11 
REMARK    5  A    between atoms: C11_19  and  C12_20 
REMARK    6  A    between atoms: C12_20  and  C13_21 
REMARK    7  A    between atoms: C17_25  and  N4_26 
REMARK    8  A    between atoms: N4_26  and  C18_28 
REMARK    9  A    between atoms: C18_28  and  C19_29 
REMARK   10  A    between atoms: C19_29  and  N5_30 
REMARK   11  A    between atoms: N5_30  and  N6_31 
REMARK   12  A    between atoms: C20_36  and  O2_37 
REMARK   13  A    between atoms: C25_46  and  O3_47 
ROOT
HETATM    1  C5  UNL     1      -0.779  17.404  18.103  1.00  0.00     0.062 C 
HETATM    2  N1  UNL     1      -0.698  18.331  17.254  1.00  0.00    -0.325 N 
ATOM      3  H1  UNL     1      -1.385  18.162  16.518  1.00  0.00     0.169 HD
HETATM    4  C6  UNL     1      -0.026  19.472  16.969  1.00  0.00     0.244 C 
HETATM    5  O1  UNL     1       1.156  19.632  16.514  1.00  0.00    -0.271 OA
HETATM    6  C7  UNL     1      -0.737  20.767  17.202  1.00  0.00     0.175 C 
HETATM    7  N2  UNL     1       0.210  21.743  17.651  1.00  0.00    -0.366 N 
ATOM      8  H2  UNL     1       0.392  22.472  16.961  1.00  0.00     0.161 HD
HETATM    9  C10 UNL     1       0.937  21.912  18.831  1.00  0.00     0.083 C 
HETATM   10  N3  UNL     1       0.467  22.933  19.561  1.00  0.00    -0.388 N 
ATOM     11  H31 UNL     1       0.998  23.056  20.423  1.00  0.00     0.157 HD
ATOM     12  H32 UNL     1      -0.337  23.372  19.113  1.00  0.00     0.157 HD
HETATM   13  C11 UNL     1       2.071  21.294  19.462  1.00  0.00     0.132 C 
HETATM   14  C20 UNL     1       1.965  20.657  20.756  1.00  0.00     0.127 C 
HETATM   15  N8  UNL     1       0.947  20.120  21.559  1.00  0.00    -0.343 N 
HETATM   16  C21 UNL     1       0.698  20.605  22.911  1.00  0.00     0.154 C 
HETATM   17  C22 UNL     1       0.002  19.038  21.179  1.00  0.00     0.101 C 
HETATM   18  C23 UNL     1      -0.234  18.189  22.443  1.00  0.00     0.063 C 
HETATM   19  C24 UNL     1      -1.319  19.687  20.872  1.00  0.00     0.063 C 
HETATM   20  N9  UNL     1       0.538  18.166  20.210  1.00  0.00    -0.343 N 
ATOM     21  H9  UNL     1       1.553  18.241  20.156  1.00  0.00     0.164 HD
HETATM   22  C25 UNL     1       0.051  17.244  19.321  1.00  0.00     0.161 C 
ENDROOT
BRANCH  13  23
HETATM   23  C12 UNL     1       3.185  22.357  19.544  1.00  0.00     0.077 C 
BRANCH  23  24
HETATM   24  C13 UNL     1       4.116  22.396  18.434  1.00  0.00     0.012 A 
HETATM   25  C14 UNL     1       5.329  23.039  18.447  1.00  0.00     0.025 A 
HETATM   26  C15 UNL     1       6.192  23.016  17.352  1.00  0.00     0.006 A 
HETATM   27  C16 UNL     1       5.830  22.332  16.217  1.00  0.00     0.048 A 
HETATM   28  C17 UNL     1       4.592  21.676  16.206  1.00  0.00     0.101 A 
HETATM   29  N7  UNL     1       3.793  21.725  17.280  1.00  0.00    -0.346 N 
ATOM     30  H7  UNL     1       2.898  21.239  17.238  1.00  0.00     0.167 HD
BRANCH  28  31
HETATM   31  N4  UNL     1       4.266  21.013  15.151  1.00  0.00    -0.370 N 
ATOM     32  H4  UNL     1       3.738  20.149  15.275  1.00  0.00     0.161 HD
BRANCH  31  33
HETATM   33  C18 UNL     1       4.602  21.414  13.796  1.00  0.00     0.182 C 
BRANCH  33  34
HETATM   34  C19 UNL     1       3.376  21.961  13.171  1.00  0.00     0.200 C 
BRANCH  34  35
HETATM   35  N5  UNL     1       2.308  21.345  13.312  1.00  0.00    -0.348 NA
BRANCH  35  36
HETATM   36  N6  UNL     1       1.308  20.620  13.455  1.00  0.00    -0.281 N 
ATOM     37  H62 UNL     1       1.836  20.007  12.835  1.00  0.00     0.191 HD
ATOM     38  H61 UNL     1       0.448  20.101  13.635  1.00  0.00     0.191 HD
ENDBRANCH  35  36
ENDBRANCH  34  35
ENDBRANCH  33  34
ENDBRANCH  31  33
ENDBRANCH  28  31
ENDBRANCH  23  24
ENDBRANCH  13  23
BRANCH  14  39
HETATM   39  O2  UNL     1       3.144  20.570  21.310  1.00  0.00    -0.349 OA
ATOM     40  H2  UNL     1       3.533  19.724  21.119  1.00  0.00     0.219 HD
ENDBRANCH  14  39
BRANCH   6  41
HETATM   41  C8  UNL     1      -1.265  21.109  15.777  1.00  0.00     0.030 C 
HETATM   42  C9  UNL     1      -2.729  20.856  15.653  1.00  0.00     0.007 C 
ENDBRANCH   6  41
BRANCH  22  43
HETATM   43  O3  UNL     1       0.307  15.962  19.477  1.00  0.00    -0.345 OA
ATOM     44  H3  UNL     1       1.121  15.766  19.029  1.00  0.00     0.219 HD
ENDBRANCH  22  43
BRANCH   1  45
HETATM   45  C4  UNL     1      -1.792  16.351  17.842  1.00  0.00     0.062 C 
BRANCH  45  46
HETATM   46  C3  UNL     1      -2.093  15.934  16.483  1.00  0.00     0.006 C 
BRANCH  46  47
HETATM   47  C2  UNL     1      -2.112  14.444  16.213  1.00  0.00    -0.004 C 
HETATM   48  C1  UNL     1      -1.447  13.739  17.377  1.00  0.00     0.005 C 
ENDBRANCH  46  47
ENDBRANCH  45  46
ENDBRANCH   1  45
TORSDOF 13
ENDMDL
