MODEL 1
REMARK VINA RESULT: -7.720454990      0.000      0.000
REMARK  9 active torsions:
REMARK  status: ('A' for Active; 'I' for Inactive)
REMARK    1  A    between atoms: C6_6  and  N1_7 
REMARK    2  A    between atoms: C7_11  and  C8_12 
REMARK    3  A    between atoms: C8_12  and  C9_13 
REMARK    4  A    between atoms: C9_13  and  N2_14 
REMARK       I    between atoms: N2_14  and  C11_16 
REMARK    5  A    between atoms: C11_16  and  C12_18 
REMARK    6  A    between atoms: C12_18  and  C13_19 
REMARK    7  A    between atoms: C13_19  and  N3_20 
REMARK    8  A    between atoms: C18_25  and  N4_26 
REMARK       I    between atoms: N4_26  and  C19_28 
REMARK    9  A    between atoms: C19_28  and  C20_30 
ROOT
HETATM    1  N2  UNL     1       3.860  23.051  18.745  1.00  0.00    -0.356 N 
HETATM    2  C10 UNL     1       5.034  22.330  19.194  1.00  0.00     0.152 C 
HETATM    3  C11 UNL     1       2.611  22.379  18.812  1.00  0.00     0.221 C 
HETATM    4  O1  UNL     1       1.591  23.021  18.415  1.00  0.00    -0.273 OA
ENDROOT
BRANCH   3   5
HETATM    5  C12 UNL     1       2.485  21.009  19.314  1.00  0.00     0.131 C 
BRANCH   5   6
HETATM    6  C13 UNL     1       1.193  20.864  20.070  1.00  0.00     0.246 C 
BRANCH   6   7
HETATM    7  N3  UNL     1       0.251  19.978  19.435  1.00  0.00    -0.066 N 
HETATM    8  C14 UNL     1      -0.931  20.676  18.974  1.00  0.00     0.238 C 
HETATM    9  C15 UNL     1      -2.128  19.857  19.409  1.00  0.00     0.036 C 
HETATM   10  C16 UNL     1      -1.476  18.485  19.589  1.00  0.00     0.036 C 
HETATM   11  C17 UNL     1      -0.197  18.908  20.308  1.00  0.00     0.244 C 
HETATM   12  C18 UNL     1      -1.205  17.935  18.229  1.00  0.00     0.091 C 
HETATM   13  C23 UNL     1       0.170  18.209  17.710  1.00  0.00     0.053 C 
HETATM   14  C24 UNL     1       0.874  19.364  18.304  1.00  0.00     0.239 C 
BRANCH  12  15
HETATM   15  N4  UNL     1      -1.493  16.509  18.250  1.00  0.00    -0.355 N 
HETATM   16  C19 UNL     1      -1.859  15.797  17.081  1.00  0.00     0.232 C 
HETATM   17  O2  UNL     1      -1.932  16.428  16.001  1.00  0.00    -0.273 OA
ATOM     18  H4  UNL     1      -1.430  16.006  19.134  1.00  0.00     0.162 HD
BRANCH  16  19
HETATM   19  C20 UNL     1      -2.154  14.350  17.092  1.00  0.00     0.187 C 
HETATM   20  C21 UNL     1      -1.301  13.520  17.993  1.00  0.00     0.146 C 
HETATM   21  N5  UNL     1      -0.392  13.272  16.910  1.00  0.00    -0.359 N 
HETATM   22  C22 UNL     1      -1.429  13.626  16.013  1.00  0.00     0.232 C 
ATOM     23  H5  UNL     1       0.579  12.972  16.823  1.00  0.00     0.162 HD
HETATM   24  O3  UNL     1      -1.587  13.377  14.788  1.00  0.00    -0.273 OA
ENDBRANCH  16  19
ENDBRANCH  12  15
ENDBRANCH   6   7
ENDBRANCH   5   6
ENDBRANCH   3   5
BRANCH   1  25
HETATM   25  C9  UNL     1       3.980  24.418  18.245  1.00  0.00     0.125 C 
BRANCH  25  26
HETATM   26  C8  UNL     1       4.430  24.426  16.827  1.00  0.00     0.027 C 
BRANCH  26  27
HETATM   27  C7  UNL     1       3.680  23.495  15.908  1.00  0.00     0.023 C 
HETATM   28  C6  UNL     1       2.823  24.242  14.896  1.00  0.00     0.188 C 
HETATM   29  C5  UNL     1       2.794  23.340  13.649  1.00  0.00     0.043 C 
HETATM   30  C4  UNL     1       3.525  22.162  14.001  1.00  0.00    -0.030 C 
HETATM   31  C3  UNL     1       4.595  21.658  13.035  1.00  0.00     0.015 C 
HETATM   32  C25 UNL     1       4.550  22.711  15.034  1.00  0.00     0.005 C 
HETATM   33  C28 UNL     1       2.874  20.998  14.610  1.00  0.00    -0.009 C 
HETATM   34  C2  UNL     1       5.456  20.857  14.033  1.00  0.00    -0.013 C 
HETATM   35  C1  UNL     1       6.904  21.170  13.835  1.00  0.00     0.010 C 
HETATM   36  C26 UNL     1       5.053  21.387  15.424  1.00  0.00    -0.005 C 
HETATM   37  C27 UNL     1       3.789  20.635  15.776  1.00  0.00     0.010 C 
HETATM   38  C29 UNL     1       1.449  21.097  14.978  1.00  0.00     0.011 C 
BRANCH  28  39
HETATM   39  N1  UNL     1       1.486  24.469  15.404  1.00  0.00    -0.075 N 
ATOM     40  H13 UNL     1       0.957  23.600  15.473  1.00  0.00     0.274 HD
ATOM     41  H12 UNL     1       1.498  24.722  16.392  1.00  0.00     0.274 HD
ATOM     42  H11 UNL     1       0.994  25.165  14.843  1.00  0.00     0.274 HD
ENDBRANCH  28  39
ENDBRANCH  26  27
ENDBRANCH  25  26
ENDBRANCH   1  25
TORSDOF 9
ENDMDL
MODEL 2
REMARK VINA RESULT: -7.599761840      1.443      2.521
REMARK  9 active torsions:
REMARK  status: ('A' for Active; 'I' for Inactive)
REMARK    1  A    between atoms: C6_6  and  N1_7 
REMARK    2  A    between atoms: C7_11  and  C8_12 
REMARK    3  A    between atoms: C8_12  and  C9_13 
REMARK    4  A    between atoms: C9_13  and  N2_14 
REMARK       I    between atoms: N2_14  and  C11_16 
REMARK    5  A    between atoms: C11_16  and  C12_18 
REMARK    6  A    between atoms: C12_18  and  C13_19 
REMARK    7  A    between atoms: C13_19  and  N3_20 
REMARK    8  A    between atoms: C18_25  and  N4_26 
REMARK       I    between atoms: N4_26  and  C19_28 
REMARK    9  A    between atoms: C19_28  and  C20_30 
ROOT
HETATM    1  N2  UNL     1       3.187  22.969  19.455  1.00  0.00    -0.356 N 
HETATM    2  C10 UNL     1       2.069  23.888  19.383  1.00  0.00     0.152 C 
HETATM    3  C11 UNL     1       3.059  21.845  20.313  1.00  0.00     0.221 C 
HETATM    4  O1  UNL     1       4.045  21.049  20.368  1.00  0.00    -0.273 OA
ENDROOT
BRANCH   3   5
HETATM    5  C12 UNL     1       1.853  21.599  21.106  1.00  0.00     0.131 C 
BRANCH   5   6
HETATM    6  C13 UNL     1       1.710  20.125  21.367  1.00  0.00     0.246 C 
BRANCH   6   7
HETATM    7  N3  UNL     1       0.725  19.486  20.532  1.00  0.00    -0.066 N 
HETATM    8  C14 UNL     1      -0.250  20.425  20.019  1.00  0.00     0.238 C 
HETATM    9  C15 UNL     1      -1.615  19.801  20.220  1.00  0.00     0.036 C 
HETATM   10  C16 UNL     1      -1.235  18.323  20.319  1.00  0.00     0.036 C 
HETATM   11  C17 UNL     1      -0.010  18.440  21.223  1.00  0.00     0.244 C 
HETATM   12  C18 UNL     1      -0.882  17.858  18.946  1.00  0.00     0.091 C 
HETATM   13  C23 UNL     1       0.577  17.923  18.622  1.00  0.00     0.053 C 
HETATM   14  C24 UNL     1       1.379  18.872  19.419  1.00  0.00     0.239 C 
BRANCH  12  15
HETATM   15  N4  UNL     1      -1.407  16.512  18.774  1.00  0.00    -0.355 N 
HETATM   16  C19 UNL     1      -1.601  15.936  17.494  1.00  0.00     0.232 C 
HETATM   17  O2  UNL     1      -1.306  16.620  16.486  1.00  0.00    -0.273 OA
ATOM     18  H4  UNL     1      -1.643  15.965  19.601  1.00  0.00     0.162 HD
BRANCH  16  19
HETATM   19  C20 UNL     1      -2.133  14.572  17.309  1.00  0.00     0.187 C 
HETATM   20  C21 UNL     1      -1.320  13.471  17.904  1.00  0.00     0.146 C 
HETATM   21  N5  UNL     1      -0.622  13.309  16.661  1.00  0.00    -0.359 N 
HETATM   22  C22 UNL     1      -1.695  13.973  16.019  1.00  0.00     0.232 C 
ATOM     23  H5  UNL     1       0.263  12.895  16.367  1.00  0.00     0.162 HD
HETATM   24  O3  UNL     1      -2.057  13.989  14.813  1.00  0.00    -0.273 OA
ENDBRANCH  16  19
ENDBRANCH  12  15
ENDBRANCH   6   7
ENDBRANCH   5   6
ENDBRANCH   3   5
BRANCH   1  25
HETATM   25  C9  UNL     1       4.392  23.209  18.666  1.00  0.00     0.125 C 
BRANCH  25  26
HETATM   26  C8  UNL     1       4.064  23.916  17.399  1.00  0.00     0.027 C 
BRANCH  26  27
HETATM   27  C7  UNL     1       4.020  23.046  16.168  1.00  0.00     0.023 C 
HETATM   28  C6  UNL     1       5.161  22.040  16.125  1.00  0.00     0.188 C 
HETATM   29  C5  UNL     1       4.594  20.821  15.376  1.00  0.00     0.043 C 
HETATM   30  C4  UNL     1       3.268  21.184  14.984  1.00  0.00    -0.030 C 
HETATM   31  C3  UNL     1       2.133  20.201  15.267  1.00  0.00     0.015 C 
HETATM   32  C25 UNL     1       2.852  22.170  16.112  1.00  0.00     0.005 C 
HETATM   33  C28 UNL     1       2.991  21.845  13.705  1.00  0.00    -0.009 C 
HETATM   34  C2  UNL     1       0.954  21.196  15.270  1.00  0.00    -0.013 C 
HETATM   35  C1  UNL     1       0.070  20.946  16.449  1.00  0.00     0.010 C 
HETATM   36  C26 UNL     1       1.602  22.582  15.462  1.00  0.00    -0.005 C 
HETATM   37  C27 UNL     1       2.059  22.993  14.080  1.00  0.00     0.010 C 
HETATM   38  C29 UNL     1       4.128  22.252  12.859  1.00  0.00     0.011 C 
BRANCH  28  39
HETATM   39  N1  UNL     1       6.316  22.581  15.439  1.00  0.00    -0.075 N 
ATOM     40  H13 UNL     1       6.388  22.225  14.486  1.00  0.00     0.274 HD
ATOM     41  H12 UNL     1       6.196  23.571  15.227  1.00  0.00     0.274 HD
ATOM     42  H11 UNL     1       7.170  22.410  15.969  1.00  0.00     0.274 HD
ENDBRANCH  28  39
ENDBRANCH  26  27
ENDBRANCH  25  26
ENDBRANCH   1  25
TORSDOF 9
ENDMDL
MODEL 3
REMARK VINA RESULT: -7.461414861      1.367      1.828
REMARK  9 active torsions:
REMARK  status: ('A' for Active; 'I' for Inactive)
REMARK    1  A    between atoms: C6_6  and  N1_7 
REMARK    2  A    between atoms: C7_11  and  C8_12 
REMARK    3  A    between atoms: C8_12  and  C9_13 
REMARK    4  A    between atoms: C9_13  and  N2_14 
REMARK       I    between atoms: N2_14  and  C11_16 
REMARK    5  A    between atoms: C11_16  and  C12_18 
REMARK    6  A    between atoms: C12_18  and  C13_19 
REMARK    7  A    between atoms: C13_19  and  N3_20 
REMARK    8  A    between atoms: C18_25  and  N4_26 
REMARK       I    between atoms: N4_26  and  C19_28 
REMARK    9  A    between atoms: C19_28  and  C20_30 
ROOT
HETATM    1  N2  UNL     1       3.036  22.789  19.847  1.00  0.00    -0.356 N 
HETATM    2  C10 UNL     1       1.832  23.329  19.247  1.00  0.00     0.152 C 
HETATM    3  C11 UNL     1       2.883  21.931  20.968  1.00  0.00     0.221 C 
HETATM    4  O1  UNL     1       3.945  21.466  21.485  1.00  0.00    -0.273 OA
ENDROOT
BRANCH   3   5
HETATM    5  C12 UNL     1       1.569  21.586  21.517  1.00  0.00     0.131 C 
BRANCH   5   6
HETATM    6  C13 UNL     1       1.475  20.098  21.709  1.00  0.00     0.246 C 
BRANCH   6   7
HETATM    7  N3  UNL     1       0.599  19.450  20.766  1.00  0.00    -0.066 N 
HETATM    8  C14 UNL     1      -0.260  20.393  20.082  1.00  0.00     0.238 C 
HETATM    9  C15 UNL     1      -1.660  19.816  20.107  1.00  0.00     0.036 C 
HETATM   10  C16 UNL     1      -1.347  18.333  20.317  1.00  0.00     0.036 C 
HETATM   11  C17 UNL     1      -0.261  18.456  21.384  1.00  0.00     0.244 C 
HETATM   12  C18 UNL     1      -0.816  17.800  19.029  1.00  0.00     0.091 C 
HETATM   13  C23 UNL     1       0.675  17.811  18.917  1.00  0.00     0.053 C 
HETATM   14  C24 UNL     1       1.386  18.772  19.784  1.00  0.00     0.239 C 
BRANCH  12  15
HETATM   15  N4  UNL     1      -1.355  16.463  18.834  1.00  0.00    -0.355 N 
HETATM   16  C19 UNL     1      -1.555  15.910  17.545  1.00  0.00     0.232 C 
HETATM   17  O2  UNL     1      -1.252  16.606  16.548  1.00  0.00    -0.273 OA
ATOM     18  H4  UNL     1      -1.598  15.905  19.653  1.00  0.00     0.162 HD
BRANCH  16  19
HETATM   19  C20 UNL     1      -2.101  14.554  17.338  1.00  0.00     0.187 C 
HETATM   20  C21 UNL     1      -1.303  13.435  17.921  1.00  0.00     0.146 C 
HETATM   21  N5  UNL     1      -0.602  13.284  16.678  1.00  0.00    -0.359 N 
HETATM   22  C22 UNL     1      -1.664  13.970  16.042  1.00  0.00     0.232 C 
ATOM     23  H5  UNL     1       0.280  12.865  16.382  1.00  0.00     0.162 HD
HETATM   24  O3  UNL     1      -2.021  14.007  14.834  1.00  0.00    -0.273 OA
ENDBRANCH  16  19
ENDBRANCH  12  15
ENDBRANCH   6   7
ENDBRANCH   5   6
ENDBRANCH   3   5
BRANCH   1  25
HETATM   25  C9  UNL     1       4.348  23.128  19.304  1.00  0.00     0.125 C 
BRANCH  25  26
HETATM   26  C8  UNL     1       4.710  22.216  18.185  1.00  0.00     0.027 C 
BRANCH  26  27
HETATM   27  C7  UNL     1       4.463  22.763  16.802  1.00  0.00     0.023 C 
HETATM   28  C6  UNL     1       4.914  24.209  16.658  1.00  0.00     0.188 C 
HETATM   29  C5  UNL     1       5.343  24.353  15.188  1.00  0.00     0.043 C 
HETATM   30  C4  UNL     1       5.070  23.090  14.575  1.00  0.00    -0.030 C 
HETATM   31  C3  UNL     1       6.162  22.446  13.724  1.00  0.00     0.015 C 
HETATM   32  C25 UNL     1       5.251  22.104  15.764  1.00  0.00     0.005 C 
HETATM   33  C28 UNL     1       3.773  22.792  13.957  1.00  0.00    -0.009 C 
HETATM   34  C2  UNL     1       5.699  20.978  13.816  1.00  0.00    -0.013 C 
HETATM   35  C1  UNL     1       6.861  20.088  14.120  1.00  0.00     0.010 C 
HETATM   36  C26 UNL     1       4.751  20.935  15.032  1.00  0.00    -0.005 C 
HETATM   37  C27 UNL     1       3.417  21.412  14.502  1.00  0.00     0.010 C 
HETATM   38  C29 UNL     1       2.687  23.781  14.082  1.00  0.00     0.011 C 
BRANCH  28  39
HETATM   39  N1  UNL     1       3.842  25.130  16.980  1.00  0.00    -0.075 N 
ATOM     40  H13 UNL     1       2.979  24.886  16.494  1.00  0.00     0.274 HD
ATOM     41  H12 UNL     1       3.520  25.009  17.940  1.00  0.00     0.274 HD
ATOM     42  H11 UNL     1       4.119  26.094  16.795  1.00  0.00     0.274 HD
ENDBRANCH  28  39
ENDBRANCH  26  27
ENDBRANCH  25  26
ENDBRANCH   1  25
TORSDOF 9
ENDMDL
MODEL 4
REMARK VINA RESULT: -7.416616603      1.832      2.464
REMARK  9 active torsions:
REMARK  status: ('A' for Active; 'I' for Inactive)
REMARK    1  A    between atoms: C6_6  and  N1_7 
REMARK    2  A    between atoms: C7_11  and  C8_12 
REMARK    3  A    between atoms: C8_12  and  C9_13 
REMARK    4  A    between atoms: C9_13  and  N2_14 
REMARK       I    between atoms: N2_14  and  C11_16 
REMARK    5  A    between atoms: C11_16  and  C12_18 
REMARK    6  A    between atoms: C12_18  and  C13_19 
REMARK    7  A    between atoms: C13_19  and  N3_20 
REMARK    8  A    between atoms: C18_25  and  N4_26 
REMARK       I    between atoms: N4_26  and  C19_28 
REMARK    9  A    between atoms: C19_28  and  C20_30 
ROOT
HETATM    1  N2  UNL     1       5.003  22.894  20.308  1.00  0.00    -0.356 N 
HETATM    2  C10 UNL     1       5.947  22.289  21.226  1.00  0.00     0.152 C 
HETATM    3  C11 UNL     1       3.621  22.694  20.562  1.00  0.00     0.221 C 
HETATM    4  O1  UNL     1       2.804  23.229  19.751  1.00  0.00    -0.273 OA
ENDROOT
BRANCH   3   5
HETATM    5  C12 UNL     1       3.139  21.911  21.702  1.00  0.00     0.131 C 
BRANCH   5   6
HETATM    6  C13 UNL     1       1.667  21.644  21.549  1.00  0.00     0.246 C 
BRANCH   6   7
HETATM    7  N3  UNL     1       1.373  20.379  20.925  1.00  0.00    -0.066 N 
HETATM    8  C14 UNL     1       2.572  19.627  20.624  1.00  0.00     0.238 C 
HETATM    9  C15 UNL     1       2.429  19.113  19.206  1.00  0.00     0.036 C 
HETATM   10  C16 UNL     1       0.908  19.160  19.045  1.00  0.00     0.036 C 
HETATM   11  C17 UNL     1       0.631  20.519  19.684  1.00  0.00     0.244 C 
HETATM   12  C18 UNL     1       0.338  18.034  19.841  1.00  0.00     0.091 C 
HETATM   13  C23 UNL     1      -0.078  18.402  21.230  1.00  0.00     0.053 C 
HETATM   14  C24 UNL     1       0.568  19.597  21.809  1.00  0.00     0.239 C 
BRANCH  12  15
HETATM   15  N4  UNL     1      -0.766  17.459  19.088  1.00  0.00    -0.355 N 
HETATM   16  C19 UNL     1      -0.842  16.074  18.799  1.00  0.00     0.232 C 
HETATM   17  O2  UNL     1       0.079  15.331  19.212  1.00  0.00    -0.273 OA
ATOM     18  H4  UNL     1      -1.510  18.073  18.757  1.00  0.00     0.162 HD
BRANCH  16  19
HETATM   19  C20 UNL     1      -1.958  15.482  18.036  1.00  0.00     0.187 C 
HETATM   20  C21 UNL     1      -1.650  15.100  16.625  1.00  0.00     0.146 C 
HETATM   21  N5  UNL     1      -2.097  16.388  16.176  1.00  0.00    -0.359 N 
HETATM   22  C22 UNL     1      -2.807  16.521  17.394  1.00  0.00     0.232 C 
ATOM     23  H5  UNL     1      -1.962  16.960  15.342  1.00  0.00     0.162 HD
HETATM   24  O3  UNL     1      -3.773  17.264  17.714  1.00  0.00    -0.273 OA
ENDBRANCH  16  19
ENDBRANCH  12  15
ENDBRANCH   6   7
ENDBRANCH   5   6
ENDBRANCH   3   5
BRANCH   1  25
HETATM   25  C9  UNL     1       5.477  23.677  19.170  1.00  0.00     0.125 C 
BRANCH  25  26
HETATM   26  C8  UNL     1       5.795  22.795  18.015  1.00  0.00     0.027 C 
BRANCH  26  27
HETATM   27  C7  UNL     1       4.801  22.832  16.883  1.00  0.00     0.023 C 
HETATM   28  C6  UNL     1       4.467  24.252  16.447  1.00  0.00     0.188 C 
HETATM   29  C5  UNL     1       4.159  24.150  14.943  1.00  0.00     0.043 C 
HETATM   30  C4  UNL     1       4.250  22.760  14.618  1.00  0.00    -0.030 C 
HETATM   31  C3  UNL     1       5.069  22.355  13.395  1.00  0.00     0.015 C 
HETATM   32  C25 UNL     1       5.308  22.255  15.640  1.00  0.00     0.005 C 
HETATM   33  C28 UNL     1       3.093  21.865  14.711  1.00  0.00    -0.009 C 
HETATM   34  C2  UNL     1       5.382  20.898  13.792  1.00  0.00    -0.013 C 
HETATM   35  C1  UNL     1       6.830  20.600  13.567  1.00  0.00     0.010 C 
HETATM   36  C26 UNL     1       5.128  20.836  15.312  1.00  0.00    -0.005 C 
HETATM   37  C27 UNL     1       3.634  20.643  15.449  1.00  0.00     0.010 C 
HETATM   38  C29 UNL     1       1.834  22.390  15.271  1.00  0.00     0.011 C 
BRANCH  28  39
HETATM   39  N1  UNL     1       3.330  24.774  17.177  1.00  0.00    -0.075 N 
ATOM     40  H13 UNL     1       2.451  24.400  16.821  1.00  0.00     0.274 HD
ATOM     41  H12 UNL     1       3.287  24.397  18.124  1.00  0.00     0.274 HD
ATOM     42  H11 UNL     1       3.332  25.794  17.179  1.00  0.00     0.274 HD
ENDBRANCH  28  39
ENDBRANCH  26  27
ENDBRANCH  25  26
ENDBRANCH   1  25
TORSDOF 9
ENDMDL
MODEL 5
REMARK VINA RESULT: -7.410189672      3.072      4.686
REMARK  9 active torsions:
REMARK  status: ('A' for Active; 'I' for Inactive)
REMARK    1  A    between atoms: C6_6  and  N1_7 
REMARK    2  A    between atoms: C7_11  and  C8_12 
REMARK    3  A    between atoms: C8_12  and  C9_13 
REMARK    4  A    between atoms: C9_13  and  N2_14 
REMARK       I    between atoms: N2_14  and  C11_16 
REMARK    5  A    between atoms: C11_16  and  C12_18 
REMARK    6  A    between atoms: C12_18  and  C13_19 
REMARK    7  A    between atoms: C13_19  and  N3_20 
REMARK    8  A    between atoms: C18_25  and  N4_26 
REMARK       I    between atoms: N4_26  and  C19_28 
REMARK    9  A    between atoms: C19_28  and  C20_30 
ROOT
HETATM    1  N2  UNL     1       2.630  20.810  20.170  1.00  0.00    -0.356 N 
HETATM    2  C10 UNL     1       1.568  21.769  20.403  1.00  0.00     0.152 C 
HETATM    3  C11 UNL     1       2.291  19.432  20.215  1.00  0.00     0.221 C 
HETATM    4  O1  UNL     1       3.229  18.602  20.009  1.00  0.00    -0.273 OA
ENDROOT
BRANCH   3   5
HETATM    5  C12 UNL     1       0.927  18.969  20.483  1.00  0.00     0.131 C 
BRANCH   5   6
HETATM    6  C13 UNL     1       0.615  17.781  19.615  1.00  0.00     0.246 C 
BRANCH   6   7
HETATM    7  N3  UNL     1      -0.713  17.808  19.058  1.00  0.00    -0.066 N 
HETATM    8  C14 UNL     1      -1.432  16.575  19.296  1.00  0.00     0.238 C 
HETATM    9  C15 UNL     1      -2.076  16.177  17.985  1.00  0.00     0.036 C 
HETATM   10  C16 UNL     1      -2.115  17.529  17.271  1.00  0.00     0.036 C 
HETATM   11  C17 UNL     1      -0.719  18.038  17.623  1.00  0.00     0.244 C 
HETATM   12  C18 UNL     1      -3.191  18.342  17.908  1.00  0.00     0.091 C 
HETATM   13  C23 UNL     1      -2.721  19.248  19.002  1.00  0.00     0.053 C 
HETATM   14  C24 UNL     1      -1.451  18.876  19.656  1.00  0.00     0.239 C 
BRANCH  12  15
HETATM   15  N4  UNL     1      -3.882  19.081  16.863  1.00  0.00    -0.355 N 
HETATM   16  C19 UNL     1      -5.253  19.426  16.963  1.00  0.00     0.232 C 
HETATM   17  O2  UNL     1      -5.878  19.076  17.991  1.00  0.00    -0.273 OA
ATOM     18  H4  UNL     1      -3.363  19.360  16.031  1.00  0.00     0.162 HD
BRANCH  16  19
HETATM   19  C20 UNL     1      -5.962  20.175  15.907  1.00  0.00     0.187 C 
HETATM   20  C21 UNL     1      -6.770  21.342  16.370  1.00  0.00     0.146 C 
HETATM   21  N5  UNL     1      -7.929  20.502  16.477  1.00  0.00    -0.359 N 
HETATM   22  C22 UNL     1      -7.294  19.585  15.605  1.00  0.00     0.232 C 
ATOM     23  H5  UNL     1      -8.821  20.545  16.968  1.00  0.00     0.162 HD
HETATM   24  O3  UNL     1      -7.763  18.659  14.890  1.00  0.00    -0.273 OA
ENDBRANCH  16  19
ENDBRANCH  12  15
ENDBRANCH   6   7
ENDBRANCH   5   6
ENDBRANCH   3   5
BRANCH   1  25
HETATM   25  C9  UNL     1       3.990  21.265  19.901  1.00  0.00     0.125 C 
BRANCH  25  26
HETATM   26  C8  UNL     1       3.997  22.687  19.463  1.00  0.00     0.027 C 
BRANCH  26  27
HETATM   27  C7  UNL     1       4.386  22.917  18.025  1.00  0.00     0.023 C 
HETATM   28  C6  UNL     1       5.866  22.664  17.774  1.00  0.00     0.188 C 
HETATM   29  C5  UNL     1       5.948  22.163  16.321  1.00  0.00     0.043 C 
HETATM   30  C4  UNL     1       4.612  22.218  15.813  1.00  0.00    -0.030 C 
HETATM   31  C3  UNL     1       4.064  20.993  15.082  1.00  0.00     0.015 C 
HETATM   32  C25 UNL     1       3.765  21.979  17.094  1.00  0.00     0.005 C 
HETATM   33  C28 UNL     1       4.081  23.417  15.157  1.00  0.00    -0.009 C 
HETATM   34  C2  UNL     1       2.558  21.253  15.284  1.00  0.00    -0.013 C 
HETATM   35  C1  UNL     1       1.873  20.001  15.729  1.00  0.00     0.010 C 
HETATM   36  C26 UNL     1       2.478  22.263  16.446  1.00  0.00    -0.005 C 
HETATM   37  C27 UNL     1       2.713  23.613  15.806  1.00  0.00     0.010 C 
HETATM   38  C29 UNL     1       4.909  24.636  15.133  1.00  0.00     0.011 C 
BRANCH  28  39
HETATM   39  N1  UNL     1       6.645  23.871  17.953  1.00  0.00    -0.075 N 
ATOM     40  H13 UNL     1       7.575  23.667  18.319  1.00  0.00     0.274 HD
ATOM     41  H12 UNL     1       6.916  24.280  17.059  1.00  0.00     0.274 HD
ATOM     42  H11 UNL     1       6.150  24.543  18.539  1.00  0.00     0.274 HD
ENDBRANCH  28  39
ENDBRANCH  26  27
ENDBRANCH  25  26
ENDBRANCH   1  25
TORSDOF 9
ENDMDL
