MODEL 1
REMARK VINA RESULT: -6.086316963      0.000      0.000
REMARK  8 active torsions:
REMARK  status: ('A' for Active; 'I' for Inactive)
REMARK    1  A    between atoms: C2_2  and  C3_3 
REMARK    2  A    between atoms: C3_3  and  C4_4 
REMARK    3  A    between atoms: C4_4  and  C5_5 
REMARK    4  A    between atoms: C5_5  and  N1_7 
REMARK       I    between atoms: N1_7  and  C7_9 
REMARK       I    between atoms: C7_9  and  N2_11 
REMARK    5  A    between atoms: C13_20  and  C14_21 
REMARK    6  A    between atoms: C22_30  and  C23_31 
REMARK    7  A    between atoms: C23_31  and  N6_32 
REMARK    8  A    between atoms: C28_39  and  O2_40 
ROOT
HETATM    1  N1  UNL     1      -0.919  21.448  15.062  1.00  0.00    -0.337 N 
ATOM      2  H1  UNL     1      -0.113  20.894  14.774  1.00  0.00     0.164 HD
HETATM    3  C7  UNL     1      -1.597  21.135  16.232  1.00  0.00     0.338 C 
HETATM    4  O1  UNL     1      -2.590  21.817  16.591  1.00  0.00    -0.245 OA
HETATM    5  N2  UNL     1      -1.243  20.047  17.114  1.00  0.00    -0.231 N 
HETATM    6  N3  UNL     1      -0.177  19.382  16.646  1.00  0.00    -0.297 N 
ATOM      7  H3  UNL     1      -0.167  19.109  15.663  1.00  0.00     0.187 HD
HETATM    8  C8  UNL     1       0.921  19.045  17.441  1.00  0.00     0.045 C 
HETATM    9  C9  UNL     1       1.985  20.086  17.355  1.00  0.00    -0.002 A 
HETATM   10  C10 UNL     1       2.641  20.214  16.117  1.00  0.00     0.031 A 
HETATM   11  C11 UNL     1       3.635  21.126  15.859  1.00  0.00     0.091 A 
HETATM   12  N4  UNL     1       4.011  21.943  16.822  1.00  0.00    -0.364 N 
HETATM   13  C12 UNL     1       5.054  22.908  16.570  1.00  0.00     0.155 C 
HETATM   14  C13 UNL     1       3.400  21.856  18.044  1.00  0.00     0.017 A 
HETATM   15  C16 UNL     1       2.398  20.955  18.345  1.00  0.00    -0.021 A 
HETATM   16  C17 UNL     1       1.786  20.960  19.734  1.00  0.00     0.069 C 
HETATM   17  C18 UNL     1       0.338  21.301  19.715  1.00  0.00     0.243 C 
HETATM   18  N5  UNL     1      -0.636  20.602  20.347  1.00  0.00    -0.052 N 
HETATM   19  C19 UNL     1      -0.862  21.062  21.748  1.00  0.00     0.274 C 
HETATM   20  C20 UNL     1      -1.746  20.194  19.582  1.00  0.00     0.253 A 
HETATM   21  C21 UNL     1      -2.085  19.863  18.260  1.00  0.00     0.176 C 
HETATM   22  C22 UNL     1      -2.454  18.380  18.227  1.00  0.00    -0.031 C 
HETATM   23  C25 UNL     1      -1.575  17.421  18.496  1.00  0.00    -0.011 C 
HETATM   24  C26 UNL     1      -0.186  17.302  18.863  1.00  0.00     0.059 A 
HETATM   25  C27 UNL     1       0.835  18.294  18.682  1.00  0.00     0.086 A 
HETATM   26  C28 UNL     1       0.156  18.456  19.876  1.00  0.00     0.106 A 
HETATM   27  C29 UNL     1      -0.959  19.255  20.246  1.00  0.00     0.259 A 
ENDROOT
BRANCH   1  28
HETATM   28  C5  UNL     1      -1.367  22.580  14.241  1.00  0.00     0.082 C 
HETATM   29  C6  UNL     1      -1.697  22.129  12.847  1.00  0.00     0.032 C 
BRANCH  28  30
HETATM   30  C4  UNL     1      -0.345  23.644  14.347  1.00  0.00     0.025 C 
BRANCH  30  31
HETATM   31  C3  UNL     1       0.948  23.381  14.989  1.00  0.00     0.002 C 
BRANCH  31  32
HETATM   32  C2  UNL     1       1.376  24.264  16.107  1.00  0.00    -0.004 C 
HETATM   33  C1  UNL     1       0.444  24.086  17.321  1.00  0.00     0.005 C 
ENDBRANCH  31  32
ENDBRANCH  30  31
ENDBRANCH  28  30
ENDBRANCH   1  28
BRANCH  22  34
HETATM   34  C23 UNL     1      -3.850  18.057  17.872  1.00  0.00     0.267 C 
BRANCH  34  35
HETATM   35  N6  UNL     1      -4.496  19.095  17.135  1.00  0.00    -0.075 N 
HETATM   36  C24 UNL     1      -5.754  19.440  17.824  1.00  0.00     0.267 C 
ATOM     37  H62 UNL     1      -3.894  19.905  16.988  1.00  0.00     0.277 HD
ATOM     38  H61 UNL     1      -4.639  18.850  16.155  1.00  0.00     0.277 HD
ENDBRANCH  34  35
ENDBRANCH  22  34
BRANCH  26  39
HETATM   39  O2  UNL     1       0.717  17.809  21.033  1.00  0.00    -0.386 OA
ATOM     40  H2  UNL     1       1.261  18.461  21.458  1.00  0.00     0.210 HD
ENDBRANCH  26  39
BRANCH  14  41
HETATM   41  C14 UNL     1       3.913  22.829  19.065  1.00  0.00     0.053 C 
HETATM   42  C15 UNL     1       4.969  22.238  19.949  1.00  0.00     0.011 C 
ENDBRANCH  14  41
TORSDOF 8
ENDMDL
MODEL 2
REMARK VINA RESULT: -6.079377561      0.785      1.203
REMARK  8 active torsions:
REMARK  status: ('A' for Active; 'I' for Inactive)
REMARK    1  A    between atoms: C2_2  and  C3_3 
REMARK    2  A    between atoms: C3_3  and  C4_4 
REMARK    3  A    between atoms: C4_4  and  C5_5 
REMARK    4  A    between atoms: C5_5  and  N1_7 
REMARK       I    between atoms: N1_7  and  C7_9 
REMARK       I    between atoms: C7_9  and  N2_11 
REMARK    5  A    between atoms: C13_20  and  C14_21 
REMARK    6  A    between atoms: C22_30  and  C23_31 
REMARK    7  A    between atoms: C23_31  and  N6_32 
REMARK    8  A    between atoms: C28_39  and  O2_40 
ROOT
HETATM    1  N1  UNL     1      -1.010  21.573  15.088  1.00  0.00    -0.337 N 
ATOM      2  H1  UNL     1      -0.231  20.995  14.774  1.00  0.00     0.164 HD
HETATM    3  C7  UNL     1      -1.666  21.274  16.274  1.00  0.00     0.338 C 
HETATM    4  O1  UNL     1      -2.626  21.986  16.665  1.00  0.00    -0.245 OA
HETATM    5  N2  UNL     1      -1.324  20.169  17.139  1.00  0.00    -0.231 N 
HETATM    6  N3  UNL     1      -0.294  19.473  16.638  1.00  0.00    -0.297 N 
ATOM      7  H3  UNL     1      -0.319  19.207  15.654  1.00  0.00     0.187 HD
HETATM    8  C8  UNL     1       0.814  19.094  17.401  1.00  0.00     0.045 C 
HETATM    9  C9  UNL     1       1.908  20.101  17.292  1.00  0.00    -0.002 A 
HETATM   10  C10 UNL     1       2.535  20.216  16.037  1.00  0.00     0.031 A 
HETATM   11  C11 UNL     1       3.550  21.097  15.758  1.00  0.00     0.091 A 
HETATM   12  N4  UNL     1       3.979  21.895  16.716  1.00  0.00    -0.364 N 
HETATM   13  C12 UNL     1       5.047  22.827  16.442  1.00  0.00     0.155 C 
HETATM   14  C13 UNL     1       3.399  21.818  17.953  1.00  0.00     0.017 A 
HETATM   15  C16 UNL     1       2.377  20.949  18.276  1.00  0.00    -0.021 A 
HETATM   16  C17 UNL     1       1.803  20.964  19.681  1.00  0.00     0.069 C 
HETATM   17  C18 UNL     1       0.367  21.352  19.704  1.00  0.00     0.243 C 
HETATM   18  N5  UNL     1      -0.612  20.680  20.358  1.00  0.00    -0.052 N 
HETATM   19  C19 UNL     1      -0.785  21.137  21.767  1.00  0.00     0.274 C 
HETATM   20  C20 UNL     1      -1.755  20.315  19.621  1.00  0.00     0.253 A 
HETATM   21  C21 UNL     1      -2.140  20.004  18.307  1.00  0.00     0.176 C 
HETATM   22  C22 UNL     1      -2.559  18.535  18.275  1.00  0.00    -0.031 C 
HETATM   23  C25 UNL     1      -1.705  17.546  18.513  1.00  0.00    -0.011 C 
HETATM   24  C26 UNL     1      -0.311  17.379  18.841  1.00  0.00     0.059 A 
HETATM   25  C27 UNL     1       0.737  18.338  18.639  1.00  0.00     0.086 A 
HETATM   26  C28 UNL     1       0.097  18.513  19.852  1.00  0.00     0.106 A 
HETATM   27  C29 UNL     1      -0.981  19.346  20.257  1.00  0.00     0.259 A 
ENDROOT
BRANCH   1  28
HETATM   28  C5  UNL     1      -1.443  22.725  14.287  1.00  0.00     0.082 C 
HETATM   29  C6  UNL     1      -2.180  22.272  13.059  1.00  0.00     0.032 C 
BRANCH  28  30
HETATM   30  C4  UNL     1      -0.257  23.576  14.047  1.00  0.00     0.025 C 
BRANCH  30  31
HETATM   31  C3  UNL     1       1.086  22.989  13.977  1.00  0.00     0.002 C 
BRANCH  31  32
HETATM   32  C2  UNL     1       1.596  22.544  12.652  1.00  0.00    -0.004 C 
HETATM   33  C1  UNL     1       1.451  21.016  12.505  1.00  0.00     0.005 C 
ENDBRANCH  31  32
ENDBRANCH  30  31
ENDBRANCH  28  30
ENDBRANCH   1  28
BRANCH  22  34
HETATM   34  C23 UNL     1      -3.974  18.260  17.956  1.00  0.00     0.267 C 
BRANCH  34  35
HETATM   35  N6  UNL     1      -4.764  19.444  17.848  1.00  0.00    -0.075 N 
HETATM   36  C24 UNL     1      -5.266  19.541  16.464  1.00  0.00     0.267 C 
ATOM     37  H62 UNL     1      -5.512  19.481  18.541  1.00  0.00     0.277 HD
ATOM     38  H61 UNL     1      -4.261  20.280  18.144  1.00  0.00     0.277 HD
ENDBRANCH  34  35
ENDBRANCH  22  34
BRANCH  26  39
HETATM   39  O2  UNL     1       0.667  17.840  20.989  1.00  0.00    -0.386 OA
ATOM     40  H2  UNL     1       0.592  18.448  21.715  1.00  0.00     0.210 HD
ENDBRANCH  26  39
BRANCH  14  41
HETATM   41  C14 UNL     1       3.972  22.767  18.966  1.00  0.00     0.053 C 
HETATM   42  C15 UNL     1       5.010  22.127  19.837  1.00  0.00     0.011 C 
ENDBRANCH  14  41
TORSDOF 8
ENDMDL
MODEL 3
REMARK VINA RESULT: -5.944874996      1.630      1.907
REMARK  8 active torsions:
REMARK  status: ('A' for Active; 'I' for Inactive)
REMARK    1  A    between atoms: C2_2  and  C3_3 
REMARK    2  A    between atoms: C3_3  and  C4_4 
REMARK    3  A    between atoms: C4_4  and  C5_5 
REMARK    4  A    between atoms: C5_5  and  N1_7 
REMARK       I    between atoms: N1_7  and  C7_9 
REMARK       I    between atoms: C7_9  and  N2_11 
REMARK    5  A    between atoms: C13_20  and  C14_21 
REMARK    6  A    between atoms: C22_30  and  C23_31 
REMARK    7  A    between atoms: C23_31  and  N6_32 
REMARK    8  A    between atoms: C28_39  and  O2_40 
ROOT
HETATM    1  N1  UNL     1      -1.367  22.493  16.986  1.00  0.00    -0.337 N 
ATOM      2  H1  UNL     1      -0.668  22.157  16.325  1.00  0.00     0.164 HD
HETATM    3  C7  UNL     1      -1.988  21.606  17.854  1.00  0.00     0.338 C 
HETATM    4  O1  UNL     1      -2.851  22.017  18.672  1.00  0.00    -0.245 OA
HETATM    5  N2  UNL     1      -1.716  20.188  17.904  1.00  0.00    -0.231 N 
HETATM    6  N3  UNL     1      -0.788  19.848  16.998  1.00  0.00    -0.297 N 
ATOM      7  H3  UNL     1      -0.891  20.194  16.044  1.00  0.00     0.187 HD
HETATM    8  C8  UNL     1       0.314  19.043  17.299  1.00  0.00     0.045 C 
HETATM    9  C9  UNL     1       1.497  19.871  17.669  1.00  0.00    -0.002 A 
HETATM   10  C10 UNL     1       2.067  20.648  16.643  1.00  0.00     0.031 A 
HETATM   11  C11 UNL     1       3.150  21.475  16.811  1.00  0.00     0.091 A 
HETATM   12  N4  UNL     1       3.706  21.558  18.003  1.00  0.00    -0.364 N 
HETATM   13  C12 UNL     1       4.847  22.421  18.199  1.00  0.00     0.155 C 
HETATM   14  C13 UNL     1       3.185  20.820  19.032  1.00  0.00     0.017 A 
HETATM   15  C16 UNL     1       2.099  19.978  18.907  1.00  0.00    -0.021 A 
HETATM   16  C17 UNL     1       1.602  19.219  20.124  1.00  0.00     0.069 C 
HETATM   17  C18 UNL     1       0.216  19.601  20.505  1.00  0.00     0.243 C 
HETATM   18  N5  UNL     1      -0.791  18.730  20.759  1.00  0.00    -0.052 N 
HETATM   19  C19 UNL     1      -0.845  18.309  22.189  1.00  0.00     0.274 C 
HETATM   20  C20 UNL     1      -2.001  18.913  20.063  1.00  0.00     0.253 A 
HETATM   21  C21 UNL     1      -2.483  19.430  18.849  1.00  0.00     0.176 C 
HETATM   22  C22 UNL     1      -3.049  18.267  18.035  1.00  0.00    -0.031 C 
HETATM   23  C25 UNL     1      -2.288  17.275  17.587  1.00  0.00    -0.011 C 
HETATM   24  C26 UNL     1      -0.903  16.876  17.622  1.00  0.00     0.059 A 
HETATM   25  C27 UNL     1       0.224  17.721  17.894  1.00  0.00     0.086 A 
HETATM   26  C28 UNL     1      -0.332  17.206  19.050  1.00  0.00     0.106 A 
HETATM   27  C29 UNL     1      -1.298  17.714  19.960  1.00  0.00     0.259 A 
ENDROOT
BRANCH   1  28
HETATM   28  C5  UNL     1      -1.722  23.917  17.023  1.00  0.00     0.082 C 
HETATM   29  C6  UNL     1      -2.392  24.332  15.745  1.00  0.00     0.032 C 
BRANCH  28  30
HETATM   30  C4  UNL     1      -0.504  24.674  17.385  1.00  0.00     0.025 C 
BRANCH  30  31
HETATM   31  C3  UNL     1       0.739  23.975  17.729  1.00  0.00     0.002 C 
BRANCH  31  32
HETATM   32  C2  UNL     1       1.241  24.069  19.127  1.00  0.00    -0.004 C 
HETATM   33  C1  UNL     1       0.264  23.378  20.097  1.00  0.00     0.005 C 
ENDBRANCH  31  32
ENDBRANCH  30  31
ENDBRANCH  28  30
ENDBRANCH   1  28
BRANCH  22  34
HETATM   34  C23 UNL     1      -4.499  18.300  17.759  1.00  0.00     0.267 C 
BRANCH  34  35
HETATM   35  N6  UNL     1      -5.064  19.605  17.884  1.00  0.00    -0.075 N 
HETATM   36  C24 UNL     1      -5.338  20.123  16.530  1.00  0.00     0.267 C 
ATOM     37  H62 UNL     1      -5.887  19.621  18.484  1.00  0.00     0.277 HD
ATOM     38  H61 UNL     1      -4.480  20.235  18.434  1.00  0.00     0.277 HD
ENDBRANCH  34  35
ENDBRANCH  22  34
BRANCH  26  39
HETATM   39  O2  UNL     1       0.225  15.974  19.545  1.00  0.00    -0.386 OA
ATOM     40  H2  UNL     1      -0.405  15.297  19.325  1.00  0.00     0.210 HD
ENDBRANCH  26  39
BRANCH  14  41
HETATM   41  C14 UNL     1       3.902  20.988  20.340  1.00  0.00     0.053 C 
HETATM   42  C15 UNL     1       3.251  22.000  21.233  1.00  0.00     0.011 C 
ENDBRANCH  14  41
TORSDOF 8
ENDMDL
MODEL 4
REMARK VINA RESULT: -5.874962740      1.431      1.739
REMARK  8 active torsions:
REMARK  status: ('A' for Active; 'I' for Inactive)
REMARK    1  A    between atoms: C2_2  and  C3_3 
REMARK    2  A    between atoms: C3_3  and  C4_4 
REMARK    3  A    between atoms: C4_4  and  C5_5 
REMARK    4  A    between atoms: C5_5  and  N1_7 
REMARK       I    between atoms: N1_7  and  C7_9 
REMARK       I    between atoms: C7_9  and  N2_11 
REMARK    5  A    between atoms: C13_20  and  C14_21 
REMARK    6  A    between atoms: C22_30  and  C23_31 
REMARK    7  A    between atoms: C23_31  and  N6_32 
REMARK    8  A    between atoms: C28_39  and  O2_40 
ROOT
HETATM    1  N1  UNL     1      -0.096  21.060  15.404  1.00  0.00    -0.337 N 
ATOM      2  H1  UNL     1       0.879  20.767  15.436  1.00  0.00     0.164 HD
HETATM    3  C7  UNL     1      -1.007  20.553  16.321  1.00  0.00     0.338 C 
HETATM    4  O1  UNL     1      -2.211  20.914  16.284  1.00  0.00    -0.245 OA
HETATM    5  N2  UNL     1      -0.677  19.606  17.360  1.00  0.00    -0.231 N 
HETATM    6  N3  UNL     1       0.624  19.283  17.315  1.00  0.00    -0.297 N 
ATOM      7  H3  UNL     1       1.033  19.034  16.414  1.00  0.00     0.187 HD
HETATM    8  C8  UNL     1       1.447  19.271  18.444  1.00  0.00     0.045 C 
HETATM    9  C9  UNL     1       2.147  20.577  18.610  1.00  0.00    -0.002 A 
HETATM   10  C10 UNL     1       3.112  20.902  17.638  1.00  0.00     0.031 A 
HETATM   11  C11 UNL     1       3.841  22.065  17.631  1.00  0.00     0.091 A 
HETATM   12  N4  UNL     1       3.637  22.947  18.589  1.00  0.00    -0.364 N 
HETATM   13  C12 UNL     1       4.395  24.176  18.599  1.00  0.00     0.155 C 
HETATM   14  C13 UNL     1       2.708  22.675  19.556  1.00  0.00     0.017 A 
HETATM   15  C16 UNL     1       1.954  21.520  19.601  1.00  0.00    -0.021 A 
HETATM   16  C17 UNL     1       0.942  21.333  20.717  1.00  0.00     0.069 C 
HETATM   17  C18 UNL     1      -0.453  21.240  20.210  1.00  0.00     0.243 C 
HETATM   18  N5  UNL     1      -1.347  20.282  20.558  1.00  0.00    -0.052 N 
HETATM   19  C19 UNL     1      -2.140  20.644  21.768  1.00  0.00     0.274 C 
HETATM   20  C20 UNL     1      -1.984  19.578  19.518  1.00  0.00     0.253 A 
HETATM   21  C21 UNL     1      -1.763  19.175  18.191  1.00  0.00     0.176 C 
HETATM   22  C22 UNL     1      -1.675  17.649  18.171  1.00  0.00    -0.031 C 
HETATM   23  C25 UNL     1      -0.704  16.984  18.787  1.00  0.00    -0.011 C 
HETATM   24  C26 UNL     1       0.462  17.269  19.586  1.00  0.00     0.059 A 
HETATM   25  C27 UNL     1       1.168  18.517  19.653  1.00  0.00     0.086 A 
HETATM   26  C28 UNL     1       0.118  18.463  20.551  1.00  0.00     0.106 A 
HETATM   27  C29 UNL     1      -1.232  18.901  20.477  1.00  0.00     0.259 A 
ENDROOT
BRANCH   1  28
HETATM   28  C5  UNL     1      -0.544  22.021  14.388  1.00  0.00     0.082 C 
HETATM   29  C6  UNL     1       0.002  21.659  13.036  1.00  0.00     0.032 C 
BRANCH  28  30
HETATM   30  C4  UNL     1      -0.208  23.377  14.874  1.00  0.00     0.025 C 
BRANCH  30  31
HETATM   31  C3  UNL     1       0.984  23.605  15.698  1.00  0.00     0.002 C 
BRANCH  31  32
HETATM   32  C2  UNL     1       0.852  24.447  16.917  1.00  0.00    -0.004 C 
HETATM   33  C1  UNL     1      -0.341  23.975  17.771  1.00  0.00     0.005 C 
ENDBRANCH  31  32
ENDBRANCH  30  31
ENDBRANCH  28  30
ENDBRANCH   1  28
BRANCH  22  34
HETATM   34  C23 UNL     1      -2.729  16.938  17.421  1.00  0.00     0.267 C 
BRANCH  34  35
HETATM   35  N6  UNL     1      -2.274  16.423  16.169  1.00  0.00    -0.075 N 
HETATM   36  C24 UNL     1      -2.350  14.950  16.220  1.00  0.00     0.267 C 
ATOM     37  H62 UNL     1      -2.780  16.815  15.376  1.00  0.00     0.277 HD
ATOM     38  H61 UNL     1      -1.345  16.760  15.920  1.00  0.00     0.277 HD
ENDBRANCH  34  35
ENDBRANCH  22  34
BRANCH  26  39
HETATM   39  O2  UNL     1       0.422  17.995  21.878  1.00  0.00    -0.386 OA
ATOM     40  H2  UNL     1       0.585  17.063  21.794  1.00  0.00     0.210 HD
ENDBRANCH  26  39
BRANCH  14  41
HETATM   41  C14 UNL     1       2.566  23.745  20.598  1.00  0.00     0.053 C 
HETATM   42  C15 UNL     1       3.401  23.484  21.815  1.00  0.00     0.011 C 
ENDBRANCH  14  41
TORSDOF 8
ENDMDL
MODEL 5
REMARK VINA RESULT: -5.755722365      1.577      2.131
REMARK  8 active torsions:
REMARK  status: ('A' for Active; 'I' for Inactive)
REMARK    1  A    between atoms: C2_2  and  C3_3 
REMARK    2  A    between atoms: C3_3  and  C4_4 
REMARK    3  A    between atoms: C4_4  and  C5_5 
REMARK    4  A    between atoms: C5_5  and  N1_7 
REMARK       I    between atoms: N1_7  and  C7_9 
REMARK       I    between atoms: C7_9  and  N2_11 
REMARK    5  A    between atoms: C13_20  and  C14_21 
REMARK    6  A    between atoms: C22_30  and  C23_31 
REMARK    7  A    between atoms: C23_31  and  N6_32 
REMARK    8  A    between atoms: C28_39  and  O2_40 
ROOT
HETATM    1  N1  UNL     1       0.347  21.308  15.604  1.00  0.00    -0.337 N 
ATOM      2  H1  UNL     1       1.304  20.971  15.697  1.00  0.00     0.164 HD
HETATM    3  C7  UNL     1      -0.649  20.817  16.437  1.00  0.00     0.338 C 
HETATM    4  O1  UNL     1      -1.831  21.233  16.326  1.00  0.00    -0.245 OA
HETATM    5  N2  UNL     1      -0.436  19.829  17.469  1.00  0.00    -0.231 N 
HETATM    6  N3  UNL     1       0.850  19.449  17.508  1.00  0.00    -0.297 N 
ATOM      7  H3  UNL     1       1.312  19.207  16.631  1.00  0.00     0.187 HD
HETATM    8  C8  UNL     1       1.586  19.370  18.692  1.00  0.00     0.045 C 
HETATM    9  C9  UNL     1       2.327  20.639  18.947  1.00  0.00    -0.002 A 
HETATM   10  C10 UNL     1       3.374  20.946  18.058  1.00  0.00     0.031 A 
HETATM   11  C11 UNL     1       4.150  22.076  18.138  1.00  0.00     0.091 A 
HETATM   12  N4  UNL     1       3.914  22.940  19.105  1.00  0.00    -0.364 N 
HETATM   13  C12 UNL     1       4.721  24.132  19.207  1.00  0.00     0.155 C 
HETATM   14  C13 UNL     1       2.906  22.683  19.994  1.00  0.00     0.017 A 
HETATM   15  C16 UNL     1       2.102  21.562  19.950  1.00  0.00    -0.021 A 
HETATM   16  C17 UNL     1       1.005  21.390  20.984  1.00  0.00     0.069 C 
HETATM   17  C18 UNL     1      -0.352  21.373  20.375  1.00  0.00     0.243 C 
HETATM   18  N5  UNL     1      -1.309  20.447  20.629  1.00  0.00    -0.052 N 
HETATM   19  C19 UNL     1      -2.172  20.810  21.789  1.00  0.00     0.274 C 
HETATM   20  C20 UNL     1      -1.897  19.800  19.525  1.00  0.00     0.253 A 
HETATM   21  C21 UNL     1      -1.597  19.424  18.206  1.00  0.00     0.176 C 
HETATM   22  C22 UNL     1      -1.573  17.897  18.146  1.00  0.00    -0.031 C 
HETATM   23  C25 UNL     1      -0.680  17.173  18.810  1.00  0.00    -0.011 C 
HETATM   24  C26 UNL     1       0.436  17.384  19.699  1.00  0.00     0.059 A 
HETATM   25  C27 UNL     1       1.188  18.596  19.854  1.00  0.00     0.086 A 
HETATM   26  C28 UNL     1       0.074  18.565  20.672  1.00  0.00     0.106 A 
HETATM   27  C29 UNL     1      -1.247  19.065  20.514  1.00  0.00     0.259 A 
ENDROOT
BRANCH   1  28
HETATM   28  C5  UNL     1       0.016  22.315  14.588  1.00  0.00     0.082 C 
HETATM   29  C6  UNL     1      -0.050  21.693  13.224  1.00  0.00     0.032 C 
BRANCH  28  30
HETATM   30  C4  UNL     1       0.971  23.435  14.738  1.00  0.00     0.025 C 
BRANCH  30  31
HETATM   31  C3  UNL     1       2.332  23.198  15.234  1.00  0.00     0.002 C 
BRANCH  31  32
HETATM   32  C2  UNL     1       3.395  22.859  14.250  1.00  0.00    -0.004 C 
HETATM   33  C1  UNL     1       3.793  21.375  14.378  1.00  0.00     0.005 C 
ENDBRANCH  31  32
ENDBRANCH  30  31
ENDBRANCH  28  30
ENDBRANCH   1  28
BRANCH  22  34
HETATM   34  C23 UNL     1      -2.598  17.254  17.301  1.00  0.00     0.267 C 
BRANCH  34  35
HETATM   35  N6  UNL     1      -2.045  16.533  16.200  1.00  0.00    -0.075 N 
HETATM   36  C24 UNL     1      -2.345  15.100  16.388  1.00  0.00     0.267 C 
ATOM     37  H62 UNL     1      -2.365  16.886  15.299  1.00  0.00     0.277 HD
ATOM     38  H61 UNL     1      -1.049  16.712  16.073  1.00  0.00     0.277 HD
ENDBRANCH  34  35
ENDBRANCH  22  34
BRANCH  26  39
HETATM   39  O2  UNL     1       0.260  18.048  22.003  1.00  0.00    -0.386 OA
ATOM     40  H2  UNL     1      -0.562  17.634  22.238  1.00  0.00     0.210 HD
ENDBRANCH  26  39
BRANCH  14  41
HETATM   41  C14 UNL     1       2.733  23.730  21.056  1.00  0.00     0.053 C 
HETATM   42  C15 UNL     1       3.466  23.399  22.321  1.00  0.00     0.011 C 
ENDBRANCH  14  41
TORSDOF 8
ENDMDL
