MODEL 1
REMARK VINA RESULT: -6.244506341      0.000      0.000
REMARK  10 active torsions:
REMARK  status: ('A' for Active; 'I' for Inactive)
REMARK    1  A    between atoms: C2_2  and  C4_4 
REMARK    2  A    between atoms: C4_4  and  C5_5 
REMARK    3  A    between atoms: C7_10  and  O2_11 
REMARK    4  A    between atoms: C9_15  and  C10_16 
REMARK    5  A    between atoms: C10_16  and  C11_17 
REMARK    6  A    between atoms: C15_24  and  C16_25 
REMARK    7  A    between atoms: C16_25  and  C17_26 
REMARK    8  A    between atoms: C21_31  and  O5_32 
REMARK    9  A    between atoms: C22_34  and  C23_35 
REMARK   10  A    between atoms: C26_40  and  O6_41 
ROOT
HETATM    1  C5  UNL     1      -3.368   3.008  26.739  1.00  0.00     0.082 C 
HETATM    2  N1  UNL     1      -3.953   4.247  26.326  1.00  0.00    -0.318 N 
ATOM      3  H1  UNL     1      -3.324   5.050  26.325  1.00  0.00     0.169 HD
HETATM    4  C6  UNL     1      -5.288   4.514  25.918  1.00  0.00     0.283 C 
HETATM    5  O1  UNL     1      -5.826   5.684  26.055  1.00  0.00    -0.265 OA
HETATM    6  C7  UNL     1      -6.169   3.518  25.313  1.00  0.00     0.183 C 
HETATM    7  C8  UNL     1      -5.969   2.728  24.136  1.00  0.00     0.210 C 
HETATM    8  O3  UNL     1      -6.050   1.455  24.271  1.00  0.00    -0.288 OA
HETATM    9  C9  UNL     1      -5.673   3.253  22.741  1.00  0.00     0.162 C 
HETATM   10  N2  UNL     1      -4.972   4.498  22.799  1.00  0.00    -0.344 N 
ATOM     11  H2  UNL     1      -5.529   5.297  23.104  1.00  0.00     0.163 HD
HETATM   12  C14 UNL     1      -3.628   4.783  22.498  1.00  0.00     0.264 C 
HETATM   13  O4  UNL     1      -3.012   5.579  23.288  1.00  0.00    -0.266 OA
HETATM   14  C15 UNL     1      -2.828   4.279  21.373  1.00  0.00     0.081 C 
HETATM   15  N3  UNL     1      -1.530   3.741  21.680  1.00  0.00    -0.333 N 
HETATM   16  C20 UNL     1      -0.852   3.160  20.484  1.00  0.00     0.158 C 
HETATM   17  C21 UNL     1      -0.801   3.669  22.860  1.00  0.00     0.141 C 
HETATM   18  C22 UNL     1      -0.884   2.923  24.131  1.00  0.00     0.162 C 
HETATM   19  N4  UNL     1      -2.138   2.367  24.495  1.00  0.00    -0.357 N 
ATOM     20  H4  UNL     1      -2.689   2.065  23.692  1.00  0.00     0.162 HD
HETATM   21  C26 UNL     1      -2.774   2.145  25.703  1.00  0.00     0.163 C 
ENDROOT
BRANCH   1  22
HETATM   22  C4  UNL     1      -2.838   2.956  28.110  1.00  0.00     0.011 C 
BRANCH  22  23
HETATM   23  C2  UNL     1      -1.551   3.430  28.566  1.00  0.00     0.002 C 
HETATM   24  C1  UNL     1      -0.693   2.579  29.434  1.00  0.00     0.013 C 
HETATM   25  C3  UNL     1      -1.568   4.825  29.140  1.00  0.00     0.013 C 
ENDBRANCH  22  23
ENDBRANCH   1  22
BRANCH  21  26
HETATM   26  O6  UNL     1      -2.868   0.861  25.981  1.00  0.00    -0.345 OA
ATOM     27  H6  UNL     1      -2.895   0.312  25.207  1.00  0.00     0.219 HD
ENDBRANCH  21  26
BRANCH   6  28
HETATM   28  O2  UNL     1      -7.298   3.311  25.924  1.00  0.00    -0.353 OA
ATOM     29  H2  UNL     1      -7.846   2.625  25.562  1.00  0.00     0.218 HD
ENDBRANCH   6  28
BRANCH  18  30
HETATM   30  C23 UNL     1       0.250   1.924  24.137  1.00  0.00     0.008 C 
HETATM   31  C24 UNL     1       0.972   1.842  25.453  1.00  0.00     0.012 C 
HETATM   32  C25 UNL     1      -0.022   0.573  23.623  1.00  0.00     0.012 C 
ENDBRANCH  18  30
BRANCH  17  33
HETATM   33  O5  UNL     1       0.248   4.465  22.866  1.00  0.00    -0.348 OA
ATOM     34  H5  UNL     1       0.950   4.151  23.423  1.00  0.00     0.219 HD
ENDBRANCH  17  33
BRANCH   9  35
HETATM   35  C10 UNL     1      -7.034   3.510  22.116  1.00  0.00     0.037 C 
BRANCH  35  36
HETATM   36  C11 UNL     1      -7.189   2.763  20.844  1.00  0.00    -0.020 C 
HETATM   37  C12 UNL     1      -8.087   3.545  19.879  1.00  0.00     0.009 C 
HETATM   38  C13 UNL     1      -7.937   1.475  21.150  1.00  0.00     0.009 C 
ENDBRANCH  35  36
ENDBRANCH   9  35
BRANCH  14  39
HETATM   39  C16 UNL     1      -2.952   5.190  20.204  1.00  0.00     0.067 C 
BRANCH  39  40
HETATM   40  C17 UNL     1      -2.365   6.539  20.260  1.00  0.00    -0.017 C 
HETATM   41  C18 UNL     1      -3.445   7.512  19.724  1.00  0.00     0.010 C 
HETATM   42  C19 UNL     1      -1.191   6.775  19.350  1.00  0.00     0.010 C 
ENDBRANCH  39  40
ENDBRANCH  14  39
TORSDOF 10
ENDMDL
MODEL 2
REMARK VINA RESULT: -6.213544571      4.011      7.703
REMARK  10 active torsions:
REMARK  status: ('A' for Active; 'I' for Inactive)
REMARK    1  A    between atoms: C2_2  and  C4_4 
REMARK    2  A    between atoms: C4_4  and  C5_5 
REMARK    3  A    between atoms: C7_10  and  O2_11 
REMARK    4  A    between atoms: C9_15  and  C10_16 
REMARK    5  A    between atoms: C10_16  and  C11_17 
REMARK    6  A    between atoms: C15_24  and  C16_25 
REMARK    7  A    between atoms: C16_25  and  C17_26 
REMARK    8  A    between atoms: C21_31  and  O5_32 
REMARK    9  A    between atoms: C22_34  and  C23_35 
REMARK   10  A    between atoms: C26_40  and  O6_41 
ROOT
HETATM    1  C5  UNL     1       0.941  -2.203  20.496  1.00  0.00     0.082 C 
HETATM    2  N1  UNL     1      -0.454  -1.914  20.360  1.00  0.00    -0.318 N 
ATOM      3  H1  UNL     1      -1.077  -2.474  20.943  1.00  0.00     0.169 HD
HETATM    4  C6  UNL     1      -1.093  -0.957  19.526  1.00  0.00     0.283 C 
HETATM    5  O1  UNL     1      -2.309  -1.114  19.108  1.00  0.00    -0.265 OA
HETATM    6  C7  UNL     1      -0.458   0.276  19.067  1.00  0.00     0.183 C 
HETATM    7  C8  UNL     1       0.123   1.335  19.834  1.00  0.00     0.210 C 
HETATM    8  O3  UNL     1       1.346   1.632  19.583  1.00  0.00    -0.288 OA
HETATM    9  C9  UNL     1      -0.570   2.145  20.918  1.00  0.00     0.162 C 
HETATM   10  N2  UNL     1      -1.586   1.374  21.563  1.00  0.00    -0.344 N 
ATOM     11  H2  UNL     1      -2.421   1.199  21.003  1.00  0.00     0.163 HD
HETATM   12  C14 UNL     1      -1.605   0.822  22.857  1.00  0.00     0.264 C 
HETATM   13  O4  UNL     1      -2.076  -0.361  22.977  1.00  0.00    -0.266 OA
HETATM   14  C15 UNL     1      -1.149   1.442  24.109  1.00  0.00     0.081 C 
HETATM   15  N3  UNL     1      -0.279   0.661  24.948  1.00  0.00    -0.333 N 
HETATM   16  C20 UNL     1       0.210   1.425  26.134  1.00  0.00     0.158 C 
HETATM   17  C21 UNL     1       0.178  -0.647  24.864  1.00  0.00     0.141 C 
HETATM   18  C22 UNL     1       1.108  -1.408  24.006  1.00  0.00     0.162 C 
HETATM   19  N4  UNL     1       1.418  -0.877  22.727  1.00  0.00    -0.357 N 
ATOM     20  H4  UNL     1       1.430   0.143  22.709  1.00  0.00     0.162 HD
HETATM   21  C26 UNL     1       1.709  -1.444  21.498  1.00  0.00     0.163 C 
ENDROOT
BRANCH   1  22
HETATM   22  C4  UNL     1       1.368  -3.564  20.142  1.00  0.00     0.011 C 
BRANCH  22  23
HETATM   23  C2  UNL     1       2.067  -3.975  18.945  1.00  0.00     0.002 C 
HETATM   24  C1  UNL     1       3.554  -3.993  18.904  1.00  0.00     0.013 C 
HETATM   25  C3  UNL     1       1.568  -3.325  17.678  1.00  0.00     0.013 C 
ENDBRANCH  22  23
ENDBRANCH   1  22
BRANCH  21  26
HETATM   26  O6  UNL     1       2.965  -1.252  21.153  1.00  0.00    -0.345 OA
ATOM     27  H6  UNL     1       3.070  -0.602  20.469  1.00  0.00     0.219 HD
ENDBRANCH  21  26
BRANCH   6  28
HETATM   28  O2  UNL     1      -0.406   0.444  17.779  1.00  0.00    -0.353 OA
ATOM     29  H2  UNL     1       0.460   0.578  17.411  1.00  0.00     0.218 HD
ENDBRANCH   6  28
BRANCH  18  30
HETATM   30  C23 UNL     1       2.325  -1.729  24.843  1.00  0.00     0.008 C 
HETATM   31  C24 UNL     1       3.133  -2.880  24.312  1.00  0.00     0.012 C 
HETATM   32  C25 UNL     1       3.212  -0.618  25.221  1.00  0.00     0.012 C 
ENDBRANCH  18  30
BRANCH  17  33
HETATM   33  O5  UNL     1      -0.340  -1.433  25.785  1.00  0.00    -0.348 OA
ATOM     34  H5  UNL     1      -1.051  -1.971  25.457  1.00  0.00     0.219 HD
ENDBRANCH  17  33
BRANCH   9  35
HETATM   35  C10 UNL     1      -1.245   3.292  20.184  1.00  0.00     0.037 C 
BRANCH  35  36
HETATM   36  C11 UNL     1      -2.083   4.098  21.107  1.00  0.00    -0.020 C 
HETATM   37  C12 UNL     1      -3.373   4.533  20.403  1.00  0.00     0.009 C 
HETATM   38  C13 UNL     1      -1.329   5.382  21.415  1.00  0.00     0.009 C 
ENDBRANCH  35  36
ENDBRANCH   9  35
BRANCH  14  39
HETATM   39  C16 UNL     1      -2.265   2.183  24.754  1.00  0.00     0.067 C 
BRANCH  39  40
HETATM   40  C17 UNL     1      -2.424   3.626  24.509  1.00  0.00    -0.017 C 
HETATM   41  C18 UNL     1      -1.938   4.347  25.792  1.00  0.00     0.010 C 
HETATM   42  C19 UNL     1      -3.841   4.106  24.348  1.00  0.00     0.010 C 
ENDBRANCH  39  40
ENDBRANCH  14  39
TORSDOF 10
ENDMDL
MODEL 3
REMARK VINA RESULT: -6.169970855      1.898      5.643
REMARK  10 active torsions:
REMARK  status: ('A' for Active; 'I' for Inactive)
REMARK    1  A    between atoms: C2_2  and  C4_4 
REMARK    2  A    between atoms: C4_4  and  C5_5 
REMARK    3  A    between atoms: C7_10  and  O2_11 
REMARK    4  A    between atoms: C9_15  and  C10_16 
REMARK    5  A    between atoms: C10_16  and  C11_17 
REMARK    6  A    between atoms: C15_24  and  C16_25 
REMARK    7  A    between atoms: C16_25  and  C17_26 
REMARK    8  A    between atoms: C21_31  and  O5_32 
REMARK    9  A    between atoms: C22_34  and  C23_35 
REMARK   10  A    between atoms: C26_40  and  O6_41 
ROOT
HETATM    1  C5  UNL     1       0.471   1.054  23.930  1.00  0.00     0.082 C 
HETATM    2  N1  UNL     1      -0.464   0.476  23.013  1.00  0.00    -0.318 N 
ATOM      3  H1  UNL     1      -1.074  -0.243  23.402  1.00  0.00     0.169 HD
HETATM    4  C6  UNL     1      -0.660   0.764  21.634  1.00  0.00     0.283 C 
HETATM    5  O1  UNL     1      -1.135  -0.114  20.811  1.00  0.00    -0.265 OA
HETATM    6  C7  UNL     1      -0.353   2.054  21.021  1.00  0.00     0.183 C 
HETATM    7  C8  UNL     1      -0.840   3.357  21.360  1.00  0.00     0.210 C 
HETATM    8  O3  UNL     1       0.038   4.252  21.632  1.00  0.00    -0.288 OA
HETATM    9  C9  UNL     1      -2.297   3.782  21.429  1.00  0.00     0.162 C 
HETATM   10  N2  UNL     1      -3.138   2.679  21.772  1.00  0.00    -0.344 N 
ATOM     11  H2  UNL     1      -3.260   1.980  21.039  1.00  0.00     0.163 HD
HETATM   12  C14 UNL     1      -3.824   2.415  22.973  1.00  0.00     0.264 C 
HETATM   13  O4  UNL     1      -3.812   1.207  23.395  1.00  0.00    -0.266 OA
HETATM   14  C15 UNL     1      -4.565   3.363  23.815  1.00  0.00     0.081 C 
HETATM   15  N3  UNL     1      -4.279   3.350  25.225  1.00  0.00    -0.333 N 
HETATM   16  C20 UNL     1      -5.005   4.423  25.967  1.00  0.00     0.158 C 
HETATM   17  C21 UNL     1      -3.473   2.536  26.010  1.00  0.00     0.141 C 
HETATM   18  C22 UNL     1      -2.026   2.319  26.199  1.00  0.00     0.162 C 
HETATM   19  N4  UNL     1      -1.149   2.733  25.162  1.00  0.00    -0.357 N 
ATOM     20  H4  UNL     1      -1.478   3.563  24.669  1.00  0.00     0.162 HD
HETATM   21  C26 UNL     1       0.054   2.255  24.676  1.00  0.00     0.163 C 
ENDROOT
BRANCH   1  22
HETATM   22  C4  UNL     1       1.455   0.140  24.528  1.00  0.00     0.011 C 
BRANCH  22  23
HETATM   23  C2  UNL     1       1.363  -0.522  25.810  1.00  0.00     0.002 C 
HETATM   24  C1  UNL     1       0.040  -0.882  26.385  1.00  0.00     0.013 C 
HETATM   25  C3  UNL     1       2.196   0.110  26.899  1.00  0.00     0.013 C 
ENDBRANCH  22  23
ENDBRANCH   1  22
BRANCH  21  26
HETATM   26  O6  UNL     1       1.052   3.070  24.945  1.00  0.00    -0.345 OA
ATOM     27  H6  UNL     1       1.250   3.667  24.233  1.00  0.00     0.219 HD
ENDBRANCH  21  26
BRANCH   6  28
HETATM   28  O2  UNL     1       0.481   2.026  20.024  1.00  0.00    -0.353 OA
ATOM     29  H2  UNL     1       1.181   1.387  20.086  1.00  0.00     0.218 HD
ENDBRANCH   6  28
BRANCH  18  30
HETATM   30  C23 UNL     1      -1.665   2.874  27.558  1.00  0.00     0.008 C 
HETATM   31  C24 UNL     1      -0.372   2.336  28.103  1.00  0.00     0.012 C 
HETATM   32  C25 UNL     1      -1.725   4.332  27.743  1.00  0.00     0.012 C 
ENDBRANCH  18  30
BRANCH  17  33
HETATM   33  O5  UNL     1      -4.161   1.744  26.806  1.00  0.00    -0.348 OA
ATOM     34  H5  UNL     1      -3.737   0.908  26.954  1.00  0.00     0.219 HD
ENDBRANCH  17  33
BRANCH   9  35
HETATM   35  C10 UNL     1      -2.649   4.219  20.016  1.00  0.00     0.037 C 
BRANCH  35  36
HETATM   36  C11 UNL     1      -3.000   5.660  19.972  1.00  0.00    -0.020 C 
HETATM   37  C12 UNL     1      -1.758   6.495  19.643  1.00  0.00     0.009 C 
HETATM   38  C13 UNL     1      -3.418   6.078  21.372  1.00  0.00     0.009 C 
ENDBRANCH  35  36
ENDBRANCH   9  35
BRANCH  14  39
HETATM   39  C16 UNL     1      -5.989   3.428  23.389  1.00  0.00     0.067 C 
BRANCH  39  40
HETATM   40  C17 UNL     1      -6.387   2.885  22.079  1.00  0.00    -0.017 C 
HETATM   41  C18 UNL     1      -6.474   4.092  21.110  1.00  0.00     0.010 C 
HETATM   42  C19 UNL     1      -7.762   2.280  22.018  1.00  0.00     0.010 C 
ENDBRANCH  39  40
ENDBRANCH  14  39
TORSDOF 10
ENDMDL
MODEL 4
REMARK VINA RESULT: -6.169340575      1.997      7.282
REMARK  10 active torsions:
REMARK  status: ('A' for Active; 'I' for Inactive)
REMARK    1  A    between atoms: C2_2  and  C4_4 
REMARK    2  A    between atoms: C4_4  and  C5_5 
REMARK    3  A    between atoms: C7_10  and  O2_11 
REMARK    4  A    between atoms: C9_15  and  C10_16 
REMARK    5  A    between atoms: C10_16  and  C11_17 
REMARK    6  A    between atoms: C15_24  and  C16_25 
REMARK    7  A    between atoms: C16_25  and  C17_26 
REMARK    8  A    between atoms: C21_31  and  O5_32 
REMARK    9  A    between atoms: C22_34  and  C23_35 
REMARK   10  A    between atoms: C26_40  and  O6_41 
ROOT
HETATM    1  C5  UNL     1      -5.483   3.468  22.945  1.00  0.00     0.082 C 
HETATM    2  N1  UNL     1      -4.632   4.619  22.978  1.00  0.00    -0.318 N 
ATOM      3  H1  UNL     1      -5.047   5.461  23.378  1.00  0.00     0.169 HD
HETATM    4  C6  UNL     1      -3.289   4.753  22.531  1.00  0.00     0.283 C 
HETATM    5  O1  UNL     1      -2.805   5.890  22.145  1.00  0.00    -0.265 OA
HETATM    6  C7  UNL     1      -2.339   3.645  22.465  1.00  0.00     0.183 C 
HETATM    7  C8  UNL     1      -1.903   2.764  23.504  1.00  0.00     0.210 C 
HETATM    8  O3  UNL     1      -2.059   1.506  23.303  1.00  0.00    -0.288 OA
HETATM    9  C9  UNL     1      -1.270   3.173  24.824  1.00  0.00     0.162 C 
HETATM   10  N2  UNL     1      -1.729   4.463  25.234  1.00  0.00    -0.344 N 
ATOM     11  H2  UNL     1      -1.368   5.247  24.689  1.00  0.00     0.163 HD
HETATM   12  C14 UNL     1      -2.604   4.812  26.279  1.00  0.00     0.264 C 
HETATM   13  O4  UNL     1      -3.471   5.720  26.033  1.00  0.00    -0.266 OA
HETATM   14  C15 UNL     1      -2.649   4.260  27.641  1.00  0.00     0.081 C 
HETATM   15  N3  UNL     1      -3.933   3.845  28.138  1.00  0.00    -0.333 N 
HETATM   16  C20 UNL     1      -3.847   3.202  29.482  1.00  0.00     0.158 C 
HETATM   17  C21 UNL     1      -5.215   3.937  27.613  1.00  0.00     0.141 C 
HETATM   18  C22 UNL     1      -5.972   3.310  26.511  1.00  0.00     0.162 C 
HETATM   19  N4  UNL     1      -5.237   2.705  25.458  1.00  0.00    -0.357 N 
ATOM     20  H4  UNL     1      -4.359   2.291  25.771  1.00  0.00     0.162 HD
HETATM   21  C26 UNL     1      -5.453   2.554  24.100  1.00  0.00     0.163 C 
ENDROOT
BRANCH   1  22
HETATM   22  C4  UNL     1      -6.713   3.584  22.149  1.00  0.00     0.011 C 
BRANCH  22  23
HETATM   23  C2  UNL     1      -7.021   2.895  20.916  1.00  0.00     0.002 C 
HETATM   24  C1  UNL     1      -7.671   3.613  19.787  1.00  0.00     0.013 C 
HETATM   25  C3  UNL     1      -7.722   1.572  21.100  1.00  0.00     0.013 C 
ENDBRANCH  22  23
ENDBRANCH   1  22
BRANCH  21  26
HETATM   26  O6  UNL     1      -5.683   1.300  23.775  1.00  0.00    -0.345 OA
ATOM     27  H6  UNL     1      -5.352   0.681  24.415  1.00  0.00     0.219 HD
ENDBRANCH  21  26
BRANCH   6  28
HETATM   28  O2  UNL     1      -1.809   3.419  21.299  1.00  0.00    -0.353 OA
ATOM     29  H2  UNL     1      -1.147   2.738  21.269  1.00  0.00     0.218 HD
ENDBRANCH   6  28
BRANCH  18  30
HETATM   30  C23 UNL     1      -7.000   2.398  27.138  1.00  0.00     0.008 C 
HETATM   31  C24 UNL     1      -8.327   2.410  26.431  1.00  0.00     0.012 C 
HETATM   32  C25 UNL     1      -6.599   1.015  27.438  1.00  0.00     0.012 C 
ENDBRANCH  18  30
BRANCH  17  33
HETATM   33  O5  UNL     1      -5.974   4.801  28.254  1.00  0.00    -0.348 OA
ATOM     34  H5  UNL     1      -6.789   4.423  28.562  1.00  0.00     0.219 HD
ENDBRANCH  17  33
BRANCH   9  35
HETATM   35  C10 UNL     1       0.219   3.274  24.535  1.00  0.00     0.037 C 
BRANCH  35  36
HETATM   36  C11 UNL     1       0.994   2.339  25.387  1.00  0.00    -0.020 C 
HETATM   37  C12 UNL     1       1.108   0.973  24.703  1.00  0.00     0.009 C 
HETATM   38  C13 UNL     1       0.196   2.099  26.658  1.00  0.00     0.009 C 
ENDBRANCH  35  36
ENDBRANCH   9  35
BRANCH  14  39
HETATM   39  C16 UNL     1      -1.766   5.046  28.544  1.00  0.00     0.067 C 
BRANCH  39  40
HETATM   40  C17 UNL     1      -1.992   6.490  28.716  1.00  0.00    -0.017 C 
HETATM   41  C18 UNL     1      -0.766   7.039  29.489  1.00  0.00     0.010 C 
HETATM   42  C19 UNL     1      -3.159   6.866  29.587  1.00  0.00     0.010 C 
ENDBRANCH  39  40
ENDBRANCH  14  39
TORSDOF 10
ENDMDL
MODEL 5
REMARK VINA RESULT: -6.146920885      3.866      7.988
REMARK  10 active torsions:
REMARK  status: ('A' for Active; 'I' for Inactive)
REMARK    1  A    between atoms: C2_2  and  C4_4 
REMARK    2  A    between atoms: C4_4  and  C5_5 
REMARK    3  A    between atoms: C7_10  and  O2_11 
REMARK    4  A    between atoms: C9_15  and  C10_16 
REMARK    5  A    between atoms: C10_16  and  C11_17 
REMARK    6  A    between atoms: C15_24  and  C16_25 
REMARK    7  A    between atoms: C16_25  and  C17_26 
REMARK    8  A    between atoms: C21_31  and  O5_32 
REMARK    9  A    between atoms: C22_34  and  C23_35 
REMARK   10  A    between atoms: C26_40  and  O6_41 
ROOT
HETATM    1  C5  UNL     1      -0.976   0.095  19.154  1.00  0.00     0.082 C 
HETATM    2  N1  UNL     1      -1.988   0.066  20.166  1.00  0.00    -0.318 N 
ATOM      3  H1  UNL     1      -2.307  -0.863  20.443  1.00  0.00     0.169 HD
HETATM    4  C6  UNL     1      -2.611   1.152  20.841  1.00  0.00     0.283 C 
HETATM    5  O1  UNL     1      -3.806   1.060  21.331  1.00  0.00    -0.265 OA
HETATM    6  C7  UNL     1      -1.979   2.453  21.046  1.00  0.00     0.183 C 
HETATM    7  C8  UNL     1      -0.740   2.766  21.691  1.00  0.00     0.210 C 
HETATM    8  O3  UNL     1       0.123   3.422  21.004  1.00  0.00    -0.288 OA
HETATM    9  C9  UNL     1      -0.348   2.398  23.112  1.00  0.00     0.162 C 
HETATM   10  N2  UNL     1      -0.995   1.193  23.527  1.00  0.00    -0.344 N 
ATOM     11  H2  UNL     1      -1.997   1.275  23.704  1.00  0.00     0.163 HD
HETATM   12  C14 UNL     1      -0.454  -0.091  23.726  1.00  0.00     0.264 C 
HETATM   13  O4  UNL     1      -1.143  -1.084  23.306  1.00  0.00    -0.266 OA
HETATM   14  C15 UNL     1       0.820  -0.443  24.369  1.00  0.00     0.081 C 
HETATM   15  N3  UNL     1       1.678  -1.359  23.666  1.00  0.00    -0.333 N 
HETATM   16  C20 UNL     1       2.987  -1.561  24.354  1.00  0.00     0.158 C 
HETATM   17  C21 UNL     1       1.514  -2.082  22.491  1.00  0.00     0.141 C 
HETATM   18  C22 UNL     1       1.445  -1.784  21.047  1.00  0.00     0.162 C 
HETATM   19  N4  UNL     1       1.121  -0.459  20.656  1.00  0.00    -0.357 N 
ATOM     20  H4  UNL     1       1.472   0.246  21.303  1.00  0.00     0.162 HD
HETATM   21  C26 UNL     1       0.432   0.083  19.585  1.00  0.00     0.163 C 
ENDROOT
BRANCH   1  22
HETATM   22  C4  UNL     1      -1.336  -0.481  17.850  1.00  0.00     0.011 C 
BRANCH  22  23
HETATM   23  C2  UNL     1      -1.036  -1.812  17.373  1.00  0.00     0.002 C 
HETATM   24  C1  UNL     1      -1.103  -2.980  18.291  1.00  0.00     0.013 C 
HETATM   25  C3  UNL     1       0.239  -1.914  16.571  1.00  0.00     0.013 C 
ENDBRANCH  22  23
ENDBRANCH   1  22
BRANCH  21  26
HETATM   26  O6  UNL     1       1.230   0.741  18.770  1.00  0.00    -0.345 OA
ATOM     27  H6  UNL     1       1.837   0.178  18.305  1.00  0.00     0.219 HD
ENDBRANCH  21  26
BRANCH   6  28
HETATM   28  O2  UNL     1      -2.626   3.480  20.579  1.00  0.00    -0.353 OA
ATOM     29  H2  UNL     1      -3.035   4.042  21.226  1.00  0.00     0.218 HD
ENDBRANCH   6  28
BRANCH  18  30
HETATM   30  C23 UNL     1       2.717  -2.309  20.422  1.00  0.00     0.008 C 
HETATM   31  C24 UNL     1       2.480  -3.254  19.278  1.00  0.00     0.012 C 
HETATM   32  C25 UNL     1       3.761  -1.335  20.067  1.00  0.00     0.012 C 
ENDBRANCH  18  30
BRANCH  17  33
HETATM   33  O5  UNL     1       1.390  -3.377  22.696  1.00  0.00    -0.348 OA
ATOM     34  H5  UNL     1       2.181  -3.776  23.038  1.00  0.00     0.219 HD
ENDBRANCH  17  33
BRANCH   9  35
HETATM   35  C10 UNL     1      -0.874   3.533  23.975  1.00  0.00     0.037 C 
BRANCH  35  36
HETATM   36  C11 UNL     1      -2.057   3.105  24.762  1.00  0.00    -0.020 C 
HETATM   37  C12 UNL     1      -3.319   3.800  24.239  1.00  0.00     0.009 C 
HETATM   38  C13 UNL     1      -1.871   3.603  26.186  1.00  0.00     0.009 C 
ENDBRANCH  35  36
ENDBRANCH   9  35
BRANCH  14  39
HETATM   39  C16 UNL     1       0.621  -0.647  25.829  1.00  0.00     0.067 C 
BRANCH  39  40
HETATM   40  C17 UNL     1       1.111   0.361  26.783  1.00  0.00    -0.017 C 
HETATM   41  C18 UNL     1      -0.108   0.784  27.641  1.00  0.00     0.010 C 
HETATM   42  C19 UNL     1       1.584   1.653  26.176  1.00  0.00     0.010 C 
ENDBRANCH  39  40
ENDBRANCH  14  39
TORSDOF 10
ENDMDL
