MODEL 1
REMARK VINA RESULT: -6.028215770      0.000      0.000
REMARK  9 active torsions:
REMARK  status: ('A' for Active; 'I' for Inactive)
REMARK    1  A    between atoms: C4_4  and  C5_5 
REMARK    2  A    between atoms: C5_5  and  N1_6 
REMARK    3  A    between atoms: C6_8  and  C7_9 
REMARK    4  A    between atoms: C7_9  and  C8_10 
REMARK    5  A    between atoms: C15_23  and  C16_24 
REMARK    6  A    between atoms: C16_24  and  C17_25 
REMARK    7  A    between atoms: C20_28  and  O4_29 
REMARK    8  A    between atoms: C22_33  and  C23_34 
REMARK    9  A    between atoms: C23_34  and  C24_35 
ROOT
HETATM    1  N1  UNL     1      -2.754   1.407  24.240  1.00  0.00    -0.259 N 
HETATM    2  N2  UNL     1      -2.399   1.978  23.017  1.00  0.00    -0.121 NA
HETATM    3  C6  UNL     1      -0.945   2.274  22.927  1.00  0.00     0.192 C 
HETATM    4  C11 UNL     1      -0.877   3.739  22.572  1.00  0.00     0.248 C 
HETATM    5  O1  UNL     1      -0.325   4.464  23.479  1.00  0.00    -0.271 OA
HETATM    6  N3  UNL     1      -1.365   4.276  21.380  1.00  0.00    -0.262 N 
HETATM    7  C12 UNL     1      -1.527   4.898  20.069  1.00  0.00     0.260 A 
HETATM    8  O2  UNL     1      -1.007   5.433  19.058  1.00  0.00    -0.270 OA
HETATM    9  C13 UNL     1      -2.681   4.406  20.878  1.00  0.00     0.280 A 
HETATM   10  C14 UNL     1      -3.510   5.411  21.556  1.00  0.00     0.251 C 
HETATM   11  O3  UNL     1      -3.238   6.632  21.207  1.00  0.00    -0.271 OA
HETATM   12  N4  UNL     1      -4.516   5.283  22.489  1.00  0.00    -0.347 N 
ATOM     13  H4  UNL     1      -4.374   5.832  23.337  1.00  0.00     0.163 HD
HETATM   14  C15 UNL     1      -5.754   4.500  22.480  1.00  0.00     0.159 C 
HETATM   15  C20 UNL     1      -6.207   4.180  23.841  1.00  0.00     0.137 C 
HETATM   16  N5  UNL     1      -5.546   3.535  24.907  1.00  0.00    -0.355 N 
HETATM   17  C21 UNL     1      -6.348   2.921  25.949  1.00  0.00     0.152 C 
HETATM   18  C22 UNL     1      -4.082   3.425  25.096  1.00  0.00     0.179 C 
HETATM   19  C27 UNL     1      -3.718   1.962  25.120  1.00  0.00     0.258 C 
HETATM   20  O5  UNL     1      -4.338   1.271  25.979  1.00  0.00    -0.270 OA
ENDROOT
BRANCH   1  21
HETATM   21  C5  UNL     1      -2.097   0.175  24.612  1.00  0.00     0.175 C 
BRANCH  21  22
HETATM   22  C4  UNL     1      -2.600  -1.020  23.899  1.00  0.00    -0.004 C 
HETATM   23  C2  UNL     1      -1.773  -1.928  23.435  1.00  0.00    -0.090 C 
HETATM   24  C1  UNL     1      -2.424  -3.104  22.726  1.00  0.00     0.042 C 
HETATM   25  C3  UNL     1      -0.290  -1.885  23.520  1.00  0.00     0.042 C 
ENDBRANCH  21  22
ENDBRANCH   1  21
BRANCH   3  26
HETATM   26  C7  UNL     1      -0.440   1.465  21.821  1.00  0.00     0.036 C 
BRANCH  26  27
HETATM   27  C8  UNL     1      -1.134   1.242  20.571  1.00  0.00    -0.021 C 
HETATM   28  C9  UNL     1      -0.347   1.504  19.319  1.00  0.00     0.009 C 
HETATM   29  C10 UNL     1      -1.829  -0.075  20.379  1.00  0.00     0.009 C 
ENDBRANCH  26  27
ENDBRANCH   3  26
BRANCH  18  30
HETATM   30  C23 UNL     1      -3.676   4.219  26.278  1.00  0.00     0.039 C 
BRANCH  30  31
HETATM   31  C24 UNL     1      -2.274   4.439  26.619  1.00  0.00    -0.020 C 
HETATM   32  C25 UNL     1      -1.514   3.378  27.348  1.00  0.00     0.009 C 
HETATM   33  C26 UNL     1      -2.249   5.656  27.586  1.00  0.00     0.009 C 
ENDBRANCH  30  31
ENDBRANCH  18  30
BRANCH  15  34
HETATM   34  O4  UNL     1      -7.424   4.553  24.117  1.00  0.00    -0.348 OA
ATOM     35  H4  UNL     1      -8.105   4.037  23.701  1.00  0.00     0.219 HD
ENDBRANCH  15  34
BRANCH  14  36
HETATM   36  C16 UNL     1      -5.763   3.434  21.461  1.00  0.00     0.037 C 
BRANCH  36  37
HETATM   37  C17 UNL     1      -6.585   2.202  21.742  1.00  0.00    -0.020 C 
HETATM   38  C18 UNL     1      -5.650   1.015  21.970  1.00  0.00     0.009 C 
HETATM   39  C19 UNL     1      -7.643   1.858  20.783  1.00  0.00     0.009 C 
ENDBRANCH  36  37
ENDBRANCH  14  36
TORSDOF 9
ENDMDL
MODEL 2
REMARK VINA RESULT: -6.010129979      1.137      1.649
REMARK  9 active torsions:
REMARK  status: ('A' for Active; 'I' for Inactive)
REMARK    1  A    between atoms: C4_4  and  C5_5 
REMARK    2  A    between atoms: C5_5  and  N1_6 
REMARK    3  A    between atoms: C6_8  and  C7_9 
REMARK    4  A    between atoms: C7_9  and  C8_10 
REMARK    5  A    between atoms: C15_23  and  C16_24 
REMARK    6  A    between atoms: C16_24  and  C17_25 
REMARK    7  A    between atoms: C20_28  and  O4_29 
REMARK    8  A    between atoms: C22_33  and  C23_34 
REMARK    9  A    between atoms: C23_34  and  C24_35 
ROOT
HETATM    1  N1  UNL     1      -2.392   1.341  24.356  1.00  0.00    -0.259 N 
HETATM    2  N2  UNL     1      -2.082   1.942  23.135  1.00  0.00    -0.121 NA
HETATM    3  C6  UNL     1      -0.665   2.386  23.061  1.00  0.00     0.192 C 
HETATM    4  C11 UNL     1      -0.745   3.850  22.700  1.00  0.00     0.248 C 
HETATM    5  O1  UNL     1      -0.283   4.632  23.609  1.00  0.00    -0.271 OA
HETATM    6  N3  UNL     1      -1.270   4.328  21.498  1.00  0.00    -0.262 N 
HETATM    7  C12 UNL     1      -1.479   4.924  20.182  1.00  0.00     0.260 A 
HETATM    8  O2  UNL     1      -1.004   5.506  19.175  1.00  0.00    -0.270 OA
HETATM    9  C13 UNL     1      -2.586   4.318  20.979  1.00  0.00     0.280 A 
HETATM   10  C14 UNL     1      -3.524   5.234  21.641  1.00  0.00     0.251 C 
HETATM   11  O3  UNL     1      -3.376   6.476  21.289  1.00  0.00    -0.271 OA
HETATM   12  N4  UNL     1      -4.524   5.007  22.562  1.00  0.00    -0.347 N 
ATOM     13  H4  UNL     1      -4.450   5.571  23.409  1.00  0.00     0.163 HD
HETATM   14  C15 UNL     1      -5.673   4.098  22.542  1.00  0.00     0.159 C 
HETATM   15  C20 UNL     1      -6.108   3.738  23.898  1.00  0.00     0.137 C 
HETATM   16  N5  UNL     1      -5.398   3.171  24.977  1.00  0.00    -0.355 N 
HETATM   17  C21 UNL     1      -6.145   2.481  26.012  1.00  0.00     0.152 C 
HETATM   18  C22 UNL     1      -3.933   3.214  25.184  1.00  0.00     0.179 C 
HETATM   19  C27 UNL     1      -3.420   1.797  25.221  1.00  0.00     0.258 C 
HETATM   20  O5  UNL     1      -3.976   1.049  26.076  1.00  0.00    -0.270 OA
ENDROOT
BRANCH   1  21
HETATM   21  C5  UNL     1      -1.615   0.186  24.744  1.00  0.00     0.175 C 
BRANCH  21  22
HETATM   22  C4  UNL     1      -0.748   0.406  25.922  1.00  0.00    -0.004 C 
HETATM   23  C2  UNL     1       0.544   0.177  25.863  1.00  0.00    -0.090 C 
HETATM   24  C1  UNL     1       1.315   0.449  27.145  1.00  0.00     0.042 C 
HETATM   25  C3  UNL     1       1.287  -0.340  24.686  1.00  0.00     0.042 C 
ENDBRANCH  21  22
ENDBRANCH   1  21
BRANCH   3  26
HETATM   26  C7  UNL     1      -0.064   1.630  21.967  1.00  0.00     0.036 C 
BRANCH  26  27
HETATM   27  C8  UNL     1      -0.785   0.752  21.071  1.00  0.00    -0.021 C 
HETATM   28  C9  UNL     1      -0.809   1.155  19.624  1.00  0.00     0.009 C 
HETATM   29  C10 UNL     1      -0.458  -0.712  21.108  1.00  0.00     0.009 C 
ENDBRANCH  26  27
ENDBRANCH   3  26
BRANCH  18  30
HETATM   30  C23 UNL     1      -3.627   4.051  26.367  1.00  0.00     0.039 C 
BRANCH  30  31
HETATM   31  C24 UNL     1      -2.257   4.361  26.763  1.00  0.00    -0.020 C 
HETATM   32  C25 UNL     1      -1.559   3.492  27.759  1.00  0.00     0.009 C 
HETATM   33  C26 UNL     1      -2.309   5.756  27.447  1.00  0.00     0.009 C 
ENDBRANCH  30  31
ENDBRANCH  18  30
BRANCH  15  34
HETATM   34  O4  UNL     1      -7.361   3.985  24.157  1.00  0.00    -0.348 OA
ATOM     35  H4  UNL     1      -7.921   3.217  24.193  1.00  0.00     0.219 HD
ENDBRANCH  15  34
BRANCH  14  36
HETATM   36  C16 UNL     1      -5.558   3.033  21.528  1.00  0.00     0.037 C 
BRANCH  36  37
HETATM   37  C17 UNL     1      -6.809   2.628  20.792  1.00  0.00    -0.020 C 
HETATM   38  C18 UNL     1      -7.593   3.882  20.405  1.00  0.00     0.009 C 
HETATM   39  C19 UNL     1      -7.686   1.640  21.434  1.00  0.00     0.009 C 
ENDBRANCH  36  37
ENDBRANCH  14  36
TORSDOF 9
ENDMDL
MODEL 3
REMARK VINA RESULT: -5.924433141      1.555      2.019
REMARK  9 active torsions:
REMARK  status: ('A' for Active; 'I' for Inactive)
REMARK    1  A    between atoms: C4_4  and  C5_5 
REMARK    2  A    between atoms: C5_5  and  N1_6 
REMARK    3  A    between atoms: C6_8  and  C7_9 
REMARK    4  A    between atoms: C7_9  and  C8_10 
REMARK    5  A    between atoms: C15_23  and  C16_24 
REMARK    6  A    between atoms: C16_24  and  C17_25 
REMARK    7  A    between atoms: C20_28  and  O4_29 
REMARK    8  A    between atoms: C22_33  and  C23_34 
REMARK    9  A    between atoms: C23_34  and  C24_35 
ROOT
HETATM    1  N1  UNL     1      -2.676   0.458  22.237  1.00  0.00    -0.259 N 
HETATM    2  N2  UNL     1      -2.461   1.494  21.327  1.00  0.00    -0.121 NA
HETATM    3  C6  UNL     1      -1.017   1.752  21.087  1.00  0.00     0.192 C 
HETATM    4  C11 UNL     1      -0.841   3.222  21.379  1.00  0.00     0.248 C 
HETATM    5  O1  UNL     1      -0.069   3.460  22.380  1.00  0.00    -0.271 OA
HETATM    6  N3  UNL     1      -1.451   4.241  20.647  1.00  0.00    -0.262 N 
HETATM    7  C12 UNL     1      -1.752   5.378  19.781  1.00  0.00     0.260 A 
HETATM    8  O2  UNL     1      -1.346   6.283  19.011  1.00  0.00    -0.270 OA
HETATM    9  C13 UNL     1      -2.807   4.620  20.516  1.00  0.00     0.280 A 
HETATM   10  C14 UNL     1      -3.395   5.254  21.702  1.00  0.00     0.251 C 
HETATM   11  O3  UNL     1      -3.046   6.496  21.857  1.00  0.00    -0.271 OA
HETATM   12  N4  UNL     1      -4.244   4.765  22.671  1.00  0.00    -0.347 N 
ATOM     13  H4  UNL     1      -3.905   4.883  23.626  1.00  0.00     0.163 HD
HETATM   14  C15 UNL     1      -5.549   4.104  22.574  1.00  0.00     0.159 C 
HETATM   15  C20 UNL     1      -5.808   3.236  23.732  1.00  0.00     0.137 C 
HETATM   16  N5  UNL     1      -5.061   2.170  24.274  1.00  0.00    -0.355 N 
HETATM   17  C21 UNL     1      -5.747   1.189  25.093  1.00  0.00     0.152 C 
HETATM   18  C22 UNL     1      -3.608   1.942  24.108  1.00  0.00     0.179 C 
HETATM   19  C27 UNL     1      -3.414   0.604  23.439  1.00  0.00     0.258 C 
HETATM   20  O5  UNL     1      -3.961  -0.372  24.028  1.00  0.00    -0.270 OA
ENDROOT
BRANCH   1  21
HETATM   21  C5  UNL     1      -2.112  -0.834  21.917  1.00  0.00     0.175 C 
BRANCH  21  22
HETATM   22  C4  UNL     1      -2.671  -1.454  20.696  1.00  0.00    -0.004 C 
HETATM   23  C2  UNL     1      -2.022  -2.402  20.061  1.00  0.00    -0.090 C 
HETATM   24  C1  UNL     1      -2.713  -2.952  18.824  1.00  0.00     0.042 C 
HETATM   25  C3  UNL     1      -0.689  -2.945  20.427  1.00  0.00     0.042 C 
ENDBRANCH  21  22
ENDBRANCH   1  21
BRANCH   3  26
HETATM   26  C7  UNL     1      -0.793   1.491  19.668  1.00  0.00     0.036 C 
BRANCH  26  27
HETATM   27  C8  UNL     1       0.361   0.811  19.121  1.00  0.00    -0.021 C 
HETATM   28  C9  UNL     1       1.263   0.133  20.113  1.00  0.00     0.009 C 
HETATM   29  C10 UNL     1       0.137  -0.163  18.001  1.00  0.00     0.009 C 
ENDBRANCH  26  27
ENDBRANCH   3  26
BRANCH  18  30
HETATM   30  C23 UNL     1      -2.927   2.126  25.409  1.00  0.00     0.039 C 
BRANCH  30  31
HETATM   31  C24 UNL     1      -1.645   2.814  25.523  1.00  0.00    -0.020 C 
HETATM   32  C25 UNL     1      -0.835   2.670  26.772  1.00  0.00     0.009 C 
HETATM   33  C26 UNL     1      -1.960   4.335  25.448  1.00  0.00     0.009 C 
ENDBRANCH  30  31
ENDBRANCH  18  30
BRANCH  15  34
HETATM   34  O4  UNL     1      -6.914   3.491  24.373  1.00  0.00    -0.348 OA
ATOM     35  H4  UNL     1      -7.631   3.796  23.828  1.00  0.00     0.219 HD
ENDBRANCH  15  34
BRANCH  14  36
HETATM   36  C16 UNL     1      -5.845   3.591  21.224  1.00  0.00     0.037 C 
BRANCH  36  37
HETATM   37  C17 UNL     1      -7.254   3.141  20.939  1.00  0.00    -0.020 C 
HETATM   38  C18 UNL     1      -7.353   1.630  21.153  1.00  0.00     0.009 C 
HETATM   39  C19 UNL     1      -7.843   3.526  19.650  1.00  0.00     0.009 C 
ENDBRANCH  36  37
ENDBRANCH  14  36
TORSDOF 9
ENDMDL
MODEL 4
REMARK VINA RESULT: -5.882777083      3.654      7.613
REMARK  9 active torsions:
REMARK  status: ('A' for Active; 'I' for Inactive)
REMARK    1  A    between atoms: C4_4  and  C5_5 
REMARK    2  A    between atoms: C5_5  and  N1_6 
REMARK    3  A    between atoms: C6_8  and  C7_9 
REMARK    4  A    between atoms: C7_9  and  C8_10 
REMARK    5  A    between atoms: C15_23  and  C16_24 
REMARK    6  A    between atoms: C16_24  and  C17_25 
REMARK    7  A    between atoms: C20_28  and  O4_29 
REMARK    8  A    between atoms: C22_33  and  C23_34 
REMARK    9  A    between atoms: C23_34  and  C24_35 
ROOT
HETATM    1  N1  UNL     1      -2.289   4.320  26.552  1.00  0.00    -0.259 N 
HETATM    2  N2  UNL     1      -1.703   3.692  27.651  1.00  0.00    -0.121 NA
HETATM    3  C6  UNL     1      -1.456   2.245  27.417  1.00  0.00     0.192 C 
HETATM    4  C11 UNL     1      -2.146   1.551  28.566  1.00  0.00     0.248 C 
HETATM    5  O1  UNL     1      -3.122   0.797  28.203  1.00  0.00    -0.271 OA
HETATM    6  N3  UNL     1      -1.777   1.703  29.904  1.00  0.00    -0.262 N 
HETATM    7  C12 UNL     1      -1.294   1.518  31.269  1.00  0.00     0.260 A 
HETATM    8  O2  UNL     1      -0.792   0.768  32.142  1.00  0.00    -0.270 OA
HETATM    9  C13 UNL     1      -1.846   2.815  30.775  1.00  0.00     0.280 A 
HETATM   10  C14 UNL     1      -3.199   3.184  31.209  1.00  0.00     0.251 C 
HETATM   11  O3  UNL     1      -3.680   2.408  32.133  1.00  0.00    -0.271 OA
HETATM   12  N4  UNL     1      -4.038   4.201  30.809  1.00  0.00    -0.347 N 
ATOM     13  H4  UNL     1      -4.963   3.889  30.513  1.00  0.00     0.163 HD
HETATM   14  C15 UNL     1      -3.839   5.651  30.734  1.00  0.00     0.159 C 
HETATM   15  C20 UNL     1      -4.713   6.270  29.728  1.00  0.00     0.137 C 
HETATM   16  N5  UNL     1      -4.878   5.999  28.354  1.00  0.00    -0.355 N 
HETATM   17  C21 UNL     1      -5.424   7.040  27.503  1.00  0.00     0.152 C 
HETATM   18  C22 UNL     1      -4.562   4.728  27.665  1.00  0.00     0.179 C 
HETATM   19  C27 UNL     1      -3.528   5.010  26.605  1.00  0.00     0.258 C 
HETATM   20  O5  UNL     1      -3.845   5.909  25.774  1.00  0.00    -0.270 OA
ENDROOT
BRANCH   1  21
HETATM   21  C5  UNL     1      -1.578   4.260  25.295  1.00  0.00     0.175 C 
BRANCH  21  22
HETATM   22  C4  UNL     1      -2.188   3.355  24.297  1.00  0.00    -0.004 C 
HETATM   23  C2  UNL     1      -2.589   3.807  23.130  1.00  0.00    -0.090 C 
HETATM   24  C1  UNL     1      -3.194   2.769  22.200  1.00  0.00     0.042 C 
HETATM   25  C3  UNL     1      -2.527   5.218  22.672  1.00  0.00     0.042 C 
ENDBRANCH  21  22
ENDBRANCH   1  21
BRANCH   3  26
HETATM   26  C7  UNL     1      -0.011   2.063  27.515  1.00  0.00     0.036 C 
BRANCH  26  27
HETATM   27  C8  UNL     1       0.796   1.309  26.579  1.00  0.00    -0.021 C 
HETATM   28  C9  UNL     1       1.231   2.038  25.340  1.00  0.00     0.009 C 
HETATM   29  C10 UNL     1       2.004   0.595  27.111  1.00  0.00     0.009 C 
ENDBRANCH  26  27
ENDBRANCH   3  26
BRANCH  18  30
HETATM   30  C23 UNL     1      -5.816   4.093  27.201  1.00  0.00     0.039 C 
BRANCH  30  31
HETATM   31  C24 UNL     1      -5.819   2.990  26.245  1.00  0.00    -0.020 C 
HETATM   32  C25 UNL     1      -6.136   3.256  24.808  1.00  0.00     0.009 C 
HETATM   33  C26 UNL     1      -6.941   2.018  26.707  1.00  0.00     0.009 C 
ENDBRANCH  30  31
ENDBRANCH  18  30
BRANCH  15  34
HETATM   34  O4  UNL     1      -5.468   7.233  30.175  1.00  0.00    -0.348 OA
ATOM     35  H4  UNL     1      -5.945   7.712  29.507  1.00  0.00     0.219 HD
ENDBRANCH  15  34
BRANCH  14  36
HETATM   36  C16 UNL     1      -2.420   6.048  30.780  1.00  0.00     0.037 C 
BRANCH  36  37
HETATM   37  C17 UNL     1      -2.040   7.366  30.156  1.00  0.00    -0.020 C 
HETATM   38  C18 UNL     1      -0.780   7.179  29.312  1.00  0.00     0.009 C 
HETATM   39  C19 UNL     1      -1.905   8.526  31.047  1.00  0.00     0.009 C 
ENDBRANCH  36  37
ENDBRANCH  14  36
TORSDOF 9
ENDMDL
MODEL 5
REMARK VINA RESULT: -5.810504766      2.260      5.104
REMARK  9 active torsions:
REMARK  status: ('A' for Active; 'I' for Inactive)
REMARK    1  A    between atoms: C4_4  and  C5_5 
REMARK    2  A    between atoms: C5_5  and  N1_6 
REMARK    3  A    between atoms: C6_8  and  C7_9 
REMARK    4  A    between atoms: C7_9  and  C8_10 
REMARK    5  A    between atoms: C15_23  and  C16_24 
REMARK    6  A    between atoms: C16_24  and  C17_25 
REMARK    7  A    between atoms: C20_28  and  O4_29 
REMARK    8  A    between atoms: C22_33  and  C23_34 
REMARK    9  A    between atoms: C23_34  and  C24_35 
ROOT
HETATM    1  N1  UNL     1      -2.479   3.919  24.831  1.00  0.00    -0.259 N 
HETATM    2  N2  UNL     1      -1.664   2.925  24.288  1.00  0.00    -0.121 NA
HETATM    3  C6  UNL     1      -0.362   3.455  23.805  1.00  0.00     0.192 C 
HETATM    4  C11 UNL     1      -0.280   3.005  22.367  1.00  0.00     0.248 C 
HETATM    5  O1  UNL     1      -0.270   3.975  21.523  1.00  0.00    -0.271 OA
HETATM    6  N3  UNL     1      -0.222   1.668  21.971  1.00  0.00    -0.262 N 
HETATM    7  C12 UNL     1       0.169   0.360  21.453  1.00  0.00     0.260 A 
HETATM    8  O2  UNL     1       1.038  -0.369  20.913  1.00  0.00    -0.270 OA
HETATM    9  C13 UNL     1      -1.174   0.624  22.049  1.00  0.00     0.280 A 
HETATM   10  C14 UNL     1      -2.310   0.747  21.127  1.00  0.00     0.251 C 
HETATM   11  O3  UNL     1      -2.027   0.420  19.903  1.00  0.00    -0.271 OA
HETATM   12  N4  UNL     1      -3.613   1.145  21.335  1.00  0.00    -0.347 N 
ATOM     13  H4  UNL     1      -3.923   1.901  20.724  1.00  0.00     0.163 HD
HETATM   14  C15 UNL     1      -4.633   0.678  22.278  1.00  0.00     0.159 C 
HETATM   15  C20 UNL     1      -5.620   1.724  22.577  1.00  0.00     0.137 C 
HETATM   16  N5  UNL     1      -5.457   3.037  23.064  1.00  0.00    -0.355 N 
HETATM   17  C21 UNL     1      -6.582   3.678  23.719  1.00  0.00     0.152 C 
HETATM   18  C22 UNL     1      -4.235   3.866  22.964  1.00  0.00     0.179 C 
HETATM   19  C27 UNL     1      -3.785   4.213  24.360  1.00  0.00     0.258 C 
HETATM   20  O5  UNL     1      -4.659   4.780  25.078  1.00  0.00    -0.270 OA
ENDROOT
BRANCH   1  21
HETATM   21  C5  UNL     1      -1.950   4.680  25.939  1.00  0.00     0.175 C 
BRANCH  21  22
HETATM   22  C4  UNL     1      -2.036   3.990  27.245  1.00  0.00    -0.004 C 
HETATM   23  C2  UNL     1      -2.016   4.666  28.370  1.00  0.00    -0.090 C 
HETATM   24  C1  UNL     1      -2.116   3.831  29.636  1.00  0.00     0.042 C 
HETATM   25  C3  UNL     1      -1.879   6.139  28.502  1.00  0.00     0.042 C 
ENDBRANCH  21  22
ENDBRANCH   1  21
BRANCH   3  26
HETATM   26  C7  UNL     1       0.663   2.787  24.601  1.00  0.00     0.036 C 
BRANCH  26  27
HETATM   27  C8  UNL     1       0.435   1.640  25.454  1.00  0.00    -0.021 C 
HETATM   28  C9  UNL     1       1.129   0.368  25.055  1.00  0.00     0.009 C 
HETATM   29  C10 UNL     1       0.651   1.808  26.929  1.00  0.00     0.009 C 
ENDBRANCH  26  27
ENDBRANCH   3  26
BRANCH  18  30
HETATM   30  C23 UNL     1      -4.485   5.008  22.055  1.00  0.00     0.039 C 
BRANCH  30  31
HETATM   31  C24 UNL     1      -3.417   5.630  21.281  1.00  0.00    -0.020 C 
HETATM   32  C25 UNL     1      -3.673   6.921  20.569  1.00  0.00     0.009 C 
HETATM   33  C26 UNL     1      -3.068   4.632  20.141  1.00  0.00     0.009 C 
ENDBRANCH  30  31
ENDBRANCH  18  30
BRANCH  15  34
HETATM   34  O4  UNL     1      -6.860   1.388  22.356  1.00  0.00    -0.348 OA
ATOM     35  H4  UNL     1      -7.360   2.015  21.846  1.00  0.00     0.219 HD
ENDBRANCH  15  34
BRANCH  14  36
HETATM   36  C16 UNL     1      -4.078  -0.113  23.393  1.00  0.00     0.037 C 
BRANCH  36  37
HETATM   37  C17 UNL     1      -4.503   0.253  24.791  1.00  0.00    -0.020 C 
HETATM   38  C18 UNL     1      -3.272   0.284  25.698  1.00  0.00     0.009 C 
HETATM   39  C19 UNL     1      -5.584  -0.531  25.402  1.00  0.00     0.009 C 
ENDBRANCH  36  37
ENDBRANCH  14  36
TORSDOF 9
ENDMDL
