MODEL 1
REMARK VINA RESULT: -7.940586056      0.000      0.000
REMARK  11 active torsions:
REMARK  status: ('A' for Active; 'I' for Inactive)
REMARK    1  A    between atoms: N1_2  and  C2_3 
REMARK    2  A    between atoms: C2_3  and  C3_4 
REMARK    3  A    between atoms: N2_7  and  C6_8 
REMARK    4  A    between atoms: C9_12  and  C10_13 
REMARK    5  A    between atoms: C10_13  and  C11_14 
REMARK    6  A    between atoms: C11_14  and  N4_15 
REMARK    7  A    between atoms: N4_15  and  S1_17 
REMARK    8  A    between atoms: S1_17  and  N5_18 
REMARK    9  A    between atoms: C12_23  and  O3_24 
REMARK   10  A    between atoms: O3_24  and  C13_25 
REMARK       I    between atoms: C13_25  and  N6_27 
REMARK   11  A    between atoms: N6_27  and  C14_29 
ROOT
HETATM    1  C6  UNL     1      -3.415   7.254  19.443  1.00  0.00     0.246 C 
HETATM    2  C7  UNL     1      -2.261   8.157  19.423  1.00  0.00     0.078 C 
HETATM    3  N3  UNL     1      -1.350   8.870  19.410  1.00  0.00    -0.196 NA
ENDROOT
BRANCH   1   4
HETATM    4  N2  UNL     1      -3.174   6.108  20.285  1.00  0.00    -0.381 N 
HETATM    5  C5  UNL     1      -4.175   5.827  21.261  1.00  0.00     0.123 C 
HETATM    6  C4  UNL     1      -4.147   4.323  21.535  1.00  0.00     0.027 C 
HETATM    7  C3  UNL     1      -2.826   4.002  22.130  1.00  0.00     0.022 C 
HETATM    8  C9  UNL     1      -1.803   4.191  20.996  1.00  0.00     0.031 C 
HETATM    9  C8  UNL     1      -2.149   5.382  20.187  1.00  0.00     0.064 C 
BRANCH   7  10
HETATM   10  C2  UNL     1      -2.588   2.701  22.750  1.00  0.00     0.246 C 
BRANCH  10  11
HETATM   11  N1  UNL     1      -2.534   2.504  24.142  1.00  0.00    -0.039 N 
HETATM   12  C1  UNL     1      -3.536   1.770  24.811  1.00  0.00     0.276 C 
HETATM   13  C12 UNL     1      -2.331   3.828  24.768  1.00  0.00     0.337 C 
HETATM   14  C20 UNL     1      -0.848   4.101  24.701  1.00  0.00     0.069 C 
HETATM   15  C21 UNL     1      -0.226   2.847  24.138  1.00  0.00     0.021 C 
HETATM   16  C22 UNL     1       0.960   2.374  24.945  1.00  0.00     0.007 C 
HETATM   17  C25 UNL     1      -1.260   1.808  24.399  1.00  0.00     0.197 C 
HETATM   18  C23 UNL     1       0.476   1.342  25.907  1.00  0.00     0.002 C 
HETATM   19  C24 UNL     1      -1.060   1.358  25.789  1.00  0.00     0.034 C 
BRANCH  13  20
HETATM   20  O3  UNL     1      -2.801   3.899  26.071  1.00  0.00    -0.270 OA
BRANCH  20  21
HETATM   21  C13 UNL     1      -2.883   4.996  26.883  1.00  0.00     0.362 C 
HETATM   22  O4  UNL     1      -3.506   5.995  26.431  1.00  0.00    -0.238 OA
HETATM   23  N6  UNL     1      -2.289   5.009  28.182  1.00  0.00    -0.332 N 
ATOM     24  H6  UNL     1      -1.799   4.169  28.489  1.00  0.00     0.165 HD
BRANCH  23  25
HETATM   25  C14 UNL     1      -2.335   6.122  29.083  1.00  0.00     0.086 C 
HETATM   26  C15 UNL     1      -0.919   6.538  29.514  1.00  0.00     0.025 C 
HETATM   27  C16 UNL     1      -1.029   7.886  30.144  1.00  0.00     0.002 C 
HETATM   28  C17 UNL     1      -2.365   8.193  30.729  1.00  0.00     0.000 C 
HETATM   29  C18 UNL     1      -3.103   6.990  31.249  1.00  0.00     0.002 C 
HETATM   30  C19 UNL     1      -3.053   5.790  30.376  1.00  0.00     0.025 C 
ENDBRANCH  23  25
ENDBRANCH  20  21
ENDBRANCH  13  20
ENDBRANCH  10  11
ENDBRANCH   7  10
BRANCH   8  31
HETATM   31  C10 UNL     1      -1.696   2.991  20.120  1.00  0.00     0.030 C 
BRANCH  31  32
HETATM   32  C11 UNL     1      -0.339   2.315  20.284  1.00  0.00     0.134 C 
BRANCH  32  33
HETATM   33  N4  UNL     1      -0.377   1.067  19.500  1.00  0.00    -0.303 N 
ATOM     34  H4  UNL     1      -1.165   0.419  19.488  1.00  0.00     0.173 HD
BRANCH  33  35
HETATM   35  S1  UNL     1       1.067   0.844  18.615  1.00  0.00     0.312 S 
HETATM   36  O1  UNL     1       2.235   0.686  19.568  1.00  0.00    -0.183 OA
HETATM   37  O2  UNL     1       1.347   2.005  17.680  1.00  0.00    -0.183 OA
BRANCH  35  38
HETATM   38  N5  UNL     1       1.019  -0.578  17.636  1.00  0.00    -0.312 N 
ATOM     39  H52 UNL     1       0.337  -1.325  17.772  1.00  0.00     0.170 HD
ATOM     40  H51 UNL     1       1.743  -0.576  16.919  1.00  0.00     0.170 HD
ENDBRANCH  35  38
ENDBRANCH  33  35
ENDBRANCH  32  33
ENDBRANCH  31  32
ENDBRANCH   8  31
ENDBRANCH   1   4
TORSDOF 11
ENDMDL
MODEL 2
REMARK VINA RESULT: -7.893629843      1.228      1.436
REMARK  11 active torsions:
REMARK  status: ('A' for Active; 'I' for Inactive)
REMARK    1  A    between atoms: N1_2  and  C2_3 
REMARK    2  A    between atoms: C2_3  and  C3_4 
REMARK    3  A    between atoms: N2_7  and  C6_8 
REMARK    4  A    between atoms: C9_12  and  C10_13 
REMARK    5  A    between atoms: C10_13  and  C11_14 
REMARK    6  A    between atoms: C11_14  and  N4_15 
REMARK    7  A    between atoms: N4_15  and  S1_17 
REMARK    8  A    between atoms: S1_17  and  N5_18 
REMARK    9  A    between atoms: C12_23  and  O3_24 
REMARK   10  A    between atoms: O3_24  and  C13_25 
REMARK       I    between atoms: C13_25  and  N6_27 
REMARK   11  A    between atoms: N6_27  and  C14_29 
ROOT
HETATM    1  C6  UNL     1      -2.064   7.789  19.278  1.00  0.00     0.246 C 
HETATM    2  C7  UNL     1      -2.819   8.993  19.638  1.00  0.00     0.078 C 
HETATM    3  N3  UNL     1      -3.417   9.941  19.921  1.00  0.00    -0.196 NA
ENDROOT
BRANCH   1   4
HETATM    4  N2  UNL     1      -2.376   6.689  20.157  1.00  0.00    -0.381 N 
HETATM    5  C5  UNL     1      -3.651   6.739  20.794  1.00  0.00     0.123 C 
HETATM    6  C4  UNL     1      -4.090   5.300  21.068  1.00  0.00     0.027 C 
HETATM    7  C3  UNL     1      -3.122   4.714  22.028  1.00  0.00     0.022 C 
HETATM    8  C9  UNL     1      -1.805   4.556  21.247  1.00  0.00     0.031 C 
HETATM    9  C8  UNL     1      -1.588   5.729  20.369  1.00  0.00     0.064 C 
BRANCH   7  10
HETATM   10  C2  UNL     1      -3.414   3.447  22.695  1.00  0.00     0.246 C 
BRANCH  10  11
HETATM   11  N1  UNL     1      -3.802   3.352  24.044  1.00  0.00    -0.039 N 
HETATM   12  C1  UNL     1      -5.079   2.870  24.399  1.00  0.00     0.276 C 
HETATM   13  C12 UNL     1      -3.529   4.660  24.675  1.00  0.00     0.337 C 
HETATM   14  C20 UNL     1      -2.065   4.650  25.047  1.00  0.00     0.069 C 
HETATM   15  C21 UNL     1      -1.570   3.263  24.718  1.00  0.00     0.021 C 
HETATM   16  C22 UNL     1      -0.785   2.644  25.851  1.00  0.00     0.007 C 
HETATM   17  C25 UNL     1      -2.821   2.456  24.681  1.00  0.00     0.197 C 
HETATM   18  C23 UNL     1      -1.720   1.796  26.646  1.00  0.00     0.002 C 
HETATM   19  C24 UNL     1      -3.122   2.085  26.077  1.00  0.00     0.034 C 
BRANCH  13  20
HETATM   20  O3  UNL     1      -4.329   4.918  25.778  1.00  0.00    -0.270 OA
BRANCH  20  21
HETATM   21  C13 UNL     1      -4.113   5.809  26.792  1.00  0.00     0.362 C 
HETATM   22  O4  UNL     1      -4.846   6.836  26.815  1.00  0.00    -0.238 OA
HETATM   23  N6  UNL     1      -3.104   5.589  27.777  1.00  0.00    -0.332 N 
ATOM     24  H6  UNL     1      -2.544   4.740  27.703  1.00  0.00     0.165 HD
BRANCH  23  25
HETATM   25  C14 UNL     1      -2.822   6.480  28.863  1.00  0.00     0.086 C 
HETATM   26  C15 UNL     1      -1.311   6.552  29.138  1.00  0.00     0.025 C 
HETATM   27  C16 UNL     1      -1.078   7.737  30.013  1.00  0.00     0.002 C 
HETATM   28  C17 UNL     1      -2.249   8.136  30.846  1.00  0.00     0.000 C 
HETATM   29  C18 UNL     1      -3.141   6.993  31.244  1.00  0.00     0.002 C 
HETATM   30  C19 UNL     1      -3.433   6.011  30.169  1.00  0.00     0.025 C 
ENDBRANCH  23  25
ENDBRANCH  20  21
ENDBRANCH  13  20
ENDBRANCH  10  11
ENDBRANCH   7  10
BRANCH   8  31
HETATM   31  C10 UNL     1      -1.765   3.302  20.445  1.00  0.00     0.030 C 
BRANCH  31  32
HETATM   32  C11 UNL     1      -0.508   2.497  20.757  1.00  0.00     0.134 C 
BRANCH  32  33
HETATM   33  N4  UNL     1      -0.719   1.138  20.224  1.00  0.00    -0.303 N 
ATOM     34  H4  UNL     1      -1.337   0.444  20.645  1.00  0.00     0.173 HD
BRANCH  33  35
HETATM   35  S1  UNL     1       0.205   0.874  18.810  1.00  0.00     0.312 S 
HETATM   36  O1  UNL     1       0.606   2.203  18.203  1.00  0.00    -0.183 OA
HETATM   37  O2  UNL     1      -0.556   0.069  17.775  1.00  0.00    -0.183 OA
BRANCH  35  38
HETATM   38  N5  UNL     1       1.663   0.008  19.137  1.00  0.00    -0.312 N 
ATOM     39  H52 UNL     1       2.526   0.463  19.435  1.00  0.00     0.170 HD
ATOM     40  H51 UNL     1       1.552  -0.996  18.998  1.00  0.00     0.170 HD
ENDBRANCH  35  38
ENDBRANCH  33  35
ENDBRANCH  32  33
ENDBRANCH  31  32
ENDBRANCH   8  31
ENDBRANCH   1   4
TORSDOF 11
ENDMDL
MODEL 3
REMARK VINA RESULT: -7.874128909      1.626      2.210
REMARK  11 active torsions:
REMARK  status: ('A' for Active; 'I' for Inactive)
REMARK    1  A    between atoms: N1_2  and  C2_3 
REMARK    2  A    between atoms: C2_3  and  C3_4 
REMARK    3  A    between atoms: N2_7  and  C6_8 
REMARK    4  A    between atoms: C9_12  and  C10_13 
REMARK    5  A    between atoms: C10_13  and  C11_14 
REMARK    6  A    between atoms: C11_14  and  N4_15 
REMARK    7  A    between atoms: N4_15  and  S1_17 
REMARK    8  A    between atoms: S1_17  and  N5_18 
REMARK    9  A    between atoms: C12_23  and  O3_24 
REMARK   10  A    between atoms: O3_24  and  C13_25 
REMARK       I    between atoms: C13_25  and  N6_27 
REMARK   11  A    between atoms: N6_27  and  C14_29 
ROOT
HETATM    1  C6  UNL     1      -1.489   7.584  19.355  1.00  0.00     0.246 C 
HETATM    2  C7  UNL     1      -2.181   8.872  19.460  1.00  0.00     0.078 C 
HETATM    3  N3  UNL     1      -2.729   9.887  19.542  1.00  0.00    -0.196 NA
ENDROOT
BRANCH   1   4
HETATM    4  N2  UNL     1      -2.176   6.554  20.095  1.00  0.00    -0.381 N 
HETATM    5  C5  UNL     1      -3.561   6.784  20.348  1.00  0.00     0.123 C 
HETATM    6  C4  UNL     1      -4.243   5.421  20.468  1.00  0.00     0.027 C 
HETATM    7  C3  UNL     1      -3.669   4.737  21.653  1.00  0.00     0.022 C 
HETATM    8  C9  UNL     1      -2.219   4.392  21.271  1.00  0.00     0.031 C 
HETATM    9  C8  UNL     1      -1.612   5.506  20.506  1.00  0.00     0.064 C 
BRANCH   7  10
HETATM   10  C2  UNL     1      -4.299   3.534  22.193  1.00  0.00     0.246 C 
BRANCH  10  11
HETATM   11  N1  UNL     1      -4.777   3.435  23.512  1.00  0.00    -0.039 N 
HETATM   12  C1  UNL     1      -5.983   4.060  23.896  1.00  0.00     0.276 C 
HETATM   13  C12 UNL     1      -3.668   3.812  24.413  1.00  0.00     0.337 C 
HETATM   14  C20 UNL     1      -2.821   2.573  24.578  1.00  0.00     0.069 C 
HETATM   15  C21 UNL     1      -3.555   1.475  23.847  1.00  0.00     0.021 C 
HETATM   16  C22 UNL     1      -3.693   0.219  24.674  1.00  0.00     0.007 C 
HETATM   17  C25 UNL     1      -4.949   1.994  23.769  1.00  0.00     0.197 C 
HETATM   18  C23 UNL     1      -5.026   0.255  25.343  1.00  0.00     0.002 C 
HETATM   19  C24 UNL     1      -5.594   1.657  25.052  1.00  0.00     0.034 C 
BRANCH  13  20
HETATM   20  O3  UNL     1      -4.096   4.299  25.640  1.00  0.00    -0.270 OA
BRANCH  20  21
HETATM   21  C13 UNL     1      -3.512   5.256  26.421  1.00  0.00     0.362 C 
HETATM   22  O4  UNL     1      -2.853   6.154  25.828  1.00  0.00    -0.238 OA
HETATM   23  N6  UNL     1      -3.640   5.240  27.843  1.00  0.00    -0.332 N 
ATOM     24  H6  UNL     1      -4.185   4.487  28.262  1.00  0.00     0.165 HD
BRANCH  23  25
HETATM   25  C14 UNL     1      -3.054   6.208  28.722  1.00  0.00     0.086 C 
HETATM   26  C15 UNL     1      -1.592   5.851  29.037  1.00  0.00     0.025 C 
HETATM   27  C16 UNL     1      -0.965   7.061  29.645  1.00  0.00     0.002 C 
HETATM   28  C17 UNL     1      -1.920   7.985  30.321  1.00  0.00     0.000 C 
HETATM   29  C18 UNL     1      -3.119   7.302  30.920  1.00  0.00     0.002 C 
HETATM   30  C19 UNL     1      -3.743   6.256  30.071  1.00  0.00     0.025 C 
ENDBRANCH  23  25
ENDBRANCH  20  21
ENDBRANCH  13  20
ENDBRANCH  10  11
ENDBRANCH   7  10
BRANCH   8  31
HETATM   31  C10 UNL     1      -2.120   3.124  20.495  1.00  0.00     0.030 C 
BRANCH  31  32
HETATM   32  C11 UNL     1      -0.748   2.482  20.673  1.00  0.00     0.134 C 
BRANCH  32  33
HETATM   33  N4  UNL     1      -0.129   2.401  19.337  1.00  0.00    -0.303 N 
ATOM     34  H4  UNL     1      -0.114   3.166  18.663  1.00  0.00     0.173 HD
BRANCH  33  35
HETATM   35  S1  UNL     1       0.561   0.862  19.064  1.00  0.00     0.312 S 
HETATM   36  O1  UNL     1       2.045   0.903  19.366  1.00  0.00    -0.183 OA
HETATM   37  O2  UNL     1       0.361   0.393  17.636  1.00  0.00    -0.183 OA
BRANCH  35  38
HETATM   38  N5  UNL     1      -0.128  -0.351  20.083  1.00  0.00    -0.312 N 
ATOM     39  H52 UNL     1       0.420  -0.895  20.751  1.00  0.00     0.170 HD
ATOM     40  H51 UNL     1      -1.132  -0.451  19.936  1.00  0.00     0.170 HD
ENDBRANCH  35  38
ENDBRANCH  33  35
ENDBRANCH  32  33
ENDBRANCH  31  32
ENDBRANCH   8  31
ENDBRANCH   1   4
TORSDOF 11
ENDMDL
MODEL 4
REMARK VINA RESULT: -7.671512373      2.890      4.127
REMARK  11 active torsions:
REMARK  status: ('A' for Active; 'I' for Inactive)
REMARK    1  A    between atoms: N1_2  and  C2_3 
REMARK    2  A    between atoms: C2_3  and  C3_4 
REMARK    3  A    between atoms: N2_7  and  C6_8 
REMARK    4  A    between atoms: C9_12  and  C10_13 
REMARK    5  A    between atoms: C10_13  and  C11_14 
REMARK    6  A    between atoms: C11_14  and  N4_15 
REMARK    7  A    between atoms: N4_15  and  S1_17 
REMARK    8  A    between atoms: S1_17  and  N5_18 
REMARK    9  A    between atoms: C12_23  and  O3_24 
REMARK   10  A    between atoms: O3_24  and  C13_25 
REMARK       I    between atoms: C13_25  and  N6_27 
REMARK   11  A    between atoms: N6_27  and  C14_29 
ROOT
HETATM    1  C6  UNL     1      -8.683   2.633  19.491  1.00  0.00     0.246 C 
HETATM    2  C7  UNL     1      -9.325   3.910  19.166  1.00  0.00     0.078 C 
HETATM    3  N3  UNL     1      -9.831   4.919  18.913  1.00  0.00    -0.196 NA
ENDROOT
BRANCH   1   4
HETATM    4  N2  UNL     1      -7.627   2.804  20.459  1.00  0.00    -0.381 N 
HETATM    5  C5  UNL     1      -7.388   1.697  21.326  1.00  0.00     0.123 C 
HETATM    6  C4  UNL     1      -5.917   1.741  21.740  1.00  0.00     0.027 C 
HETATM    7  C3  UNL     1      -5.710   2.986  22.521  1.00  0.00     0.022 C 
HETATM    8  C9  UNL     1      -5.844   4.138  21.509  1.00  0.00     0.031 C 
HETATM    9  C8  UNL     1      -6.943   3.857  20.556  1.00  0.00     0.064 C 
BRANCH   7  10
HETATM   10  C2  UNL     1      -4.480   3.188  23.284  1.00  0.00     0.246 C 
BRANCH  10  11
HETATM   11  N1  UNL     1      -4.433   3.194  24.690  1.00  0.00    -0.039 N 
HETATM   12  C1  UNL     1      -5.412   2.522  25.452  1.00  0.00     0.276 C 
HETATM   13  C12 UNL     1      -4.292   4.601  25.121  1.00  0.00     0.337 C 
HETATM   14  C20 UNL     1      -2.820   4.924  25.023  1.00  0.00     0.069 C 
HETATM   15  C21 UNL     1      -2.141   3.630  24.648  1.00  0.00     0.021 C 
HETATM   16  C22 UNL     1      -0.946   3.327  25.521  1.00  0.00     0.007 C 
HETATM   17  C25 UNL     1      -3.135   2.596  25.050  1.00  0.00     0.197 C 
HETATM   18  C23 UNL     1      -1.398   2.423  26.618  1.00  0.00     0.002 C 
HETATM   19  C24 UNL     1      -2.932   2.357  26.491  1.00  0.00     0.034 C 
BRANCH  13  20
HETATM   20  O3  UNL     1      -4.778   4.837  26.398  1.00  0.00    -0.270 OA
BRANCH  20  21
HETATM   21  C13 UNL     1      -4.405   5.813  27.279  1.00  0.00     0.362 C 
HETATM   22  O4  UNL     1      -5.026   6.910  27.214  1.00  0.00    -0.238 OA
HETATM   23  N6  UNL     1      -3.359   5.602  28.228  1.00  0.00    -0.332 N 
ATOM     24  H6  UNL     1      -2.895   4.694  28.229  1.00  0.00     0.165 HD
BRANCH  23  25
HETATM   25  C14 UNL     1      -2.915   6.579  29.178  1.00  0.00     0.086 C 
HETATM   26  C15 UNL     1      -1.386   6.539  29.334  1.00  0.00     0.025 C 
HETATM   27  C16 UNL     1      -0.983   7.788  30.043  1.00  0.00     0.002 C 
HETATM   28  C17 UNL     1      -2.044   8.386  30.903  1.00  0.00     0.000 C 
HETATM   29  C18 UNL     1      -2.995   7.384  31.497  1.00  0.00     0.002 C 
HETATM   30  C19 UNL     1      -3.456   6.319  30.569  1.00  0.00     0.025 C 
ENDBRANCH  23  25
ENDBRANCH  20  21
ENDBRANCH  13  20
ENDBRANCH  10  11
ENDBRANCH   7  10
BRANCH   8  31
HETATM   31  C10 UNL     1      -4.578   4.396  20.768  1.00  0.00     0.030 C 
BRANCH  31  32
HETATM   32  C11 UNL     1      -4.107   5.831  20.977  1.00  0.00     0.134 C 
BRANCH  32  33
HETATM   33  N4  UNL     1      -3.206   6.161  19.857  1.00  0.00    -0.303 N 
ATOM     34  H4  UNL     1      -3.500   6.634  19.003  1.00  0.00     0.173 HD
BRANCH  33  35
HETATM   35  S1  UNL     1      -1.607   5.650  20.174  1.00  0.00     0.312 S 
HETATM   36  O1  UNL     1      -1.269   4.453  19.308  1.00  0.00    -0.183 OA
HETATM   37  O2  UNL     1      -1.406   5.277  21.630  1.00  0.00    -0.183 OA
BRANCH  35  38
HETATM   38  N5  UNL     1      -0.447   6.878  19.814  1.00  0.00    -0.312 N 
ATOM     39  H52 UNL     1       0.166   6.843  18.999  1.00  0.00     0.170 HD
ATOM     40  H51 UNL     1      -0.453   7.627  20.506  1.00  0.00     0.170 HD
ENDBRANCH  35  38
ENDBRANCH  33  35
ENDBRANCH  32  33
ENDBRANCH  31  32
ENDBRANCH   8  31
ENDBRANCH   1   4
TORSDOF 11
ENDMDL
MODEL 5
REMARK VINA RESULT: -7.488739554      2.939      4.077
REMARK  11 active torsions:
REMARK  status: ('A' for Active; 'I' for Inactive)
REMARK    1  A    between atoms: N1_2  and  C2_3 
REMARK    2  A    between atoms: C2_3  and  C3_4 
REMARK    3  A    between atoms: N2_7  and  C6_8 
REMARK    4  A    between atoms: C9_12  and  C10_13 
REMARK    5  A    between atoms: C10_13  and  C11_14 
REMARK    6  A    between atoms: C11_14  and  N4_15 
REMARK    7  A    between atoms: N4_15  and  S1_17 
REMARK    8  A    between atoms: S1_17  and  N5_18 
REMARK    9  A    between atoms: C12_23  and  O3_24 
REMARK   10  A    between atoms: O3_24  and  C13_25 
REMARK       I    between atoms: C13_25  and  N6_27 
REMARK   11  A    between atoms: N6_27  and  C14_29 
ROOT
HETATM    1  C6  UNL     1      -8.418   3.570  19.663  1.00  0.00     0.246 C 
HETATM    2  C7  UNL     1      -8.993   2.283  19.259  1.00  0.00     0.078 C 
HETATM    3  N3  UNL     1      -9.443   1.267  18.940  1.00  0.00    -0.196 NA
ENDROOT
BRANCH   1   4
HETATM    4  N2  UNL     1      -7.370   3.397  20.639  1.00  0.00    -0.381 N 
HETATM    5  C5  UNL     1      -7.447   2.217  21.436  1.00  0.00     0.123 C 
HETATM    6  C4  UNL     1      -6.023   1.844  21.850  1.00  0.00     0.027 C 
HETATM    7  C3  UNL     1      -5.504   2.940  22.704  1.00  0.00     0.022 C 
HETATM    8  C9  UNL     1      -5.312   4.144  21.764  1.00  0.00     0.031 C 
HETATM    9  C8  UNL     1      -6.432   4.222  20.798  1.00  0.00     0.064 C 
BRANCH   7  10
HETATM   10  C2  UNL     1      -4.276   2.762  23.477  1.00  0.00     0.246 C 
BRANCH  10  11
HETATM   11  N1  UNL     1      -4.219   2.874  24.878  1.00  0.00    -0.039 N 
HETATM   12  C1  UNL     1      -5.146   2.198  25.699  1.00  0.00     0.276 C 
HETATM   13  C12 UNL     1      -4.167   4.315  25.204  1.00  0.00     0.337 C 
HETATM   14  C20 UNL     1      -2.720   4.725  25.065  1.00  0.00     0.069 C 
HETATM   15  C21 UNL     1      -1.961   3.454  24.776  1.00  0.00     0.021 C 
HETATM   16  C22 UNL     1      -0.742   3.294  25.653  1.00  0.00     0.007 C 
HETATM   17  C25 UNL     1      -2.881   2.390  25.264  1.00  0.00     0.197 C 
HETATM   18  C23 UNL     1      -1.125   2.446  26.819  1.00  0.00     0.002 C 
HETATM   19  C24 UNL     1      -2.652   2.271  26.717  1.00  0.00     0.034 C 
BRANCH  13  20
HETATM   20  O3  UNL     1      -4.658   4.613  26.466  1.00  0.00    -0.270 OA
BRANCH  20  21
HETATM   21  C13 UNL     1      -4.295   5.636  27.297  1.00  0.00     0.362 C 
HETATM   22  O4  UNL     1      -4.890   6.738  27.140  1.00  0.00    -0.238 OA
HETATM   23  N6  UNL     1      -3.287   5.466  28.294  1.00  0.00    -0.332 N 
ATOM     24  H6  UNL     1      -2.844   4.552  28.370  1.00  0.00     0.165 HD
BRANCH  23  25
HETATM   25  C14 UNL     1      -2.856   6.494  29.195  1.00  0.00     0.086 C 
HETATM   26  C15 UNL     1      -1.326   6.493  29.338  1.00  0.00     0.025 C 
HETATM   27  C16 UNL     1      -0.943   7.781  29.988  1.00  0.00     0.002 C 
HETATM   28  C17 UNL     1      -2.010   8.393  30.830  1.00  0.00     0.000 C 
HETATM   29  C18 UNL     1      -2.933   7.398  31.477  1.00  0.00     0.002 C 
HETATM   30  C19 UNL     1      -3.379   6.284  30.602  1.00  0.00     0.025 C 
ENDBRANCH  23  25
ENDBRANCH  20  21
ENDBRANCH  13  20
ENDBRANCH  10  11
ENDBRANCH   7  10
BRANCH   8  31
HETATM   31  C10 UNL     1      -4.012   4.099  21.039  1.00  0.00     0.030 C 
BRANCH  31  32
HETATM   32  C11 UNL     1      -3.868   5.294  20.103  1.00  0.00     0.134 C 
BRANCH  32  33
HETATM   33  N4  UNL     1      -2.856   6.189  20.693  1.00  0.00    -0.303 N 
ATOM     34  H4  UNL     1      -3.073   7.000  21.273  1.00  0.00     0.173 HD
BRANCH  33  35
HETATM   35  S1  UNL     1      -1.273   5.695  20.282  1.00  0.00     0.312 S 
HETATM   36  O1  UNL     1      -0.446   6.900  19.881  1.00  0.00    -0.183 OA
HETATM   37  O2  UNL     1      -1.267   4.693  19.144  1.00  0.00    -0.183 OA
BRANCH  35  38
HETATM   38  N5  UNL     1      -0.460   4.944  21.607  1.00  0.00    -0.312 N 
ATOM     39  H52 UNL     1      -0.737   4.040  21.991  1.00  0.00     0.170 HD
ATOM     40  H51 UNL     1       0.318   5.507  21.950  1.00  0.00     0.170 HD
ENDBRANCH  35  38
ENDBRANCH  33  35
ENDBRANCH  32  33
ENDBRANCH  31  32
ENDBRANCH   8  31
ENDBRANCH   1   4
TORSDOF 11
ENDMDL
