MODEL 1
REMARK VINA RESULT: -6.543028053      0.000      0.000
REMARK  11 active torsions:
REMARK  status: ('A' for Active; 'I' for Inactive)
REMARK    1  A    between atoms: C2_2  and  N1_3 
REMARK    2  A    between atoms: N2_6  and  C5_7 
REMARK    3  A    between atoms: C5_7  and  C6_8 
REMARK    4  A    between atoms: N5_17  and  C13_18 
REMARK    5  A    between atoms: N5_17  and  C15_20 
REMARK    6  A    between atoms: C15_20  and  C16_21 
REMARK    7  A    between atoms: C16_21  and  O1_22 
REMARK    8  A    between atoms: C16_21  and  C17_24 
REMARK    9  A    between atoms: C17_24  and  N6_25 
REMARK   10  A    between atoms: N6_25  and  C18_27 
REMARK   11  A    between atoms: C18_27  and  N7_29 
ROOT
HETATM    1  C6  UNL     1      -0.833   2.087  21.619  1.00  0.00     0.042 C 
HETATM    2  C7  UNL     1      -2.306   2.347  21.991  1.00  0.00     0.071 C 
HETATM    3  C8  UNL     1      -2.453   2.976  23.324  1.00  0.00     0.269 A 
HETATM    4  C9  UNL     1      -1.702   2.151  24.333  1.00  0.00     0.297 C 
HETATM    5  N3  UNL     1      -0.345   1.882  23.937  1.00  0.00    -0.070 N 
HETATM    6  C10 UNL     1       0.212   0.946  24.906  1.00  0.00     0.272 C 
HETATM    7  C11 UNL     1       0.498   3.041  23.920  1.00  0.00     0.272 C 
HETATM    8  C12 UNL     1      -0.284   1.186  22.641  1.00  0.00     0.243 C 
HETATM    9  N4  UNL     1      -2.656   4.338  23.416  1.00  0.00     0.000 NA
HETATM   10  N5  UNL     1      -3.711   3.472  23.704  1.00  0.00     0.042 N 
ENDROOT
BRANCH  10  11
HETATM   11  C13 UNL     1      -4.066   3.457  25.114  1.00  0.00     0.259 C 
HETATM   12  C14 UNL     1      -3.908   4.822  25.726  1.00  0.00     0.036 C 
ENDBRANCH  10  11
BRANCH  10  13
HETATM   13  C15 UNL     1      -4.779   3.300  22.742  1.00  0.00     0.296 C 
BRANCH  13  14
HETATM   14  C16 UNL     1      -5.481   4.573  22.408  1.00  0.00     0.164 C 
BRANCH  14  15
HETATM   15  O1  UNL     1      -6.861   4.370  22.299  1.00  0.00    -0.392 OA
ATOM     16  H1  UNL     1      -7.342   5.102  22.666  1.00  0.00     0.210 HD
ENDBRANCH  14  15
BRANCH  14  17
HETATM   17  C17 UNL     1      -4.978   5.078  21.076  1.00  0.00     0.155 C 
BRANCH  17  18
HETATM   18  N6  UNL     1      -4.264   6.315  21.185  1.00  0.00    -0.365 N 
ATOM     19  H6  UNL     1      -4.576   7.004  21.870  1.00  0.00     0.162 HD
BRANCH  18  20
HETATM   20  C18 UNL     1      -3.135   6.616  20.374  1.00  0.00     0.169 C 
HETATM   21  S1  UNL     1      -2.115   5.405  20.004  1.00  0.00    -0.041 SA
BRANCH  20  22
HETATM   22  N7  UNL     1      -2.879   7.914  19.888  1.00  0.00    -0.367 N 
HETATM   23  C19 UNL     1      -3.867   8.963  19.989  1.00  0.00     0.151 C 
HETATM   24  C20 UNL     1      -1.608   8.208  19.276  1.00  0.00     0.151 C 
ENDBRANCH  20  22
ENDBRANCH  18  20
ENDBRANCH  17  18
ENDBRANCH  14  17
ENDBRANCH  13  14
ENDBRANCH  10  13
BRANCH   1  25
HETATM   25  C5  UNL     1      -0.822   1.674  20.213  1.00  0.00     0.244 C 
BRANCH  25  26
HETATM   26  N2  UNL     1      -0.038   0.590  19.787  1.00  0.00    -0.062 N 
HETATM   27  C4  UNL     1      -0.577   0.278  18.440  1.00  0.00     0.265 C 
HETATM   28  C3  UNL     1       0.417  -0.547  17.650  1.00  0.00     0.265 C 
HETATM   29  N1  UNL     1       1.093  -1.374  18.664  1.00  0.00    -0.063 N 
HETATM   30  C22 UNL     1       2.021  -0.505  19.337  1.00  0.00     0.265 C 
HETATM   31  C24 UNL     1       0.016  -1.804  19.559  1.00  0.00     0.265 C 
HETATM   32  C21 UNL     1       1.350   0.863  19.539  1.00  0.00     0.265 C 
HETATM   33  C23 UNL     1      -0.230  -0.644  20.536  1.00  0.00     0.265 C 
BRANCH  29  34
HETATM   34  C2  UNL     1       1.678  -2.518  18.056  1.00  0.00     0.233 C 
HETATM   35  C1  UNL     1       3.067  -2.838  18.513  1.00  0.00     0.035 C 
ENDBRANCH  29  34
ENDBRANCH  25  26
ENDBRANCH   1  25
TORSDOF 11
ENDMDL
MODEL 2
REMARK VINA RESULT: -6.471532905      3.752      8.729
REMARK  11 active torsions:
REMARK  status: ('A' for Active; 'I' for Inactive)
REMARK    1  A    between atoms: C2_2  and  N1_3 
REMARK    2  A    between atoms: N2_6  and  C5_7 
REMARK    3  A    between atoms: C5_7  and  C6_8 
REMARK    4  A    between atoms: N5_17  and  C13_18 
REMARK    5  A    between atoms: N5_17  and  C15_20 
REMARK    6  A    between atoms: C15_20  and  C16_21 
REMARK    7  A    between atoms: C16_21  and  O1_22 
REMARK    8  A    between atoms: C16_21  and  C17_24 
REMARK    9  A    between atoms: C17_24  and  N6_25 
REMARK   10  A    between atoms: N6_25  and  C18_27 
REMARK   11  A    between atoms: C18_27  and  N7_29 
ROOT
HETATM    1  C6  UNL     1      -2.627   4.231  27.325  1.00  0.00     0.042 C 
HETATM    2  C7  UNL     1      -1.653   4.271  26.132  1.00  0.00     0.071 C 
HETATM    3  C8  UNL     1      -1.045   2.950  25.851  1.00  0.00     0.269 A 
HETATM    4  C9  UNL     1      -0.439   2.416  27.119  1.00  0.00     0.297 C 
HETATM    5  N3  UNL     1      -1.356   2.435  28.228  1.00  0.00    -0.070 N 
HETATM    6  C10 UNL     1      -0.605   2.057  29.419  1.00  0.00     0.272 C 
HETATM    7  C11 UNL     1      -2.450   1.520  28.097  1.00  0.00     0.272 C 
HETATM    8  C12 UNL     1      -1.855   3.795  28.497  1.00  0.00     0.243 C 
HETATM    9  N4  UNL     1      -1.554   2.169  24.832  1.00  0.00     0.000 NA
HETATM   10  N5  UNL     1      -0.311   2.782  24.664  1.00  0.00     0.042 N 
ENDROOT
BRANCH  10  11
HETATM   11  C13 UNL     1       0.793   1.836  24.660  1.00  0.00     0.259 C 
HETATM   12  C14 UNL     1       0.526   0.698  23.713  1.00  0.00     0.036 C 
ENDBRANCH  10  11
BRANCH  10  13
HETATM   13  C15 UNL     1      -0.197   3.950  23.816  1.00  0.00     0.296 C 
BRANCH  13  14
HETATM   14  C16 UNL     1      -0.865   3.783  22.493  1.00  0.00     0.164 C 
BRANCH  14  15
HETATM   15  O1  UNL     1       0.045   3.969  21.446  1.00  0.00    -0.392 OA
ATOM     16  H1  UNL     1      -0.033   4.842  21.079  1.00  0.00     0.210 HD
ENDBRANCH  14  15
BRANCH  14  17
HETATM   17  C17 UNL     1      -1.951   4.825  22.356  1.00  0.00     0.155 C 
BRANCH  17  18
HETATM   18  N6  UNL     1      -1.699   5.752  21.293  1.00  0.00    -0.365 N 
ATOM     19  H6  UNL     1      -0.734   6.007  21.081  1.00  0.00     0.162 HD
BRANCH  18  20
HETATM   20  C18 UNL     1      -2.746   6.328  20.522  1.00  0.00     0.169 C 
HETATM   21  S1  UNL     1      -4.148   5.513  20.406  1.00  0.00    -0.041 SA
BRANCH  20  22
HETATM   22  N7  UNL     1      -2.606   7.567  19.865  1.00  0.00    -0.367 N 
HETATM   23  C19 UNL     1      -3.635   8.578  19.939  1.00  0.00     0.151 C 
HETATM   24  C20 UNL     1      -1.414   7.838  19.101  1.00  0.00     0.151 C 
ENDBRANCH  20  22
ENDBRANCH  18  20
ENDBRANCH  17  18
ENDBRANCH  14  17
ENDBRANCH  13  14
ENDBRANCH  10  13
BRANCH   1  25
HETATM   25  C5  UNL     1      -3.310   5.527  27.354  1.00  0.00     0.244 C 
BRANCH  25  26
HETATM   26  N2  UNL     1      -4.524   5.687  28.042  1.00  0.00    -0.062 N 
HETATM   27  C4  UNL     1      -5.339   6.518  27.121  1.00  0.00     0.265 C 
HETATM   28  C3  UNL     1      -6.808   6.416  27.476  1.00  0.00     0.265 C 
HETATM   29  N1  UNL     1      -6.820   6.255  28.939  1.00  0.00    -0.063 N 
HETATM   30  C22 UNL     1      -6.441   4.891  29.195  1.00  0.00     0.265 C 
HETATM   31  C24 UNL     1      -5.801   7.192  29.416  1.00  0.00     0.265 C 
HETATM   32  C21 UNL     1      -5.318   4.504  28.220  1.00  0.00     0.265 C 
HETATM   33  C23 UNL     1      -4.447   6.485  29.257  1.00  0.00     0.265 C 
BRANCH  29  34
HETATM   34  C2  UNL     1      -8.085   6.633  29.465  1.00  0.00     0.233 C 
HETATM   35  C1  UNL     1      -8.248   8.097  29.732  1.00  0.00     0.035 C 
ENDBRANCH  29  34
ENDBRANCH  25  26
ENDBRANCH   1  25
TORSDOF 11
ENDMDL
MODEL 3
REMARK VINA RESULT: -6.414559694      3.686      8.444
REMARK  11 active torsions:
REMARK  status: ('A' for Active; 'I' for Inactive)
REMARK    1  A    between atoms: C2_2  and  N1_3 
REMARK    2  A    between atoms: N2_6  and  C5_7 
REMARK    3  A    between atoms: C5_7  and  C6_8 
REMARK    4  A    between atoms: N5_17  and  C13_18 
REMARK    5  A    between atoms: N5_17  and  C15_20 
REMARK    6  A    between atoms: C15_20  and  C16_21 
REMARK    7  A    between atoms: C16_21  and  O1_22 
REMARK    8  A    between atoms: C16_21  and  C17_24 
REMARK    9  A    between atoms: C17_24  and  N6_25 
REMARK   10  A    between atoms: N6_25  and  C18_27 
REMARK   11  A    between atoms: C18_27  and  N7_29 
ROOT
HETATM    1  C6  UNL     1      -1.746   3.558  26.907  1.00  0.00     0.042 C 
HETATM    2  C7  UNL     1      -1.642   3.543  25.369  1.00  0.00     0.071 C 
HETATM    3  C8  UNL     1      -1.571   2.170  24.818  1.00  0.00     0.269 A 
HETATM    4  C9  UNL     1      -0.465   1.425  25.515  1.00  0.00     0.297 C 
HETATM    5  N3  UNL     1      -0.559   1.497  26.949  1.00  0.00    -0.070 N 
HETATM    6  C10 UNL     1       0.648   0.888  27.494  1.00  0.00     0.272 C 
HETATM    7  C11 UNL     1      -1.683   0.796  27.495  1.00  0.00     0.272 C 
HETATM    8  C12 UNL     1      -0.544   2.891  27.426  1.00  0.00     0.243 C 
HETATM    9  N4  UNL     1      -2.708   1.584  24.300  1.00  0.00     0.000 NA
HETATM   10  N5  UNL     1      -1.696   1.990  23.430  1.00  0.00     0.042 N 
ENDROOT
BRANCH  10  11
HETATM   11  C13 UNL     1      -0.998   0.875  22.810  1.00  0.00     0.259 C 
HETATM   12  C14 UNL     1      -1.964  -0.055  22.129  1.00  0.00     0.036 C 
ENDBRANCH  10  11
BRANCH  10  13
HETATM   13  C15 UNL     1      -1.864   3.195  22.646  1.00  0.00     0.296 C 
BRANCH  13  14
HETATM   14  C16 UNL     1      -0.853   3.335  21.558  1.00  0.00     0.164 C 
BRANCH  14  15
HETATM   15  O1  UNL     1       0.084   4.327  21.870  1.00  0.00    -0.392 OA
ATOM     16  H1  UNL     1      -0.319   5.187  21.862  1.00  0.00     0.210 HD
ENDBRANCH  14  15
BRANCH  14  17
HETATM   17  C17 UNL     1      -1.554   3.741  20.283  1.00  0.00     0.155 C 
BRANCH  17  18
HETATM   18  N6  UNL     1      -1.411   5.137  19.993  1.00  0.00    -0.365 N 
ATOM     19  H6  UNL     1      -0.488   5.496  19.745  1.00  0.00     0.162 HD
BRANCH  18  20
HETATM   20  C18 UNL     1      -2.510   6.040  20.037  1.00  0.00     0.169 C 
HETATM   21  S1  UNL     1      -3.989   5.430  20.326  1.00  0.00    -0.041 SA
BRANCH  20  22
HETATM   22  N7  UNL     1      -2.355   7.427  19.841  1.00  0.00    -0.367 N 
HETATM   23  C19 UNL     1      -1.056   8.014  19.608  1.00  0.00     0.151 C 
HETATM   24  C20 UNL     1      -3.514   8.284  19.873  1.00  0.00     0.151 C 
ENDBRANCH  20  22
ENDBRANCH  18  20
ENDBRANCH  17  18
ENDBRANCH  14  17
ENDBRANCH  13  14
ENDBRANCH  10  13
BRANCH   1  25
HETATM   25  C5  UNL     1      -2.025   4.943  27.295  1.00  0.00     0.244 C 
BRANCH  25  26
HETATM   26  N2  UNL     1      -2.349   5.267  28.623  1.00  0.00    -0.062 N 
HETATM   27  C4  UNL     1      -3.535   6.150  28.486  1.00  0.00     0.265 C 
HETATM   28  C3  UNL     1      -4.288   6.231  29.798  1.00  0.00     0.265 C 
HETATM   29  N1  UNL     1      -3.241   6.128  30.827  1.00  0.00    -0.063 N 
HETATM   30  C22 UNL     1      -2.865   4.741  30.880  1.00  0.00     0.265 C 
HETATM   31  C24 UNL     1      -2.148   6.960  30.319  1.00  0.00     0.265 C 
HETATM   32  C21 UNL     1      -2.825   4.190  29.446  1.00  0.00     0.265 C 
HETATM   33  C23 UNL     1      -1.372   6.097  29.313  1.00  0.00     0.265 C 
BRANCH  29  34
HETATM   34  C2  UNL     1      -3.706   6.669  32.057  1.00  0.00     0.233 C 
HETATM   35  C1  UNL     1      -2.707   7.500  32.802  1.00  0.00     0.035 C 
ENDBRANCH  29  34
ENDBRANCH  25  26
ENDBRANCH   1  25
TORSDOF 11
ENDMDL
MODEL 4
REMARK VINA RESULT: -6.362584946      3.315      8.011
REMARK  11 active torsions:
REMARK  status: ('A' for Active; 'I' for Inactive)
REMARK    1  A    between atoms: C2_2  and  N1_3 
REMARK    2  A    between atoms: N2_6  and  C5_7 
REMARK    3  A    between atoms: C5_7  and  C6_8 
REMARK    4  A    between atoms: N5_17  and  C13_18 
REMARK    5  A    between atoms: N5_17  and  C15_20 
REMARK    6  A    between atoms: C15_20  and  C16_21 
REMARK    7  A    between atoms: C16_21  and  O1_22 
REMARK    8  A    between atoms: C16_21  and  C17_24 
REMARK    9  A    between atoms: C17_24  and  N6_25 
REMARK   10  A    between atoms: N6_25  and  C18_27 
REMARK   11  A    between atoms: C18_27  and  N7_29 
ROOT
HETATM    1  C6  UNL     1      -0.959   2.494  27.646  1.00  0.00     0.042 C 
HETATM    2  C7  UNL     1      -0.435   2.708  26.212  1.00  0.00     0.071 C 
HETATM    3  C8  UNL     1      -0.445   1.462  25.412  1.00  0.00     0.269 A 
HETATM    4  C9  UNL     1       0.282   0.390  26.177  1.00  0.00     0.297 C 
HETATM    5  N3  UNL     1      -0.194   0.245  27.527  1.00  0.00    -0.070 N 
HETATM    6  C10 UNL     1       0.694  -0.693  28.202  1.00  0.00     0.272 C 
HETATM    7  C11 UNL     1      -1.526  -0.273  27.622  1.00  0.00     0.272 C 
HETATM    8  C12 UNL     1      -0.079   1.505  28.282  1.00  0.00     0.243 C 
HETATM    9  N4  UNL     1      -1.475   1.232  24.522  1.00  0.00     0.000 NA
HETATM   10  N5  UNL     1      -0.207   1.544  24.029  1.00  0.00     0.042 N 
ENDROOT
BRANCH  10  11
HETATM   11  C13 UNL     1       0.439   0.420  23.370  1.00  0.00     0.259 C 
HETATM   12  C14 UNL     1      -0.545  -0.356  22.537  1.00  0.00     0.036 C 
ENDBRANCH  10  11
BRANCH  10  13
HETATM   13  C15 UNL     1       0.054   2.868  23.506  1.00  0.00     0.296 C 
BRANCH  13  14
HETATM   14  C16 UNL     1      -0.736   3.181  22.280  1.00  0.00     0.164 C 
BRANCH  14  15
HETATM   15  O1  UNL     1       0.098   3.282  21.161  1.00  0.00    -0.392 OA
ATOM     16  H1  UNL     1      -0.246   3.910  20.537  1.00  0.00     0.210 HD
ENDBRANCH  14  15
BRANCH  14  17
HETATM   17  C17 UNL     1      -1.428   4.511  22.466  1.00  0.00     0.155 C 
BRANCH  17  18
HETATM   18  N6  UNL     1      -1.344   5.347  21.306  1.00  0.00    -0.365 N 
ATOM     19  H6  UNL     1      -0.428   5.522  20.891  1.00  0.00     0.162 HD
BRANCH  18  20
HETATM   20  C18 UNL     1      -2.491   5.942  20.712  1.00  0.00     0.169 C 
HETATM   21  S1  UNL     1      -3.929   5.217  20.934  1.00  0.00    -0.041 SA
BRANCH  20  22
HETATM   22  N7  UNL     1      -2.419   7.124  19.947  1.00  0.00    -0.367 N 
HETATM   23  C19 UNL     1      -3.499   8.083  19.942  1.00  0.00     0.151 C 
HETATM   24  C20 UNL     1      -1.246   7.388  19.152  1.00  0.00     0.151 C 
ENDBRANCH  20  22
ENDBRANCH  18  20
ENDBRANCH  17  18
ENDBRANCH  14  17
ENDBRANCH  13  14
ENDBRANCH  10  13
BRANCH   1  25
HETATM   25  C5  UNL     1      -1.100   3.824  28.245  1.00  0.00     0.244 C 
BRANCH  25  26
HETATM   26  N2  UNL     1      -2.342   4.481  28.258  1.00  0.00    -0.062 N 
HETATM   27  C4  UNL     1      -2.269   5.338  29.468  1.00  0.00     0.265 C 
HETATM   28  C3  UNL     1      -3.308   6.437  29.400  1.00  0.00     0.265 C 
HETATM   29  N1  UNL     1      -4.440   5.826  28.683  1.00  0.00    -0.063 N 
HETATM   30  C22 UNL     1      -4.067   5.797  27.294  1.00  0.00     0.265 C 
HETATM   31  C24 UNL     1      -4.537   4.475  29.240  1.00  0.00     0.265 C 
HETATM   32  C21 UNL     1      -2.581   5.417  27.195  1.00  0.00     0.265 C 
HETATM   33  C23 UNL     1      -3.492   3.623  28.504  1.00  0.00     0.265 C 
BRANCH  29  34
HETATM   34  C2  UNL     1      -5.641   6.534  28.964  1.00  0.00     0.233 C 
HETATM   35  C1  UNL     1      -6.126   7.423  27.862  1.00  0.00     0.035 C 
ENDBRANCH  29  34
ENDBRANCH  25  26
ENDBRANCH   1  25
TORSDOF 11
ENDMDL
MODEL 5
REMARK VINA RESULT: -6.347071016      2.505      3.443
REMARK  11 active torsions:
REMARK  status: ('A' for Active; 'I' for Inactive)
REMARK    1  A    between atoms: C2_2  and  N1_3 
REMARK    2  A    between atoms: N2_6  and  C5_7 
REMARK    3  A    between atoms: C5_7  and  C6_8 
REMARK    4  A    between atoms: N5_17  and  C13_18 
REMARK    5  A    between atoms: N5_17  and  C15_20 
REMARK    6  A    between atoms: C15_20  and  C16_21 
REMARK    7  A    between atoms: C16_21  and  O1_22 
REMARK    8  A    between atoms: C16_21  and  C17_24 
REMARK    9  A    between atoms: C17_24  and  N6_25 
REMARK   10  A    between atoms: N6_25  and  C18_27 
REMARK   11  A    between atoms: C18_27  and  N7_29 
ROOT
HETATM    1  C6  UNL     1       0.507  -0.649  23.996  1.00  0.00     0.042 C 
HETATM    2  C7  UNL     1      -0.377   0.506  23.487  1.00  0.00     0.071 C 
HETATM    3  C8  UNL     1      -0.226   1.737  24.298  1.00  0.00     0.269 A 
HETATM    4  C9  UNL     1      -0.441   1.392  25.746  1.00  0.00     0.297 C 
HETATM    5  N3  UNL     1       0.360   0.279  26.181  1.00  0.00    -0.070 N 
HETATM    6  C10 UNL     1      -0.062  -0.057  27.535  1.00  0.00     0.272 C 
HETATM    7  C11 UNL     1       1.766   0.553  26.220  1.00  0.00     0.272 C 
HETATM    8  C12 UNL     1       0.096  -0.928  25.379  1.00  0.00     0.243 C 
HETATM    9  N4  UNL     1       0.589   2.755  23.844  1.00  0.00     0.000 NA
HETATM   10  N5  UNL     1      -0.795   2.932  23.826  1.00  0.00     0.042 N 
ENDROOT
BRANCH  10  11
HETATM   11  C13 UNL     1      -1.255   3.911  24.799  1.00  0.00     0.259 C 
HETATM   12  C14 UNL     1      -2.569   4.511  24.381  1.00  0.00     0.036 C 
ENDBRANCH  10  11
BRANCH  10  13
HETATM   13  C15 UNL     1      -1.513   2.843  22.573  1.00  0.00     0.296 C 
BRANCH  13  14
HETATM   14  C16 UNL     1      -0.702   3.282  21.399  1.00  0.00     0.164 C 
BRANCH  14  15
HETATM   15  O1  UNL     1       0.028   4.437  21.700  1.00  0.00    -0.392 OA
ATOM     16  H1  UNL     1       0.029   5.039  20.965  1.00  0.00     0.210 HD
ENDBRANCH  14  15
BRANCH  14  17
HETATM   17  C17 UNL     1      -1.632   3.604  20.252  1.00  0.00     0.155 C 
BRANCH  17  18
HETATM   18  N6  UNL     1      -1.530   4.967  19.823  1.00  0.00    -0.365 N 
ATOM     19  H6  UNL     1      -0.678   5.272  19.351  1.00  0.00     0.162 HD
BRANCH  18  20
HETATM   20  C18 UNL     1      -2.575   5.910  20.029  1.00  0.00     0.169 C 
HETATM   21  S1  UNL     1      -4.029   5.350  20.492  1.00  0.00    -0.041 SA
BRANCH  20  22
HETATM   22  N7  UNL     1      -2.389   7.295  19.847  1.00  0.00    -0.367 N 
HETATM   23  C19 UNL     1      -1.078   7.853  19.607  1.00  0.00     0.151 C 
HETATM   24  C20 UNL     1      -3.525   8.180  19.900  1.00  0.00     0.151 C 
ENDBRANCH  20  22
ENDBRANCH  18  20
ENDBRANCH  17  18
ENDBRANCH  14  17
ENDBRANCH  13  14
ENDBRANCH  10  13
BRANCH   1  25
HETATM   25  C5  UNL     1       0.426  -1.713  22.992  1.00  0.00     0.244 C 
BRANCH  25  26
HETATM   26  N2  UNL     1       1.505  -1.976  22.132  1.00  0.00    -0.062 N 
HETATM   27  C4  UNL     1       1.115  -3.241  21.461  1.00  0.00     0.265 C 
HETATM   28  C3  UNL     1       1.922  -3.438  20.194  1.00  0.00     0.265 C 
HETATM   29  N1  UNL     1       3.232  -2.839  20.498  1.00  0.00    -0.063 N 
HETATM   30  C22 UNL     1       3.050  -1.414  20.418  1.00  0.00     0.265 C 
HETATM   31  C24 UNL     1       3.517  -3.265  21.869  1.00  0.00     0.265 C 
HETATM   32  C21 UNL     1       1.690  -1.059  21.041  1.00  0.00     0.265 C 
HETATM   33  C23 UNL     1       2.759  -2.302  22.794  1.00  0.00     0.265 C 
BRANCH  29  34
HETATM   34  C2  UNL     1       4.227  -3.364  19.629  1.00  0.00     0.233 C 
HETATM   35  C1  UNL     1       5.561  -3.602  20.264  1.00  0.00     0.035 C 
ENDBRANCH  29  34
ENDBRANCH  25  26
ENDBRANCH   1  25
TORSDOF 11
ENDMDL
