MODEL 1
REMARK VINA RESULT: -7.519033119      0.000      0.000
REMARK  10 active torsions:
REMARK  status: ('A' for Active; 'I' for Inactive)
REMARK    1  A    between atoms: C3_3  and  N1_4 
REMARK       I    between atoms: N1_4  and  C4_6 
REMARK    2  A    between atoms: C4_6  and  C5_8 
REMARK    3  A    between atoms: C5_8  and  C6_9 
REMARK    4  A    between atoms: C6_9  and  C7_10 
REMARK    5  A    between atoms: C7_10  and  C8_11 
REMARK    6  A    between atoms: C8_11  and  C9_12 
REMARK       I    between atoms: C9_12  and  N2_14 
REMARK    7  A    between atoms: N2_14  and  C10_16 
REMARK    8  A    between atoms: C10_16  and  C11_17 
REMARK    9  A    between atoms: C11_17  and  C12_18 
REMARK   10  A    between atoms: C12_18  and  C13_19 
ROOT
HETATM    1  C1  UNL     1      -0.870   7.056  29.590  1.00  0.00     0.014 C 
HETATM    2  C2  UNL     1      -1.560   6.069  29.596  1.00  0.00    -0.098 C 
HETATM    3  C3  UNL     1      -2.395   4.844  29.583  1.00  0.00     0.216 C 
ENDROOT
BRANCH   3   4
HETATM    4  N1  UNL     1      -1.801   3.869  30.460  1.00  0.00    -0.351 N 
HETATM    5  C4  UNL     1      -1.627   2.495  30.077  1.00  0.00     0.218 C 
HETATM    6  O1  UNL     1      -2.021   2.198  28.932  1.00  0.00    -0.274 OA
ATOM      7  H1  UNL     1      -1.492   4.164  31.387  1.00  0.00     0.163 HD
BRANCH   5   8
HETATM    8  C5  UNL     1      -1.027   1.505  30.967  1.00  0.00     0.103 C 
BRANCH   8   9
HETATM    9  C6  UNL     1      -0.666   0.229  30.284  1.00  0.00     0.010 C 
BRANCH   9  10
HETATM   10  C7  UNL     1       0.543  -0.443  30.880  1.00  0.00     0.010 C 
BRANCH  10  11
HETATM   11  C8  UNL     1       1.152  -1.462  29.972  1.00  0.00     0.103 C 
BRANCH  11  12
HETATM   12  C9  UNL     1       1.347  -0.985  28.599  1.00  0.00     0.218 C 
HETATM   13  O2  UNL     1       1.009  -1.689  27.616  1.00  0.00    -0.274 OA
HETATM   14  N2  UNL     1       1.932   0.305  28.338  1.00  0.00    -0.351 N 
ATOM     15  H2  UNL     1       2.216   0.902  29.114  1.00  0.00     0.163 HD
BRANCH  14  16
HETATM   16  C10 UNL     1       2.117   0.753  26.980  1.00  0.00     0.217 C 
BRANCH  16  17
HETATM   17  C11 UNL     1       0.889   1.126  26.328  1.00  0.00    -0.083 C 
BRANCH  17  18
HETATM   18  C12 UNL     1      -0.142   1.415  25.776  1.00  0.00    -0.040 C 
BRANCH  18  19
HETATM   19  C13 UNL     1      -1.413   1.746  25.080  1.00  0.00     0.502 C 
HETATM   20  N3  UNL     1      -1.396   3.160  24.851  1.00  0.00     0.132 N 
HETATM   21  C14 UNL     1      -2.254   3.799  25.833  1.00  0.00     0.314 C 
HETATM   22  C15 UNL     1      -1.726   3.533  23.507  1.00  0.00     0.233 C 
HETATM   23  C16 UNL     1      -2.149   4.974  23.380  1.00  0.00     0.064 C 
HETATM   24  C26 UNL     1      -2.931   2.665  23.121  1.00  0.00     0.047 C 
HETATM   25  C17 UNL     1      -1.679   5.595  22.084  1.00  0.00     0.240 C 
HETATM   26  N4  UNL     1      -2.452   5.209  20.937  1.00  0.00    -0.061 N 
HETATM   27  C18 UNL     1      -1.606   5.483  19.761  1.00  0.00     0.244 C 
HETATM   28  C23 UNL     1      -3.660   5.955  20.751  1.00  0.00     0.296 C 
HETATM   29  C24 UNL     1      -2.687   3.779  20.882  1.00  0.00     0.238 C 
HETATM   30  C19 UNL     1      -1.062   6.870  19.781  1.00  0.00     0.087 C 
HETATM   31  C20 UNL     1      -2.207   7.810  19.848  1.00  0.00     0.036 A 
HETATM   32  N5  UNL     1      -2.354   9.109  19.541  1.00  0.00    -0.354 N 
HETATM   33  C22 UNL     1      -3.410   7.337  20.311  1.00  0.00     0.059 A 
HETATM   34  C21 UNL     1      -3.602   9.480  19.791  1.00  0.00     0.180 A 
ATOM     35  H5  UNL     1      -1.621   9.716  19.174  1.00  0.00     0.166 HD
HETATM   36  N6  UNL     1      -4.247   8.418  20.257  1.00  0.00    -0.353 N 
ATOM     37  H6  UNL     1      -5.228   8.409  20.536  1.00  0.00     0.166 HD
HETATM   38  C25 UNL     1      -3.615   3.241  21.900  1.00  0.00     0.036 C 
HETATM   39  C27 UNL     1      -2.442   1.269  22.940  1.00  0.00     0.247 C 
HETATM   40  N7  UNL     1      -1.445   0.930  23.907  1.00  0.00    -0.032 N 
HETATM   41  C28 UNL     1      -1.771  -0.431  24.373  1.00  0.00     0.276 C 
HETATM   42  C29 UNL     1      -0.110   0.849  23.323  1.00  0.00     0.276 C 
ENDBRANCH  18  19
ENDBRANCH  17  18
ENDBRANCH  16  17
ENDBRANCH  14  16
ENDBRANCH  11  12
ENDBRANCH  10  11
ENDBRANCH   9  10
ENDBRANCH   8   9
ENDBRANCH   5   8
ENDBRANCH   3   4
TORSDOF 10
ENDMDL
MODEL 2
REMARK VINA RESULT: -7.398572897      2.864      5.504
REMARK  10 active torsions:
REMARK  status: ('A' for Active; 'I' for Inactive)
REMARK    1  A    between atoms: C3_3  and  N1_4 
REMARK       I    between atoms: N1_4  and  C4_6 
REMARK    2  A    between atoms: C4_6  and  C5_8 
REMARK    3  A    between atoms: C5_8  and  C6_9 
REMARK    4  A    between atoms: C6_9  and  C7_10 
REMARK    5  A    between atoms: C7_10  and  C8_11 
REMARK    6  A    between atoms: C8_11  and  C9_12 
REMARK       I    between atoms: C9_12  and  N2_14 
REMARK    7  A    between atoms: N2_14  and  C10_16 
REMARK    8  A    between atoms: C10_16  and  C11_17 
REMARK    9  A    between atoms: C11_17  and  C12_18 
REMARK   10  A    between atoms: C12_18  and  C13_19 
ROOT
HETATM    1  C1  UNL     1       2.674  -1.275  18.862  1.00  0.00     0.014 C 
HETATM    2  C2  UNL     1       2.169  -1.903  19.756  1.00  0.00    -0.098 C 
HETATM    3  C3  UNL     1       1.545  -2.698  20.841  1.00  0.00     0.216 C 
ENDROOT
BRANCH   3   4
HETATM    4  N1  UNL     1       2.579  -3.412  21.546  1.00  0.00    -0.351 N 
HETATM    5  C4  UNL     1       3.067  -2.990  22.829  1.00  0.00     0.218 C 
HETATM    6  O1  UNL     1       2.537  -1.963  23.299  1.00  0.00    -0.274 OA
ATOM      7  H1  UNL     1       2.979  -4.248  21.119  1.00  0.00     0.163 HD
BRANCH   5   8
HETATM    8  C5  UNL     1       4.117  -3.710  23.543  1.00  0.00     0.103 C 
BRANCH   8   9
HETATM    9  C6  UNL     1       3.772  -4.018  24.961  1.00  0.00     0.010 C 
BRANCH   9  10
HETATM   10  C7  UNL     1       4.776  -3.481  25.948  1.00  0.00     0.010 C 
BRANCH  10  11
HETATM   11  C8  UNL     1       5.220  -2.090  25.631  1.00  0.00     0.103 C 
BRANCH  11  12
HETATM   12  C9  UNL     1       4.488  -1.056  26.370  1.00  0.00     0.218 C 
HETATM   13  O2  UNL     1       4.874  -0.672  27.500  1.00  0.00    -0.274 OA
HETATM   14  N2  UNL     1       3.302  -0.451  25.819  1.00  0.00    -0.351 N 
ATOM     15  H2  UNL     1       2.961  -0.739  24.902  1.00  0.00     0.163 HD
BRANCH  14  16
HETATM   16  C10 UNL     1       2.595   0.561  26.564  1.00  0.00     0.217 C 
BRANCH  16  17
HETATM   17  C11 UNL     1       1.303   0.878  26.015  1.00  0.00    -0.083 C 
BRANCH  17  18
HETATM   18  C12 UNL     1       0.232   1.152  25.536  1.00  0.00    -0.040 C 
BRANCH  18  19
HETATM   19  C13 UNL     1      -1.077   1.492  24.919  1.00  0.00     0.502 C 
HETATM   20  N3  UNL     1      -1.075   2.910  24.714  1.00  0.00     0.132 N 
HETATM   21  C14 UNL     1      -1.877   3.530  25.754  1.00  0.00     0.314 C 
HETATM   22  C15 UNL     1      -1.482   3.306  23.397  1.00  0.00     0.233 C 
HETATM   23  C16 UNL     1      -1.913   4.747  23.319  1.00  0.00     0.064 C 
HETATM   24  C26 UNL     1      -2.705   2.441  23.065  1.00  0.00     0.047 C 
HETATM   25  C17 UNL     1      -1.517   5.391  22.009  1.00  0.00     0.240 C 
HETATM   26  N4  UNL     1      -2.353   5.023  20.902  1.00  0.00    -0.061 N 
HETATM   27  C18 UNL     1      -1.576   5.320  19.684  1.00  0.00     0.244 C 
HETATM   28  C23 UNL     1      -3.572   5.769  20.798  1.00  0.00     0.296 C 
HETATM   29  C24 UNL     1      -2.589   3.594  20.835  1.00  0.00     0.238 C 
HETATM   30  C19 UNL     1      -1.034   6.707  19.698  1.00  0.00     0.087 C 
HETATM   31  C20 UNL     1      -2.175   7.644  19.846  1.00  0.00     0.036 A 
HETATM   32  N5  UNL     1      -2.341   8.948  19.571  1.00  0.00    -0.354 N 
HETATM   33  C22 UNL     1      -3.349   7.160  20.368  1.00  0.00     0.059 A 
HETATM   34  C21 UNL     1      -3.574   9.310  19.897  1.00  0.00     0.180 A 
ATOM     35  H5  UNL     1      -1.631   9.562  19.173  1.00  0.00     0.166 HD
HETATM   36  N6  UNL     1      -4.189   8.239  20.380  1.00  0.00    -0.353 N 
ATOM     37  H6  UNL     1      -5.153   8.223  20.713  1.00  0.00     0.166 HD
HETATM   38  C25 UNL     1      -3.457   3.036  21.895  1.00  0.00     0.036 C 
HETATM   39  C27 UNL     1      -2.225   1.050  22.832  1.00  0.00     0.247 C 
HETATM   40  N7  UNL     1      -1.174   0.696  23.735  1.00  0.00    -0.032 N 
HETATM   41  C28 UNL     1      -1.471  -0.673  24.195  1.00  0.00     0.276 C 
HETATM   42  C29 UNL     1       0.126   0.629  23.075  1.00  0.00     0.276 C 
ENDBRANCH  18  19
ENDBRANCH  17  18
ENDBRANCH  16  17
ENDBRANCH  14  16
ENDBRANCH  11  12
ENDBRANCH  10  11
ENDBRANCH   9  10
ENDBRANCH   8   9
ENDBRANCH   5   8
ENDBRANCH   3   4
TORSDOF 10
ENDMDL
MODEL 3
REMARK VINA RESULT: -7.336459471      1.129      1.401
REMARK  10 active torsions:
REMARK  status: ('A' for Active; 'I' for Inactive)
REMARK    1  A    between atoms: C3_3  and  N1_4 
REMARK       I    between atoms: N1_4  and  C4_6 
REMARK    2  A    between atoms: C4_6  and  C5_8 
REMARK    3  A    between atoms: C5_8  and  C6_9 
REMARK    4  A    between atoms: C6_9  and  C7_10 
REMARK    5  A    between atoms: C7_10  and  C8_11 
REMARK    6  A    between atoms: C8_11  and  C9_12 
REMARK       I    between atoms: C9_12  and  N2_14 
REMARK    7  A    between atoms: N2_14  and  C10_16 
REMARK    8  A    between atoms: C10_16  and  C11_17 
REMARK    9  A    between atoms: C11_17  and  C12_18 
REMARK   10  A    between atoms: C12_18  and  C13_19 
ROOT
HETATM    1  C1  UNL     1      -0.770   8.203  30.627  1.00  0.00     0.014 C 
HETATM    2  C2  UNL     1      -1.380   7.417  29.948  1.00  0.00    -0.098 C 
HETATM    3  C3  UNL     1      -2.107   6.435  29.109  1.00  0.00     0.216 C 
ENDROOT
BRANCH   3   4
HETATM    4  N1  UNL     1      -2.659   5.415  29.964  1.00  0.00    -0.351 N 
HETATM    5  C4  UNL     1      -2.255   4.038  29.878  1.00  0.00     0.218 C 
HETATM    6  O1  UNL     1      -1.392   3.780  29.015  1.00  0.00    -0.274 OA
ATOM      7  H1  UNL     1      -3.362   5.678  30.655  1.00  0.00     0.163 HD
BRANCH   5   8
HETATM    8  C5  UNL     1      -2.816   3.003  30.741  1.00  0.00     0.103 C 
BRANCH   8   9
HETATM    9  C6  UNL     1      -2.162   1.672  30.580  1.00  0.00     0.010 C 
BRANCH   9  10
HETATM   10  C7  UNL     1      -1.108   1.398  31.620  1.00  0.00     0.010 C 
BRANCH  10  11
HETATM   11  C8  UNL     1      -0.288   0.185  31.316  1.00  0.00     0.103 C 
BRANCH  11  12
HETATM   12  C9  UNL     1      -0.166  -0.097  29.882  1.00  0.00     0.218 C 
HETATM   13  O2  UNL     1      -0.572  -1.182  29.400  1.00  0.00    -0.274 OA
HETATM   14  N2  UNL     1       0.425   0.863  28.984  1.00  0.00    -0.351 N 
ATOM     15  H2  UNL     1       0.764   1.755  29.344  1.00  0.00     0.163 HD
BRANCH  14  16
HETATM   16  C10 UNL     1       0.538   0.563  27.579  1.00  0.00     0.217 C 
BRANCH  16  17
HETATM   17  C11 UNL     1      -0.560   1.066  26.796  1.00  0.00    -0.083 C 
BRANCH  17  18
HETATM   18  C12 UNL     1      -1.486   1.465  26.136  1.00  0.00    -0.040 C 
BRANCH  18  19
HETATM   19  C13 UNL     1      -2.630   1.929  25.309  1.00  0.00     0.502 C 
HETATM   20  N3  UNL     1      -2.406   3.319  25.045  1.00  0.00     0.132 N 
HETATM   21  C14 UNL     1      -3.260   4.101  25.921  1.00  0.00     0.314 C 
HETATM   22  C15 UNL     1      -2.556   3.678  23.666  1.00  0.00     0.233 C 
HETATM   23  C16 UNL     1      -2.771   5.155  23.459  1.00  0.00     0.064 C 
HETATM   24  C26 UNL     1      -3.823   2.958  23.187  1.00  0.00     0.047 C 
HETATM   25  C17 UNL     1      -2.103   5.659  22.199  1.00  0.00     0.240 C 
HETATM   26  N4  UNL     1      -2.809   5.331  20.993  1.00  0.00    -0.061 N 
HETATM   27  C18 UNL     1      -1.827   5.447  19.899  1.00  0.00     0.244 C 
HETATM   28  C23 UNL     1      -3.886   6.218  20.670  1.00  0.00     0.296 C 
HETATM   29  C24 UNL     1      -3.225   3.942  20.953  1.00  0.00     0.238 C 
HETATM   30  C19 UNL     1      -1.110   6.752  19.935  1.00  0.00     0.087 C 
HETATM   31  C20 UNL     1      -2.122   7.834  19.864  1.00  0.00     0.036 A 
HETATM   32  N5  UNL     1      -2.067   9.129  19.510  1.00  0.00    -0.354 N 
HETATM   33  C22 UNL     1      -3.415   7.539  20.219  1.00  0.00     0.059 A 
HETATM   34  C21 UNL     1      -3.273   9.666  19.626  1.00  0.00     0.180 A 
ATOM     35  H5  UNL     1      -1.229   9.621  19.200  1.00  0.00     0.166 HD
HETATM   36  N6  UNL     1      -4.093   8.715  20.054  1.00  0.00    -0.353 N 
ATOM     37  H6  UNL     1      -5.088   8.844  20.235  1.00  0.00     0.166 HD
HETATM   38  C25 UNL     1      -4.307   3.568  21.889  1.00  0.00     0.036 C 
HETATM   39  C27 UNL     1      -3.508   1.505  23.092  1.00  0.00     0.247 C 
HETATM   40  N7  UNL     1      -2.660   1.078  24.161  1.00  0.00    -0.032 N 
HETATM   41  C28 UNL     1      -3.205  -0.210  24.629  1.00  0.00     0.276 C 
HETATM   42  C29 UNL     1      -1.298   0.803  23.713  1.00  0.00     0.276 C 
ENDBRANCH  18  19
ENDBRANCH  17  18
ENDBRANCH  16  17
ENDBRANCH  14  16
ENDBRANCH  11  12
ENDBRANCH  10  11
ENDBRANCH   9  10
ENDBRANCH   8   9
ENDBRANCH   5   8
ENDBRANCH   3   4
TORSDOF 10
ENDMDL
MODEL 4
REMARK VINA RESULT: -6.973543459      2.574      5.373
REMARK  10 active torsions:
REMARK  status: ('A' for Active; 'I' for Inactive)
REMARK    1  A    between atoms: C3_3  and  N1_4 
REMARK       I    between atoms: N1_4  and  C4_6 
REMARK    2  A    between atoms: C4_6  and  C5_8 
REMARK    3  A    between atoms: C5_8  and  C6_9 
REMARK    4  A    between atoms: C6_9  and  C7_10 
REMARK    5  A    between atoms: C7_10  and  C8_11 
REMARK    6  A    between atoms: C8_11  and  C9_12 
REMARK       I    between atoms: C9_12  and  N2_14 
REMARK    7  A    between atoms: N2_14  and  C10_16 
REMARK    8  A    between atoms: C10_16  and  C11_17 
REMARK    9  A    between atoms: C11_17  and  C12_18 
REMARK   10  A    between atoms: C12_18  and  C13_19 
ROOT
HETATM    1  C1  UNL     1      -0.303   1.750  20.568  1.00  0.00     0.014 C 
HETATM    2  C2  UNL     1       0.295   0.921  19.932  1.00  0.00    -0.098 C 
HETATM    3  C3  UNL     1       1.056  -0.088  19.156  1.00  0.00     0.216 C 
ENDROOT
BRANCH   3   4
HETATM    4  N1  UNL     1       1.308  -1.228  20.001  1.00  0.00    -0.351 N 
HETATM    5  C4  UNL     1       2.634  -1.604  20.408  1.00  0.00     0.218 C 
HETATM    6  O1  UNL     1       3.557  -0.879  19.985  1.00  0.00    -0.274 OA
ATOM      7  H1  UNL     1       0.518  -1.787  20.322  1.00  0.00     0.163 HD
BRANCH   5   8
HETATM    8  C5  UNL     1       2.891  -2.760  21.261  1.00  0.00     0.103 C 
BRANCH   8   9
HETATM    9  C6  UNL     1       2.225  -2.679  22.593  1.00  0.00     0.010 C 
BRANCH   9  10
HETATM   10  C7  UNL     1       2.707  -1.525  23.432  1.00  0.00     0.010 C 
BRANCH  10  11
HETATM   11  C8  UNL     1       3.053  -1.922  24.830  1.00  0.00     0.103 C 
BRANCH  11  12
HETATM   12  C9  UNL     1       2.210  -1.287  25.848  1.00  0.00     0.218 C 
HETATM   13  O2  UNL     1       1.193  -1.867  26.298  1.00  0.00    -0.274 OA
HETATM   14  N2  UNL     1       2.524   0.022  26.360  1.00  0.00    -0.351 N 
ATOM     15  H2  UNL     1       3.345   0.521  26.017  1.00  0.00     0.163 HD
BRANCH  14  16
HETATM   16  C10 UNL     1       1.679   0.629  27.358  1.00  0.00     0.217 C 
BRANCH  16  17
HETATM   17  C11 UNL     1       0.447   1.148  26.827  1.00  0.00    -0.083 C 
BRANCH  17  18
HETATM   18  C12 UNL     1      -0.584   1.567  26.363  1.00  0.00    -0.040 C 
BRANCH  18  19
HETATM   19  C13 UNL     1      -1.855   2.060  25.773  1.00  0.00     0.502 C 
HETATM   20  N3  UNL     1      -1.605   3.396  25.322  1.00  0.00     0.132 N 
HETATM   21  C14 UNL     1      -2.176   4.324  26.282  1.00  0.00     0.314 C 
HETATM   22  C15 UNL     1      -2.048   3.649  23.982  1.00  0.00     0.233 C 
HETATM   23  C16 UNL     1      -2.205   5.116  23.678  1.00  0.00     0.064 C 
HETATM   24  C26 UNL     1      -3.438   3.007  23.879  1.00  0.00     0.047 C 
HETATM   25  C17 UNL     1      -1.817   5.449  22.255  1.00  0.00     0.240 C 
HETATM   26  N4  UNL     1      -2.806   5.084  21.280  1.00  0.00    -0.061 N 
HETATM   27  C18 UNL     1      -2.101   5.018  19.986  1.00  0.00     0.244 C 
HETATM   28  C23 UNL     1      -3.866   6.034  21.117  1.00  0.00     0.296 C 
HETATM   29  C24 UNL     1      -3.312   3.740  21.478  1.00  0.00     0.238 C 
HETATM   30  C19 UNL     1      -1.308   6.252  19.724  1.00  0.00     0.087 C 
HETATM   31  C20 UNL     1      -2.233   7.410  19.772  1.00  0.00     0.036 A 
HETATM   32  N5  UNL     1      -2.175   8.659  19.282  1.00  0.00    -0.354 N 
HETATM   33  C22 UNL     1      -3.424   7.263  20.438  1.00  0.00     0.059 A 
HETATM   34  C21 UNL     1      -3.282   9.311  19.611  1.00  0.00     0.180 A 
ATOM     35  H5  UNL     1      -1.401   9.046  18.742  1.00  0.00     0.166 HD
HETATM   36  N6  UNL     1      -4.041   8.477  20.309  1.00  0.00    -0.353 N 
ATOM     37  H6  UNL     1      -4.956   8.710  20.696  1.00  0.00     0.166 HD
HETATM   38  C25 UNL     1      -4.169   3.546  22.668  1.00  0.00     0.036 C 
HETATM   39  C27 UNL     1      -3.253   1.529  23.866  1.00  0.00     0.247 C 
HETATM   40  N7  UNL     1      -2.210   1.120  24.754  1.00  0.00    -0.032 N 
HETATM   41  C28 UNL     1      -2.716  -0.069  25.465  1.00  0.00     0.276 C 
HETATM   42  C29 UNL     1      -1.012   0.687  24.042  1.00  0.00     0.276 C 
ENDBRANCH  18  19
ENDBRANCH  17  18
ENDBRANCH  16  17
ENDBRANCH  14  16
ENDBRANCH  11  12
ENDBRANCH  10  11
ENDBRANCH   9  10
ENDBRANCH   8   9
ENDBRANCH   5   8
ENDBRANCH   3   4
TORSDOF 10
ENDMDL
MODEL 5
REMARK VINA RESULT: -6.862933588      3.403      9.446
REMARK  10 active torsions:
REMARK  status: ('A' for Active; 'I' for Inactive)
REMARK    1  A    between atoms: C3_3  and  N1_4 
REMARK       I    between atoms: N1_4  and  C4_6 
REMARK    2  A    between atoms: C4_6  and  C5_8 
REMARK    3  A    between atoms: C5_8  and  C6_9 
REMARK    4  A    between atoms: C6_9  and  C7_10 
REMARK    5  A    between atoms: C7_10  and  C8_11 
REMARK    6  A    between atoms: C8_11  and  C9_12 
REMARK       I    between atoms: C9_12  and  N2_14 
REMARK    7  A    between atoms: N2_14  and  C10_16 
REMARK    8  A    between atoms: C10_16  and  C11_17 
REMARK    9  A    between atoms: C11_17  and  C12_18 
REMARK   10  A    between atoms: C12_18  and  C13_19 
ROOT
HETATM    1  C1  UNL     1      -8.350   3.350  19.482  1.00  0.00     0.014 C 
HETATM    2  C2  UNL     1      -7.599   3.389  20.423  1.00  0.00    -0.098 C 
HETATM    3  C3  UNL     1      -6.654   3.427  21.564  1.00  0.00     0.216 C 
ENDROOT
BRANCH   3   4
HETATM    4  N1  UNL     1      -6.039   4.729  21.614  1.00  0.00    -0.351 N 
HETATM    5  C4  UNL     1      -4.616   4.911  21.542  1.00  0.00     0.218 C 
HETATM    6  O1  UNL     1      -3.941   3.867  21.431  1.00  0.00    -0.274 OA
ATOM      7  H1  UNL     1      -6.636   5.552  21.703  1.00  0.00     0.163 HD
BRANCH   5   8
HETATM    8  C5  UNL     1      -3.992   6.229  21.594  1.00  0.00     0.103 C 
BRANCH   8   9
HETATM    9  C6  UNL     1      -3.417   6.671  20.291  1.00  0.00     0.010 C 
BRANCH   9  10
HETATM   10  C7  UNL     1      -1.914   6.590  20.246  1.00  0.00     0.010 C 
BRANCH  10  11
HETATM   11  C8  UNL     1      -1.415   5.384  19.519  1.00  0.00     0.103 C 
BRANCH  11  12
HETATM   12  C9  UNL     1      -0.989   4.296  20.406  1.00  0.00     0.218 C 
HETATM   13  O2  UNL     1      -0.875   3.122  19.980  1.00  0.00    -0.274 OA
HETATM   14  N2  UNL     1      -0.690   4.545  21.793  1.00  0.00    -0.351 N 
ATOM     15  H2  UNL     1      -0.772   5.489  22.171  1.00  0.00     0.163 HD
BRANCH  14  16
HETATM   16  C10 UNL     1      -0.276   3.461  22.649  1.00  0.00     0.217 C 
BRANCH  16  17
HETATM   17  C11 UNL     1      -1.071   3.338  23.842  1.00  0.00    -0.083 C 
BRANCH  17  18
HETATM   18  C12 UNL     1      -1.743   3.258  24.840  1.00  0.00    -0.040 C 
BRANCH  18  19
HETATM   19  C13 UNL     1      -2.556   3.183  26.081  1.00  0.00     0.502 C 
HETATM   20  N3  UNL     1      -1.684   3.531  27.162  1.00  0.00     0.132 N 
HETATM   21  C14 UNL     1      -1.286   2.314  27.847  1.00  0.00     0.314 C 
HETATM   22  C15 UNL     1      -2.231   4.510  28.055  1.00  0.00     0.233 C 
HETATM   23  C16 UNL     1      -1.544   4.537  29.396  1.00  0.00     0.064 C 
HETATM   24  C26 UNL     1      -3.686   4.086  28.293  1.00  0.00     0.047 C 
HETATM   25  C17 UNL     1      -1.444   5.938  29.958  1.00  0.00     0.240 C 
HETATM   26  N4  UNL     1      -2.671   6.433  30.515  1.00  0.00    -0.061 N 
HETATM   27  C18 UNL     1      -2.540   7.901  30.557  1.00  0.00     0.244 C 
HETATM   28  C23 UNL     1      -2.933   6.009  31.858  1.00  0.00     0.296 C 
HETATM   29  C24 UNL     1      -3.808   6.201  29.645  1.00  0.00     0.238 C 
HETATM   30  C19 UNL     1      -1.273   8.325  31.216  1.00  0.00     0.087 C 
HETATM   31  C20 UNL     1      -1.250   7.745  32.581  1.00  0.00     0.036 A 
HETATM   32  N5  UNL     1      -0.585   8.057  33.705  1.00  0.00    -0.354 N 
HETATM   33  C22 UNL     1      -2.046   6.657  32.838  1.00  0.00     0.059 A 
HETATM   34  C21 UNL     1      -0.927   7.209  34.666  1.00  0.00     0.180 A 
ATOM     35  H5  UNL     1       0.079   8.825  33.805  1.00  0.00     0.166 HD
HETATM   36  N6  UNL     1      -1.807   6.360  34.152  1.00  0.00    -0.353 N 
ATOM     37  H6  UNL     1      -2.244   5.594  34.665  1.00  0.00     0.166 HD
HETATM   38  C25 UNL     1      -4.239   4.792  29.512  1.00  0.00     0.036 C 
HETATM   39  C27 UNL     1      -4.446   4.357  27.040  1.00  0.00     0.247 C 
HETATM   40  N7  UNL     1      -3.670   4.057  25.878  1.00  0.00    -0.032 N 
HETATM   41  C28 UNL     1      -4.573   3.349  24.951  1.00  0.00     0.276 C 
HETATM   42  C29 UNL     1      -3.232   5.260  25.177  1.00  0.00     0.276 C 
ENDBRANCH  18  19
ENDBRANCH  17  18
ENDBRANCH  16  17
ENDBRANCH  14  16
ENDBRANCH  11  12
ENDBRANCH  10  11
ENDBRANCH   9  10
ENDBRANCH   8   9
ENDBRANCH   5   8
ENDBRANCH   3   4
TORSDOF 10
ENDMDL
