MODEL 1
REMARK VINA RESULT: -7.698782295      0.000      0.000
REMARK  7 active torsions:
REMARK  status: ('A' for Active; 'I' for Inactive)
REMARK    1  A    between atoms: O1_2  and  C2_3 
REMARK    2  A    between atoms: C14_16  and  C15_17 
REMARK       I    between atoms: C15_17  and  N2_19 
REMARK    3  A    between atoms: N2_19  and  C16_21 
REMARK    4  A    between atoms: C16_21  and  C17_22 
REMARK    5  A    between atoms: C17_22  and  N3_23 
REMARK    6  A    between atoms: C22_28  and  C23_29 
REMARK       I    between atoms: C23_29  and  N4_31 
REMARK    7  A    between atoms: N4_31  and  N5_33 
ROOT
HETATM    1  C15 UNL     1       0.409   1.148  19.299  1.00  0.00     0.241 C 
HETATM    2  O2  UNL     1       0.106   2.104  18.521  1.00  0.00    -0.271 OA
HETATM    3  N2  UNL     1      -0.232   1.058  20.541  1.00  0.00    -0.358 N 
ATOM      4  H2  UNL     1      -0.000   0.281  21.160  1.00  0.00     0.162 HD
ENDROOT
BRANCH   3   5
HETATM    5  C16 UNL     1      -1.195   2.012  20.970  1.00  0.00     0.152 C 
BRANCH   5   6
HETATM    6  C17 UNL     1      -0.794   3.310  21.489  1.00  0.00     0.285 C 
BRANCH   6   7
HETATM    7  N3  UNL     1      -1.484   4.510  21.301  1.00  0.00     0.029 N 
HETATM    8  C18 UNL     1      -2.601   4.200  20.394  1.00  0.00     0.267 C 
HETATM    9  C19 UNL     1      -3.404   5.365  19.958  1.00  0.00     0.044 C 
HETATM   10  C20 UNL     1      -2.905   6.586  20.700  1.00  0.00     0.083 C 
HETATM   11  C21 UNL     1      -2.974   6.211  22.173  1.00  0.00     0.060 C 
HETATM   12  C27 UNL     1      -1.466   6.707  20.364  1.00  0.00     0.246 C 
HETATM   13  C22 UNL     1      -2.050   5.079  22.508  1.00  0.00     0.309 C 
HETATM   14  O4  UNL     1      -0.925   7.684  19.835  1.00  0.00    -0.271 OA
HETATM   15  N6  UNL     1      -0.705   5.514  20.728  1.00  0.00    -0.184 N 
ATOM     16  H6  UNL     1       0.299   5.424  20.576  1.00  0.00     0.197 HD
BRANCH  13  17
HETATM   17  C23 UNL     1      -2.723   4.126  23.395  1.00  0.00     0.275 C 
HETATM   18  O3  UNL     1      -3.965   3.834  23.205  1.00  0.00    -0.269 OA
HETATM   19  N4  UNL     1      -2.145   3.447  24.492  1.00  0.00    -0.184 N 
ATOM     20  H4  UNL     1      -1.161   3.649  24.671  1.00  0.00     0.197 HD
BRANCH  19  21
HETATM   21  N5  UNL     1      -2.735   2.553  25.344  1.00  0.00     0.003 N 
HETATM   22  C24 UNL     1      -1.826   2.359  26.493  1.00  0.00     0.301 C 
HETATM   23  C25 UNL     1      -4.031   2.854  25.838  1.00  0.00     0.301 C 
HETATM   24  C26 UNL     1      -2.797   1.215  24.730  1.00  0.00     0.301 C 
ENDBRANCH  19  21
ENDBRANCH  13  17
ENDBRANCH   6   7
ENDBRANCH   5   6
ENDBRANCH   3   5
BRANCH   1  25
HETATM   25  C14 UNL     1       1.432   0.208  18.797  1.00  0.00     0.185 A 
HETATM   26  C8  UNL     1       1.969  -0.743  19.785  1.00  0.00     0.067 A 
HETATM   27  C7  UNL     1       3.452  -1.044  19.598  1.00  0.00     0.018 C 
HETATM   28  C9  UNL     1       1.248  -1.807  19.067  1.00  0.00     0.010 A 
HETATM   29  C6  UNL     1       3.783  -2.495  19.690  1.00  0.00    -0.006 C 
HETATM   30  C5  UNL     1       5.279  -2.600  19.967  1.00  0.00     0.008 C 
HETATM   31  C12 UNL     1       3.164  -3.194  20.858  1.00  0.00     0.027 C 
HETATM   32  C4  UNL     1       5.444  -3.649  21.027  1.00  0.00     0.038 C 
HETATM   33  C2  UNL     1       4.125  -4.388  21.007  1.00  0.00     0.061 C 
HETATM   34  C3  UNL     1       3.867  -5.118  22.298  1.00  0.00     0.046 C 
HETATM   35  C11 UNL     1       1.801  -3.744  20.608  1.00  0.00     0.037 C 
HETATM   36  C10 UNL     1       1.186  -3.065  19.426  1.00  0.00    -0.001 C 
HETATM   37  N1  UNL     1       0.831  -0.890  18.089  1.00  0.00    -0.374 N 
HETATM   38  C13 UNL     1       0.091  -0.980  16.849  1.00  0.00     0.150 C 
BRANCH  33  39
HETATM   39  O1  UNL     1       3.943  -5.159  19.877  1.00  0.00    -0.385 OA
HETATM   40  C1  UNL     1       3.849  -6.508  20.118  1.00  0.00     0.202 C 
ENDBRANCH  33  39
ENDBRANCH   1  25
TORSDOF 7
ENDMDL
MODEL 2
REMARK VINA RESULT: -7.529284503      1.558      1.946
REMARK  7 active torsions:
REMARK  status: ('A' for Active; 'I' for Inactive)
REMARK    1  A    between atoms: O1_2  and  C2_3 
REMARK    2  A    between atoms: C14_16  and  C15_17 
REMARK       I    between atoms: C15_17  and  N2_19 
REMARK    3  A    between atoms: N2_19  and  C16_21 
REMARK    4  A    between atoms: C16_21  and  C17_22 
REMARK    5  A    between atoms: C17_22  and  N3_23 
REMARK    6  A    between atoms: C22_28  and  C23_29 
REMARK       I    between atoms: C23_29  and  N4_31 
REMARK    7  A    between atoms: N4_31  and  N5_33 
ROOT
HETATM    1  C15 UNL     1       0.627   0.735  18.854  1.00  0.00     0.241 C 
HETATM    2  O2  UNL     1       0.829   1.747  18.116  1.00  0.00    -0.271 OA
HETATM    3  N2  UNL     1      -0.320   0.826  19.882  1.00  0.00    -0.358 N 
ATOM      4  H2  UNL     1      -0.495   0.008  20.466  1.00  0.00     0.162 HD
ENDROOT
BRANCH   3   5
HETATM    5  C16 UNL     1      -1.048   2.020  20.141  1.00  0.00     0.152 C 
BRANCH   5   6
HETATM    6  C17 UNL     1      -0.698   2.893  21.251  1.00  0.00     0.285 C 
BRANCH   6   7
HETATM    7  N3  UNL     1      -1.566   3.779  21.894  1.00  0.00     0.029 N 
HETATM    8  C18 UNL     1      -2.802   3.022  22.154  1.00  0.00     0.267 C 
HETATM    9  C19 UNL     1      -3.917   3.808  22.728  1.00  0.00     0.044 C 
HETATM   10  C20 UNL     1      -3.409   5.205  23.017  1.00  0.00     0.083 C 
HETATM   11  C21 UNL     1      -2.180   5.008  23.891  1.00  0.00     0.060 C 
HETATM   12  C27 UNL     1      -2.923   5.737  21.721  1.00  0.00     0.246 C 
HETATM   13  C22 UNL     1      -1.088   4.279  23.168  1.00  0.00     0.309 C 
HETATM   14  O4  UNL     1      -3.324   6.764  21.163  1.00  0.00    -0.271 OA
HETATM   15  N6  UNL     1      -1.880   4.901  21.130  1.00  0.00    -0.184 N 
ATOM     16  H6  UNL     1      -1.425   5.119  20.244  1.00  0.00     0.197 HD
BRANCH  13  17
HETATM   17  C23 UNL     1      -0.485   3.275  24.049  1.00  0.00     0.275 C 
HETATM   18  O3  UNL     1       0.799   3.185  24.142  1.00  0.00    -0.269 OA
HETATM   19  N4  UNL     1      -1.176   2.344  24.858  1.00  0.00    -0.184 N 
ATOM     20  H4  UNL     1      -2.194   2.388  24.815  1.00  0.00     0.197 HD
BRANCH  19  21
HETATM   21  N5  UNL     1      -0.655   1.391  25.692  1.00  0.00     0.003 N 
HETATM   22  C24 UNL     1      -1.785   0.675  26.319  1.00  0.00     0.301 C 
HETATM   23  C25 UNL     1       0.238   0.435  25.142  1.00  0.00     0.301 C 
HETATM   24  C26 UNL     1       0.026   2.022  26.838  1.00  0.00     0.301 C 
ENDBRANCH  19  21
ENDBRANCH  13  17
ENDBRANCH   6   7
ENDBRANCH   5   6
ENDBRANCH   3   5
BRANCH   1  25
HETATM   25  C14 UNL     1       1.434  -0.462  18.542  1.00  0.00     0.185 A 
HETATM   26  C8  UNL     1       2.176  -1.049  19.671  1.00  0.00     0.067 A 
HETATM   27  C7  UNL     1       3.538  -1.611  19.279  1.00  0.00     0.018 C 
HETATM   28  C9  UNL     1       1.241  -2.185  19.621  1.00  0.00     0.010 A 
HETATM   29  C6  UNL     1       3.817  -2.956  19.858  1.00  0.00    -0.006 C 
HETATM   30  C5  UNL     1       5.326  -3.169  19.798  1.00  0.00     0.008 C 
HETATM   31  C12 UNL     1       3.508  -3.075  21.316  1.00  0.00     0.027 C 
HETATM   32  C4  UNL     1       5.726  -3.764  21.116  1.00  0.00     0.038 C 
HETATM   33  C2  UNL     1       4.419  -4.256  21.696  1.00  0.00     0.061 C 
HETATM   34  C3  UNL     1       4.490  -4.411  23.193  1.00  0.00     0.046 C 
HETATM   35  C11 UNL     1       2.105  -3.473  21.628  1.00  0.00     0.037 C 
HETATM   36  C10 UNL     1       1.223  -3.197  20.452  1.00  0.00    -0.001 C 
HETATM   37  N1  UNL     1       0.616  -1.644  18.487  1.00  0.00    -0.374 N 
HETATM   38  C13 UNL     1      -0.436  -2.077  17.592  1.00  0.00     0.150 C 
BRANCH  33  39
HETATM   39  O1  UNL     1       3.904  -5.355  21.040  1.00  0.00    -0.385 OA
HETATM   40  C1  UNL     1       4.633  -6.508  21.201  1.00  0.00     0.202 C 
ENDBRANCH  33  39
ENDBRANCH   1  25
TORSDOF 7
ENDMDL
MODEL 3
REMARK VINA RESULT: -7.499610784      2.571      8.631
REMARK  7 active torsions:
REMARK  status: ('A' for Active; 'I' for Inactive)
REMARK    1  A    between atoms: O1_2  and  C2_3 
REMARK    2  A    between atoms: C14_16  and  C15_17 
REMARK       I    between atoms: C15_17  and  N2_19 
REMARK    3  A    between atoms: N2_19  and  C16_21 
REMARK    4  A    between atoms: C16_21  and  C17_22 
REMARK    5  A    between atoms: C17_22  and  N3_23 
REMARK    6  A    between atoms: C22_28  and  C23_29 
REMARK       I    between atoms: C23_29  and  N4_31 
REMARK    7  A    between atoms: N4_31  and  N5_33 
ROOT
HETATM    1  C15 UNL     1      -0.901   1.353  19.993  1.00  0.00     0.241 C 
HETATM    2  O2  UNL     1      -1.418   0.362  19.392  1.00  0.00    -0.271 OA
HETATM    3  N2  UNL     1       0.430   1.693  19.717  1.00  0.00    -0.358 N 
ATOM      4  H2  UNL     1       0.841   2.499  20.187  1.00  0.00     0.162 HD
ENDROOT
BRANCH   3   5
HETATM    5  C16 UNL     1       1.228   0.952  18.803  1.00  0.00     0.152 C 
BRANCH   5   6
HETATM    6  C17 UNL     1       2.015  -0.190  19.240  1.00  0.00     0.285 C 
BRANCH   6   7
HETATM    7  N3  UNL     1       1.800  -1.519  18.864  1.00  0.00     0.029 N 
HETATM    8  C18 UNL     1       3.112  -2.182  18.942  1.00  0.00     0.267 C 
HETATM    9  C19 UNL     1       3.142  -3.583  18.466  1.00  0.00     0.044 C 
HETATM   10  C20 UNL     1       1.724  -4.000  18.136  1.00  0.00     0.083 C 
HETATM   11  C21 UNL     1       0.923  -3.714  19.397  1.00  0.00     0.060 C 
HETATM   12  C27 UNL     1       1.247  -3.042  17.110  1.00  0.00     0.246 C 
HETATM   13  C22 UNL     1       0.892  -2.252  19.724  1.00  0.00     0.309 C 
HETATM   14  O4  UNL     1       0.841  -3.333  15.979  1.00  0.00    -0.271 OA
HETATM   15  N6  UNL     1       1.303  -1.656  17.570  1.00  0.00    -0.184 N 
ATOM     16  H6  UNL     1       1.007  -0.865  16.998  1.00  0.00     0.197 HD
BRANCH  13  17
HETATM   17  C23 UNL     1       1.093  -2.054  21.163  1.00  0.00     0.275 C 
HETATM   18  O3  UNL     1       0.301  -1.280  21.825  1.00  0.00    -0.269 OA
HETATM   19  N4  UNL     1       2.102  -2.643  21.959  1.00  0.00    -0.184 N 
ATOM     20  H4  UNL     1       2.745  -3.266  21.470  1.00  0.00     0.197 HD
BRANCH  19  21
HETATM   21  N5  UNL     1       2.327  -2.486  23.299  1.00  0.00     0.003 N 
HETATM   22  C24 UNL     1       3.611  -3.142  23.622  1.00  0.00     0.301 C 
HETATM   23  C25 UNL     1       2.348  -1.168  23.825  1.00  0.00     0.301 C 
HETATM   24  C26 UNL     1       1.345  -3.257  24.084  1.00  0.00     0.301 C 
ENDBRANCH  19  21
ENDBRANCH  13  17
ENDBRANCH   6   7
ENDBRANCH   5   6
ENDBRANCH   3   5
BRANCH   1  25
HETATM   25  C14 UNL     1      -1.782   2.061  20.944  1.00  0.00     0.185 A 
HETATM   26  C8  UNL     1      -1.432   1.921  22.368  1.00  0.00     0.067 A 
HETATM   27  C7  UNL     1      -2.646   1.850  23.289  1.00  0.00     0.018 C 
HETATM   28  C9  UNL     1      -1.024   3.336  22.348  1.00  0.00     0.010 A 
HETATM   29  C6  UNL     1      -2.526   2.708  24.502  1.00  0.00    -0.006 C 
HETATM   30  C5  UNL     1      -3.531   2.189  25.524  1.00  0.00     0.008 C 
HETATM   31  C12 UNL     1      -1.216   2.589  25.213  1.00  0.00     0.027 C 
HETATM   32  C4  UNL     1      -2.824   2.171  26.848  1.00  0.00     0.038 C 
HETATM   33  C2  UNL     1      -1.621   3.059  26.621  1.00  0.00     0.061 C 
HETATM   34  C3  UNL     1      -0.521   2.781  27.611  1.00  0.00     0.046 C 
HETATM   35  C11 UNL     1      -0.150   3.510  24.723  1.00  0.00     0.037 C 
HETATM   36  C10 UNL     1      -0.486   3.990  23.346  1.00  0.00    -0.001 C 
HETATM   37  N1  UNL     1      -1.455   3.460  21.018  1.00  0.00    -0.374 N 
HETATM   38  C13 UNL     1      -1.549   4.547  20.068  1.00  0.00     0.150 C 
BRANCH  33  39
HETATM   39  O1  UNL     1      -1.940   4.395  26.494  1.00  0.00    -0.385 OA
HETATM   40  C1  UNL     1      -2.334   5.001  27.662  1.00  0.00     0.202 C 
ENDBRANCH  33  39
ENDBRANCH   1  25
TORSDOF 7
ENDMDL
MODEL 4
REMARK VINA RESULT: -7.415912662      2.277      9.370
REMARK  7 active torsions:
REMARK  status: ('A' for Active; 'I' for Inactive)
REMARK    1  A    between atoms: O1_2  and  C2_3 
REMARK    2  A    between atoms: C14_16  and  C15_17 
REMARK       I    between atoms: C15_17  and  N2_19 
REMARK    3  A    between atoms: N2_19  and  C16_21 
REMARK    4  A    between atoms: C16_21  and  C17_22 
REMARK    5  A    between atoms: C17_22  and  N3_23 
REMARK    6  A    between atoms: C22_28  and  C23_29 
REMARK       I    between atoms: C23_29  and  N4_31 
REMARK    7  A    between atoms: N4_31  and  N5_33 
ROOT
HETATM    1  C15 UNL     1      -0.242   1.744  20.253  1.00  0.00     0.241 C 
HETATM    2  O2  UNL     1      -0.500   2.261  19.123  1.00  0.00    -0.271 OA
HETATM    3  N2  UNL     1       0.814   0.827  20.352  1.00  0.00    -0.358 N 
ATOM      4  H2  UNL     1       1.033   0.424  21.263  1.00  0.00     0.162 HD
ENDROOT
BRANCH   3   5
HETATM    5  C16 UNL     1       1.591   0.441  19.227  1.00  0.00     0.152 C 
BRANCH   5   6
HETATM    6  C17 UNL     1       1.456  -0.880  18.633  1.00  0.00     0.285 C 
BRANCH   6   7
HETATM    7  N3  UNL     1       2.208  -2.008  18.976  1.00  0.00     0.029 N 
HETATM    8  C18 UNL     1       1.434  -2.714  20.010  1.00  0.00     0.267 C 
HETATM    9  C19 UNL     1       2.105  -3.888  20.612  1.00  0.00     0.044 C 
HETATM   10  C20 UNL     1       3.406  -4.117  19.873  1.00  0.00     0.083 C 
HETATM   11  C21 UNL     1       3.016  -4.220  18.406  1.00  0.00     0.060 C 
HETATM   12  C27 UNL     1       4.182  -2.861  20.014  1.00  0.00     0.246 C 
HETATM   13  C22 UNL     1       2.431  -2.940  17.889  1.00  0.00     0.309 C 
HETATM   14  O4  UNL     1       5.307  -2.757  20.514  1.00  0.00    -0.271 OA
HETATM   15  N6  UNL     1       3.466  -1.701  19.488  1.00  0.00    -0.184 N 
ATOM     16  H6  UNL     1       3.852  -0.756  19.496  1.00  0.00     0.197 HD
BRANCH  13  17
HETATM   17  C23 UNL     1       1.260  -3.224  17.054  1.00  0.00     0.275 C 
HETATM   18  O3  UNL     1       0.502  -4.232  17.326  1.00  0.00    -0.269 OA
HETATM   19  N4  UNL     1       0.833  -2.485  15.927  1.00  0.00    -0.184 N 
ATOM     20  H4  UNL     1       1.405  -1.676  15.684  1.00  0.00     0.197 HD
BRANCH  19  21
HETATM   21  N5  UNL     1      -0.249  -2.714  15.122  1.00  0.00     0.003 N 
HETATM   22  C24 UNL     1      -0.296  -1.635  14.112  1.00  0.00     0.301 C 
HETATM   23  C25 UNL     1      -0.335  -3.963  14.454  1.00  0.00     0.301 C 
HETATM   24  C26 UNL     1      -1.504  -2.530  15.874  1.00  0.00     0.301 C 
ENDBRANCH  19  21
ENDBRANCH  13  17
ENDBRANCH   6   7
ENDBRANCH   5   6
ENDBRANCH   3   5
BRANCH   1  25
HETATM   25  C14 UNL     1      -1.104   2.176  21.372  1.00  0.00     0.185 A 
HETATM   26  C8  UNL     1      -0.672   1.751  22.715  1.00  0.00     0.067 A 
HETATM   27  C7  UNL     1      -1.829   1.410  23.648  1.00  0.00     0.018 C 
HETATM   28  C9  UNL     1      -0.334   3.158  22.989  1.00  0.00     0.010 A 
HETATM   29  C6  UNL     1      -1.685   1.991  25.014  1.00  0.00    -0.006 C 
HETATM   30  C5  UNL     1      -2.609   1.204  25.939  1.00  0.00     0.008 C 
HETATM   31  C12 UNL     1      -0.335   1.798  25.626  1.00  0.00     0.027 C 
HETATM   32  C4  UNL     1      -1.831   0.941  27.195  1.00  0.00     0.038 C 
HETATM   33  C2  UNL     1      -0.687   1.926  27.119  1.00  0.00     0.061 C 
HETATM   34  C3  UNL     1       0.478   1.505  27.976  1.00  0.00     0.046 C 
HETATM   35  C11 UNL     1       0.657   2.865  25.306  1.00  0.00     0.037 C 
HETATM   36  C10 UNL     1       0.225   3.611  24.083  1.00  0.00    -0.001 C 
HETATM   37  N1  UNL     1      -0.841   3.542  21.738  1.00  0.00    -0.374 N 
HETATM   38  C13 UNL     1      -1.038   4.802  21.054  1.00  0.00     0.150 C 
BRANCH  33  39
HETATM   39  O1  UNL     1      -1.076   3.237  27.301  1.00  0.00    -0.385 OA
HETATM   40  C1  UNL     1      -1.177   3.624  28.615  1.00  0.00     0.202 C 
ENDBRANCH  33  39
ENDBRANCH   1  25
TORSDOF 7
ENDMDL
MODEL 5
REMARK VINA RESULT: -7.368752367      2.542      9.582
REMARK  7 active torsions:
REMARK  status: ('A' for Active; 'I' for Inactive)
REMARK    1  A    between atoms: O1_2  and  C2_3 
REMARK    2  A    between atoms: C14_16  and  C15_17 
REMARK       I    between atoms: C15_17  and  N2_19 
REMARK    3  A    between atoms: N2_19  and  C16_21 
REMARK    4  A    between atoms: C16_21  and  C17_22 
REMARK    5  A    between atoms: C17_22  and  N3_23 
REMARK    6  A    between atoms: C22_28  and  C23_29 
REMARK       I    between atoms: C23_29  and  N4_31 
REMARK    7  A    between atoms: N4_31  and  N5_33 
ROOT
HETATM    1  C15 UNL     1      -0.389   1.351  19.834  1.00  0.00     0.241 C 
HETATM    2  O2  UNL     1       0.815   1.727  19.970  1.00  0.00    -0.271 OA
HETATM    3  N2  UNL     1      -0.714   0.492  18.776  1.00  0.00    -0.358 N 
ATOM      4  H2  UNL     1      -1.679   0.176  18.676  1.00  0.00     0.162 HD
ENDROOT
BRANCH   3   5
HETATM    5  C16 UNL     1       0.255   0.044  17.838  1.00  0.00     0.152 C 
BRANCH   5   6
HETATM    6  C17 UNL     1       0.430  -1.371  17.549  1.00  0.00     0.285 C 
BRANCH   6   7
HETATM    7  N3  UNL     1       1.392  -2.206  18.123  1.00  0.00     0.029 N 
HETATM    8  C18 UNL     1       0.792  -2.730  19.361  1.00  0.00     0.267 C 
HETATM    9  C19 UNL     1       1.690  -3.553  20.202  1.00  0.00     0.044 C 
HETATM   10  C20 UNL     1       2.996  -3.736  19.457  1.00  0.00     0.083 C 
HETATM   11  C21 UNL     1       2.602  -4.306  18.102  1.00  0.00     0.060 C 
HETATM   12  C27 UNL     1       3.515  -2.371  19.204  1.00  0.00     0.246 C 
HETATM   13  C22 UNL     1       1.770  -3.345  17.309  1.00  0.00     0.309 C 
HETATM   14  O4  UNL     1       4.609  -1.932  19.575  1.00  0.00    -0.271 OA
HETATM   15  N6  UNL     1       2.578  -1.549  18.443  1.00  0.00    -0.184 N 
ATOM     16  H6  UNL     1       2.774  -0.585  18.172  1.00  0.00     0.197 HD
BRANCH  13  17
HETATM   17  C23 UNL     1       0.658  -4.053  16.667  1.00  0.00     0.275 C 
HETATM   18  O3  UNL     1      -0.033  -4.912  17.337  1.00  0.00    -0.269 OA
HETATM   19  N4  UNL     1       0.225  -3.899  15.330  1.00  0.00    -0.184 N 
ATOM     20  H4  UNL     1       0.746  -3.224  14.769  1.00  0.00     0.197 HD
BRANCH  19  21
HETATM   21  N5  UNL     1      -0.802  -4.539  14.691  1.00  0.00     0.003 N 
HETATM   22  C24 UNL     1      -0.690  -4.242  13.247  1.00  0.00     0.301 C 
HETATM   23  C25 UNL     1      -0.924  -5.943  14.857  1.00  0.00     0.301 C 
HETATM   24  C26 UNL     1      -2.097  -3.938  15.061  1.00  0.00     0.301 C 
ENDBRANCH  19  21
ENDBRANCH  13  17
ENDBRANCH   6   7
ENDBRANCH   5   6
ENDBRANCH   3   5
BRANCH   1  25
HETATM   25  C14 UNL     1      -1.345   1.874  20.833  1.00  0.00     0.185 A 
HETATM   26  C8  UNL     1      -0.952   1.710  22.243  1.00  0.00     0.067 A 
HETATM   27  C7  UNL     1      -2.125   1.415  23.172  1.00  0.00     0.018 C 
HETATM   28  C9  UNL     1      -0.750   3.167  22.297  1.00  0.00     0.010 A 
HETATM   29  C6  UNL     1      -2.106   2.216  24.429  1.00  0.00    -0.006 C 
HETATM   30  C5  UNL     1      -3.008   1.504  25.432  1.00  0.00     0.008 C 
HETATM   31  C12 UNL     1      -0.780   2.249  25.118  1.00  0.00     0.027 C 
HETATM   32  C4  UNL     1      -2.281   1.517  26.744  1.00  0.00     0.038 C 
HETATM   33  C2  UNL     1      -1.222   2.580  26.555  1.00  0.00     0.061 C 
HETATM   34  C3  UNL     1      -0.074   2.410  27.515  1.00  0.00     0.046 C 
HETATM   35  C11 UNL     1       0.134   3.338  24.668  1.00  0.00     0.037 C 
HETATM   36  C10 UNL     1      -0.292   3.838  23.324  1.00  0.00    -0.001 C 
HETATM   37  N1  UNL     1      -1.220   3.299  20.980  1.00  0.00    -0.374 N 
HETATM   38  C13 UNL     1      -1.486   4.411  20.093  1.00  0.00     0.150 C 
BRANCH  33  39
HETATM   39  O1  UNL     1      -1.730   3.861  26.505  1.00  0.00    -0.385 OA
HETATM   40  C1  UNL     1      -2.054   4.394  27.729  1.00  0.00     0.202 C 
ENDBRANCH  33  39
ENDBRANCH   1  25
TORSDOF 7
ENDMDL
