MODEL 1
REMARK VINA RESULT: -6.670201142      0.000      0.000
REMARK  6 active torsions:
REMARK  status: ('A' for Active; 'I' for Inactive)
REMARK    1  A    between atoms: N1_5  and  C4_6 
REMARK    2  A    between atoms: C4_6  and  C5_7 
REMARK    3  A    between atoms: C9_11  and  N2_12 
REMARK    4  A    between atoms: C19_27  and  C20_28 
REMARK    5  A    between atoms: C21_29  and  C22_30 
REMARK    6  A    between atoms: C22_30  and  N5_31 
REMARK       I    between atoms: N5_31  and  C23_33 
ROOT
HETATM    1  C1  UNL     1       0.320   0.255  20.978  1.00  0.00     0.029 C 
HETATM    2  C2  UNL     1      -0.212   0.226  22.172  1.00  0.00     0.027 C 
HETATM    3  C3  UNL     1      -0.915  -1.020  22.441  1.00  0.00     0.253 C 
HETATM    4  O1  UNL     1      -1.381  -1.551  21.371  1.00  0.00    -0.267 OA
HETATM    5  N1  UNL     1      -1.184  -1.744  23.609  1.00  0.00    -0.345 N 
HETATM    6  C8  UNL     1      -0.355  -1.556  24.740  1.00  0.00     0.164 C 
HETATM    7  C9  UNL     1       0.563  -0.384  24.601  1.00  0.00     0.274 C 
HETATM    8  C12 UNL     1      -0.195   0.912  24.525  1.00  0.00     0.251 C 
HETATM    9  N3  UNL     1       0.358   1.848  25.436  1.00  0.00    -0.061 N 
ATOM     10  H31 UNL     1       1.369   1.734  25.503  1.00  0.00     0.278 HD
ATOM     11  H32 UNL     1       0.097   1.617  26.394  1.00  0.00     0.278 HD
HETATM   12  C13 UNL     1       0.023   3.199  25.134  1.00  0.00     0.187 C 
HETATM   13  C14 UNL     1      -1.251   3.579  25.841  1.00  0.00     0.035 C 
HETATM   14  C15 UNL     1      -2.285   4.142  24.901  1.00  0.00     0.028 C 
HETATM   15  C16 UNL     1      -2.810   3.153  23.934  1.00  0.00     0.096 C 
HETATM   16  N4  UNL     1      -4.063   3.703  23.388  1.00  0.00    -0.350 N 
HETATM   17  C17 UNL     1      -5.411   3.553  23.898  1.00  0.00     0.153 C 
HETATM   18  C18 UNL     1      -3.754   4.451  22.216  1.00  0.00     0.228 C 
HETATM   19  O2  UNL     1      -4.557   5.118  21.527  1.00  0.00    -0.273 OA
HETATM   20  C19 UNL     1      -2.265   4.282  21.966  1.00  0.00     0.111 C 
HETATM   21  C25 UNL     1      -2.049   2.929  22.685  1.00  0.00    -0.000 C 
HETATM   22  C26 UNL     1      -2.855   1.957  21.861  1.00  0.00     0.019 C 
HETATM   23  C27 UNL     1      -0.622   2.669  22.761  1.00  0.00     0.031 C 
HETATM   24  C28 UNL     1       0.084   3.618  23.716  1.00  0.00     0.043 C 
HETATM   25  C29 UNL     1      -0.044   1.362  23.054  1.00  0.00    -0.028 C 
ENDROOT
BRANCH  20  26
HETATM   26  C20 UNL     1      -1.973   4.185  20.545  1.00  0.00    -0.014 C 
HETATM   27  C21 UNL     1      -1.546   5.162  19.784  1.00  0.00    -0.010 C 
BRANCH  27  28
HETATM   28  C22 UNL     1      -1.297   6.526  20.272  1.00  0.00     0.149 C 
BRANCH  28  29
HETATM   29  N5  UNL     1      -2.529   7.276  20.360  1.00  0.00    -0.358 N 
HETATM   30  C23 UNL     1      -2.727   8.571  19.829  1.00  0.00     0.213 C 
HETATM   31  C24 UNL     1      -4.041   9.240  19.986  1.00  0.00     0.117 C 
HETATM   32  O3  UNL     1      -1.829   9.160  19.236  1.00  0.00    -0.274 OA
ATOM     33  H5  UNL     1      -3.314   6.838  20.842  1.00  0.00     0.162 HD
ENDBRANCH  28  29
ENDBRANCH  27  28
ENDBRANCH  20  26
BRANCH   7  34
HETATM   34  N2  UNL     1       1.641  -0.393  25.579  1.00  0.00     0.088 N 
HETATM   35  C10 UNL     1       2.868  -0.884  24.911  1.00  0.00     0.310 C 
HETATM   36  C11 UNL     1       1.431  -1.290  26.679  1.00  0.00     0.310 C 
ENDBRANCH   7  34
BRANCH   5  37
HETATM   37  C4  UNL     1      -1.464  -3.115  23.388  1.00  0.00     0.130 C 
BRANCH  37  38
HETATM   38  C5  UNL     1      -0.263  -3.995  23.590  1.00  0.00     0.004 A 
HETATM   39  C6  UNL     1       0.693  -4.336  22.533  1.00  0.00     0.007 A 
HETATM   40  C7  UNL     1      -0.317  -5.358  22.935  1.00  0.00     0.007 A 
ENDBRANCH  37  38
ENDBRANCH   5  37
TORSDOF 6
ENDMDL
MODEL 2
REMARK VINA RESULT: -6.447358597      3.332      5.414
REMARK  6 active torsions:
REMARK  status: ('A' for Active; 'I' for Inactive)
REMARK    1  A    between atoms: N1_5  and  C4_6 
REMARK    2  A    between atoms: C4_6  and  C5_7 
REMARK    3  A    between atoms: C9_11  and  N2_12 
REMARK    4  A    between atoms: C19_27  and  C20_28 
REMARK    5  A    between atoms: C21_29  and  C22_30 
REMARK    6  A    between atoms: C22_30  and  N5_31 
REMARK       I    between atoms: N5_31  and  C23_33 
ROOT
HETATM    1  C1  UNL     1       0.492   4.000  24.064  1.00  0.00     0.029 C 
HETATM    2  C2  UNL     1      -0.287   2.983  23.802  1.00  0.00     0.027 C 
HETATM    3  C3  UNL     1      -0.412   2.730  22.374  1.00  0.00     0.253 C 
HETATM    4  O1  UNL     1      -0.271   3.799  21.680  1.00  0.00    -0.267 OA
HETATM    5  N1  UNL     1      -0.654   1.578  21.615  1.00  0.00    -0.345 N 
HETATM    6  C8  UNL     1      -0.353   0.313  22.172  1.00  0.00     0.164 C 
HETATM    7  C9  UNL     1      -0.048   0.378  23.635  1.00  0.00     0.274 C 
HETATM    8  C12 UNL     1      -1.243   0.817  24.434  1.00  0.00     0.251 C 
HETATM    9  N3  UNL     1      -1.444  -0.066  25.526  1.00  0.00    -0.061 N 
ATOM     10  H31 UNL     1      -0.551  -0.397  25.891  1.00  0.00     0.278 HD
ATOM     11  H32 UNL     1      -1.836  -0.951  25.206  1.00  0.00     0.278 HD
HETATM   12  C13 UNL     1      -2.238   0.492  26.568  1.00  0.00     0.187 C 
HETATM   13  C14 UNL     1      -3.691   0.183  26.321  1.00  0.00     0.035 C 
HETATM   14  C15 UNL     1      -4.553   1.419  26.337  1.00  0.00     0.028 C 
HETATM   15  C16 UNL     1      -4.290   2.341  25.211  1.00  0.00     0.096 C 
HETATM   16  N4  UNL     1      -5.444   3.253  25.117  1.00  0.00    -0.350 N 
HETATM   17  C17 UNL     1      -6.670   3.078  24.365  1.00  0.00     0.153 C 
HETATM   18  C18 UNL     1      -5.178   4.401  25.915  1.00  0.00     0.228 C 
HETATM   19  O2  UNL     1      -5.960   5.353  26.132  1.00  0.00    -0.273 OA
HETATM   20  C19 UNL     1      -3.764   4.247  26.451  1.00  0.00     0.111 C 
HETATM   21  C25 UNL     1      -3.188   3.319  25.355  1.00  0.00    -0.000 C 
HETATM   22  C26 UNL     1      -3.212   4.177  24.115  1.00  0.00     0.019 C 
HETATM   23  C27 UNL     1      -1.880   2.855  25.784  1.00  0.00     0.031 C 
HETATM   24  C28 UNL     1      -1.969   1.894  26.958  1.00  0.00     0.043 C 
HETATM   25  C29 UNL     1      -0.895   2.251  24.893  1.00  0.00    -0.028 C 
ENDROOT
BRANCH  20  26
HETATM   26  C20 UNL     1      -3.070   5.524  26.490  1.00  0.00    -0.014 C 
HETATM   27  C21 UNL     1      -2.495   6.050  27.543  1.00  0.00    -0.010 C 
BRANCH  27  28
HETATM   28  C22 UNL     1      -2.475   5.408  28.865  1.00  0.00     0.149 C 
BRANCH  28  29
HETATM   29  N5  UNL     1      -2.542   6.394  29.919  1.00  0.00    -0.358 N 
HETATM   30  C23 UNL     1      -1.542   7.355  30.194  1.00  0.00     0.213 C 
HETATM   31  C24 UNL     1      -1.727   8.315  31.308  1.00  0.00     0.117 C 
HETATM   32  O3  UNL     1      -0.515   7.412  29.526  1.00  0.00    -0.274 OA
ATOM     33  H5  UNL     1      -3.374   6.396  30.509  1.00  0.00     0.162 HD
ENDBRANCH  28  29
ENDBRANCH  27  28
ENDBRANCH  20  26
BRANCH   7  34
HETATM   34  N2  UNL     1       0.596  -0.829  24.131  1.00  0.00     0.088 N 
HETATM   35  C10 UNL     1       1.984  -0.487  24.518  1.00  0.00     0.310 C 
HETATM   36  C11 UNL     1       0.728  -1.871  23.152  1.00  0.00     0.310 C 
ENDBRANCH   7  34
BRANCH   5  37
HETATM   37  C4  UNL     1      -0.225   1.672  20.268  1.00  0.00     0.130 C 
BRANCH  37  38
HETATM   38  C5  UNL     1       0.591   0.489  19.833  1.00  0.00     0.004 A 
HETATM   39  C6  UNL     1       1.693   0.559  18.870  1.00  0.00     0.007 A 
HETATM   40  C7  UNL     1       0.380   0.019  18.409  1.00  0.00     0.007 A 
ENDBRANCH  37  38
ENDBRANCH   5  37
TORSDOF 6
ENDMDL
MODEL 3
REMARK VINA RESULT: -6.407062035      3.053      6.462
REMARK  6 active torsions:
REMARK  status: ('A' for Active; 'I' for Inactive)
REMARK    1  A    between atoms: N1_5  and  C4_6 
REMARK    2  A    between atoms: C4_6  and  C5_7 
REMARK    3  A    between atoms: C9_11  and  N2_12 
REMARK    4  A    between atoms: C19_27  and  C20_28 
REMARK    5  A    between atoms: C21_29  and  C22_30 
REMARK    6  A    between atoms: C22_30  and  N5_31 
REMARK       I    between atoms: N5_31  and  C23_33 
ROOT
HETATM    1  C1  UNL     1      -2.916   5.866  26.067  1.00  0.00     0.029 C 
HETATM    2  C2  UNL     1      -3.223   4.596  26.127  1.00  0.00     0.027 C 
HETATM    3  C3  UNL     1      -2.705   3.954  27.326  1.00  0.00     0.253 C 
HETATM    4  O1  UNL     1      -1.632   4.515  27.749  1.00  0.00    -0.267 OA
HETATM    5  N1  UNL     1      -3.130   2.866  28.098  1.00  0.00    -0.345 N 
HETATM    6  C8  UNL     1      -4.490   2.479  28.050  1.00  0.00     0.164 C 
HETATM    7  C9  UNL     1      -5.249   3.150  26.950  1.00  0.00     0.274 C 
HETATM    8  C12 UNL     1      -4.739   2.746  25.594  1.00  0.00     0.251 C 
HETATM    9  N3  UNL     1      -5.825   2.365  24.766  1.00  0.00    -0.061 N 
ATOM     10  H31 UNL     1      -6.649   2.931  24.966  1.00  0.00     0.278 HD
ATOM     11  H32 UNL     1      -6.180   1.447  25.035  1.00  0.00     0.278 HD
HETATM   12  C13 UNL     1      -5.517   2.399  23.376  1.00  0.00     0.187 C 
HETATM   13  C14 UNL     1      -4.984   1.060  22.939  1.00  0.00     0.035 C 
HETATM   14  C15 UNL     1      -3.657   1.170  22.236  1.00  0.00     0.028 C 
HETATM   15  C16 UNL     1      -2.553   1.613  23.115  1.00  0.00     0.096 C 
HETATM   16  N4  UNL     1      -1.292   1.278  22.431  1.00  0.00    -0.350 N 
HETATM   17  C17 UNL     1      -0.527   0.049  22.503  1.00  0.00     0.153 C 
HETATM   18  C18 UNL     1      -0.898   2.393  21.639  1.00  0.00     0.228 C 
HETATM   19  O2  UNL     1       0.084   2.447  20.867  1.00  0.00    -0.273 OA
HETATM   20  C19 UNL     1      -1.900   3.502  21.912  1.00  0.00     0.111 C 
HETATM   21  C25 UNL     1      -2.368   3.067  23.322  1.00  0.00    -0.000 C 
HETATM   22  C26 UNL     1      -1.132   3.225  24.170  1.00  0.00     0.019 C 
HETATM   23  C27 UNL     1      -3.510   3.880  23.701  1.00  0.00     0.031 C 
HETATM   24  C28 UNL     1      -4.744   3.557  22.874  1.00  0.00     0.043 C 
HETATM   25  C29 UNL     1      -4.009   4.002  25.066  1.00  0.00    -0.028 C 
ENDROOT
BRANCH  20  26
HETATM   26  C20 UNL     1      -1.254   4.805  21.943  1.00  0.00    -0.014 C 
HETATM   27  C21 UNL     1      -1.642   5.866  21.281  1.00  0.00    -0.010 C 
BRANCH  27  28
HETATM   28  C22 UNL     1      -2.812   5.889  20.392  1.00  0.00     0.149 C 
BRANCH  28  29
HETATM   29  N5  UNL     1      -3.479   7.170  20.448  1.00  0.00    -0.358 N 
HETATM   30  C23 UNL     1      -2.995   8.360  19.857  1.00  0.00     0.213 C 
HETATM   31  C24 UNL     1      -3.773   9.616  19.986  1.00  0.00     0.117 C 
HETATM   32  O3  UNL     1      -1.939   8.377  19.235  1.00  0.00    -0.274 OA
ATOM     33  H5  UNL     1      -4.365   7.219  20.952  1.00  0.00     0.162 HD
ENDBRANCH  28  29
ENDBRANCH  27  28
ENDBRANCH  20  26
BRANCH   7  34
HETATM   34  N2  UNL     1      -6.691   3.037  27.109  1.00  0.00     0.088 N 
HETATM   35  C10 UNL     1      -7.231   4.384  27.404  1.00  0.00     0.310 C 
HETATM   36  C11 UNL     1      -7.099   2.220  28.215  1.00  0.00     0.310 C 
ENDBRANCH   7  34
BRANCH   5  37
HETATM   37  C4  UNL     1      -2.634   2.869  29.426  1.00  0.00     0.130 C 
BRANCH  37  38
HETATM   38  C5  UNL     1      -3.583   3.506  30.400  1.00  0.00     0.004 A 
HETATM   39  C6  UNL     1      -3.621   4.941  30.693  1.00  0.00     0.007 A 
HETATM   40  C7  UNL     1      -2.971   4.031  31.681  1.00  0.00     0.007 A 
ENDBRANCH  37  38
ENDBRANCH   5  37
TORSDOF 6
ENDMDL
MODEL 4
REMARK VINA RESULT: -6.393584023      3.789      6.067
REMARK  6 active torsions:
REMARK  status: ('A' for Active; 'I' for Inactive)
REMARK    1  A    between atoms: N1_5  and  C4_6 
REMARK    2  A    between atoms: C4_6  and  C5_7 
REMARK    3  A    between atoms: C9_11  and  N2_12 
REMARK    4  A    between atoms: C19_27  and  C20_28 
REMARK    5  A    between atoms: C21_29  and  C22_30 
REMARK    6  A    between atoms: C22_30  and  N5_31 
REMARK       I    between atoms: N5_31  and  C23_33 
ROOT
HETATM    1  C1  UNL     1       0.878   4.015  24.504  1.00  0.00     0.029 C 
HETATM    2  C2  UNL     1       0.004   3.060  24.315  1.00  0.00     0.027 C 
HETATM    3  C3  UNL     1      -0.352   2.900  22.913  1.00  0.00     0.253 C 
HETATM    4  O1  UNL     1      -0.250   3.999  22.261  1.00  0.00    -0.267 OA
HETATM    5  N1  UNL     1      -0.780   1.810  22.145  1.00  0.00    -0.345 N 
HETATM    6  C8  UNL     1      -0.479   0.499  22.584  1.00  0.00     0.164 C 
HETATM    7  C9  UNL     1       0.048   0.460  23.983  1.00  0.00     0.274 C 
HETATM    8  C12 UNL     1      -0.982   0.918  24.979  1.00  0.00     0.251 C 
HETATM    9  N3  UNL     1      -1.070  -0.016  26.043  1.00  0.00    -0.061 N 
ATOM     10  H31 UNL     1      -0.156  -0.418  26.249  1.00  0.00     0.278 HD
ATOM     11  H32 UNL     1      -1.563  -0.858  25.745  1.00  0.00     0.278 HD
HETATM   12  C13 UNL     1      -1.660   0.523  27.223  1.00  0.00     0.187 C 
HETATM   13  C14 UNL     1      -3.150   0.311  27.189  1.00  0.00     0.035 C 
HETATM   14  C15 UNL     1      -3.918   1.589  27.401  1.00  0.00     0.028 C 
HETATM   15  C16 UNL     1      -3.771   2.561  26.295  1.00  0.00     0.096 C 
HETATM   16  N4  UNL     1      -4.865   3.539  26.427  1.00  0.00    -0.350 N 
HETATM   17  C17 UNL     1      -6.199   3.478  25.867  1.00  0.00     0.153 C 
HETATM   18  C18 UNL     1      -4.407   4.622  27.230  1.00  0.00     0.228 C 
HETATM   19  O2  UNL     1      -5.084   5.601  27.613  1.00  0.00    -0.273 OA
HETATM   20  C19 UNL     1      -2.942   4.357  27.532  1.00  0.00     0.111 C 
HETATM   21  C25 UNL     1      -2.599   3.465  26.314  1.00  0.00    -0.000 C 
HETATM   22  C26 UNL     1      -2.756   4.395  25.138  1.00  0.00     0.019 C 
HETATM   23  C27 UNL     1      -1.274   2.904  26.511  1.00  0.00     0.031 C 
HETATM   24  C28 UNL     1      -1.245   1.882  27.636  1.00  0.00     0.043 C 
HETATM   25  C29 UNL     1      -0.477   2.300  25.450  1.00  0.00    -0.028 C 
ENDROOT
BRANCH  20  26
HETATM   26  C20 UNL     1      -2.169   5.589  27.526  1.00  0.00    -0.014 C 
HETATM   27  C21 UNL     1      -1.754   6.236  28.587  1.00  0.00    -0.010 C 
BRANCH  27  28
HETATM   28  C22 UNL     1      -2.020   5.797  29.964  1.00  0.00     0.149 C 
BRANCH  28  29
HETATM   29  N5  UNL     1      -1.312   6.624  30.915  1.00  0.00    -0.358 N 
HETATM   30  C23 UNL     1      -1.922   7.361  31.957  1.00  0.00     0.213 C 
HETATM   31  C24 UNL     1      -1.086   8.175  32.871  1.00  0.00     0.117 C 
HETATM   32  O3  UNL     1      -3.137   7.341  32.124  1.00  0.00    -0.274 OA
ATOM     33  H5  UNL     1      -0.298   6.679  30.829  1.00  0.00     0.162 HD
ENDBRANCH  28  29
ENDBRANCH  27  28
ENDBRANCH  20  26
BRANCH   7  34
HETATM   34  N2  UNL     1       0.681  -0.808  24.312  1.00  0.00     0.088 N 
HETATM   35  C10 UNL     1       2.125  -0.562  24.529  1.00  0.00     0.310 C 
HETATM   36  C11 UNL     1       0.622  -1.785  23.263  1.00  0.00     0.310 C 
ENDBRANCH   7  34
BRANCH   5  37
HETATM   37  C4  UNL     1      -0.556   1.959  20.753  1.00  0.00     0.130 C 
BRANCH  37  38
HETATM   38  C5  UNL     1       0.168   0.789  20.151  1.00  0.00     0.004 A 
HETATM   39  C6  UNL     1       1.068   0.883  19.000  1.00  0.00     0.007 A 
HETATM   40  C7  UNL     1      -0.306   0.342  18.785  1.00  0.00     0.007 A 
ENDBRANCH  37  38
ENDBRANCH   5  37
TORSDOF 6
ENDMDL
MODEL 5
REMARK VINA RESULT: -6.318061842      3.252      6.052
REMARK  6 active torsions:
REMARK  status: ('A' for Active; 'I' for Inactive)
REMARK    1  A    between atoms: N1_5  and  C4_6 
REMARK    2  A    between atoms: C4_6  and  C5_7 
REMARK    3  A    between atoms: C9_11  and  N2_12 
REMARK    4  A    between atoms: C19_27  and  C20_28 
REMARK    5  A    between atoms: C21_29  and  C22_30 
REMARK    6  A    between atoms: C22_30  and  N5_31 
REMARK       I    between atoms: N5_31  and  C23_33 
ROOT
HETATM    1  C1  UNL     1       0.624   3.511  24.446  1.00  0.00     0.029 C 
HETATM    2  C2  UNL     1      -0.417   2.813  24.075  1.00  0.00     0.027 C 
HETATM    3  C3  UNL     1      -0.616   2.831  22.634  1.00  0.00     0.253 C 
HETATM    4  O1  UNL     1      -0.175   3.910  22.099  1.00  0.00    -0.267 OA
HETATM    5  N1  UNL     1      -1.185   1.929  21.726  1.00  0.00    -0.345 N 
HETATM    6  C8  UNL     1      -1.261   0.559  22.075  1.00  0.00     0.164 C 
HETATM    7  C9  UNL     1      -0.944   0.307  23.515  1.00  0.00     0.274 C 
HETATM    8  C12 UNL     1      -1.958   0.940  24.427  1.00  0.00     0.251 C 
HETATM    9  N3  UNL     1      -2.401  -0.007  25.385  1.00  0.00    -0.061 N 
ATOM     10  H31 UNL     1      -1.642  -0.633  25.654  1.00  0.00     0.278 HD
ATOM     11  H32 UNL     1      -3.034  -0.684  24.959  1.00  0.00     0.278 HD
HETATM   12  C13 UNL     1      -2.996   0.585  26.536  1.00  0.00     0.187 C 
HETATM   13  C14 UNL     1      -4.477   0.747  26.318  1.00  0.00     0.035 C 
HETATM   14  C15 UNL     1      -4.943   2.158  26.558  1.00  0.00     0.028 C 
HETATM   15  C16 UNL     1      -4.429   3.131  25.568  1.00  0.00     0.096 C 
HETATM   16  N4  UNL     1      -5.270   4.337  25.667  1.00  0.00    -0.350 N 
HETATM   17  C17 UNL     1      -6.497   4.639  24.958  1.00  0.00     0.153 C 
HETATM   18  C18 UNL     1      -4.679   5.223  26.611  1.00  0.00     0.228 C 
HETATM   19  O2  UNL     1      -5.150   6.313  27.004  1.00  0.00    -0.273 OA
HETATM   20  C19 UNL     1      -3.368   4.590  27.049  1.00  0.00     0.111 C 
HETATM   21  C25 UNL     1      -3.090   3.718  25.801  1.00  0.00    -0.000 C 
HETATM   22  C26 UNL     1      -2.870   4.729  24.704  1.00  0.00     0.019 C 
HETATM   23  C27 UNL     1      -1.971   2.839  26.092  1.00  0.00     0.031 C 
HETATM   24  C28 UNL     1      -2.330   1.773  27.115  1.00  0.00     0.043 C 
HETATM   25  C29 UNL     1      -1.207   2.125  25.075  1.00  0.00    -0.028 C 
ENDROOT
BRANCH  20  26
HETATM   26  C20 UNL     1      -2.333   5.593  27.241  1.00  0.00    -0.014 C 
HETATM   27  C21 UNL     1      -1.869   6.000  28.397  1.00  0.00    -0.010 C 
BRANCH  27  28
HETATM   28  C22 UNL     1      -2.343   5.489  29.691  1.00  0.00     0.149 C 
BRANCH  28  29
HETATM   29  N5  UNL     1      -1.561   4.350  30.114  1.00  0.00    -0.358 N 
HETATM   30  C23 UNL     1      -2.096   3.095  30.487  1.00  0.00     0.213 C 
HETATM   31  C24 UNL     1      -1.188   2.001  30.905  1.00  0.00     0.117 C 
HETATM   32  O3  UNL     1      -3.305   2.889  30.472  1.00  0.00    -0.274 OA
ATOM     33  H5  UNL     1      -0.548   4.459  30.145  1.00  0.00     0.162 HD
ENDBRANCH  28  29
ENDBRANCH  27  28
ENDBRANCH  20  26
BRANCH   7  34
HETATM   34  N2  UNL     1      -0.676  -1.096  23.795  1.00  0.00     0.088 N 
HETATM   35  C10 UNL     1       0.751  -1.228  24.169  1.00  0.00     0.310 C 
HETATM   36  C11 UNL     1      -0.848  -1.966  22.666  1.00  0.00     0.310 C 
ENDBRANCH   7  34
BRANCH   5  37
HETATM   37  C4  UNL     1      -0.753   2.104  20.388  1.00  0.00     0.130 C 
BRANCH  37  38
HETATM   38  C5  UNL     1       0.010   0.921  19.862  1.00  0.00     0.004 A 
HETATM   39  C6  UNL     1       0.922   0.974  18.718  1.00  0.00     0.007 A 
HETATM   40  C7  UNL     1      -0.434   0.385  18.518  1.00  0.00     0.007 A 
ENDBRANCH  37  38
ENDBRANCH   5  37
TORSDOF 6
ENDMDL
