MODEL 1
REMARK VINA RESULT: -7.206096872      0.000      0.000
REMARK  10 active torsions:
REMARK  status: ('A' for Active; 'I' for Inactive)
REMARK    1  A    between atoms: N1_2  and  C3_4 
REMARK    2  A    between atoms: N1_2  and  C5_8 
REMARK    3  A    between atoms: C3_4  and  C4_5 
REMARK    4  A    between atoms: C5_8  and  C6_9 
REMARK    5  A    between atoms: C18_21  and  N3_22 
REMARK       I    between atoms: N3_22  and  C19_24 
REMARK    6  A    between atoms: C19_24  and  C20_26 
REMARK    7  A    between atoms: N4_31  and  C26_33 
REMARK    8  A    between atoms: C26_33  and  C27_34 
REMARK    9  A    between atoms: C28_35  and  C29_36 
REMARK   10  A    between atoms: C29_36  and  N5_37 
ROOT
HETATM    1  C6  UNL     1       1.430  -2.090  20.523  1.00  0.00     0.005 A 
HETATM    2  C7  UNL     1       2.355  -1.252  21.311  1.00  0.00     0.031 A 
HETATM    3  C8  UNL     1       2.496  -1.239  19.886  1.00  0.00     0.076 A 
HETATM    4  C9  UNL     1       2.150  -1.629  18.596  1.00  0.00    -0.100 C 
HETATM    5  C10 UNL     1       1.661  -1.914  17.719  1.00  0.00    -0.094 C 
HETATM    6  C11 UNL     1       0.749  -2.243  16.688  1.00  0.00     0.135 C 
HETATM    7  C12 UNL     1      -0.149  -0.974  16.507  1.00  0.00     0.031 C 
HETATM    8  C13 UNL     1      -0.825  -0.662  17.794  1.00  0.00     0.011 C 
HETATM    9  C14 UNL     1      -1.989  -1.664  17.831  1.00  0.00     0.019 C 
HETATM   10  C15 UNL     1      -1.229  -2.950  18.270  1.00  0.00     0.057 C 
HETATM   11  C16 UNL     1      -0.882  -2.699  19.689  1.00  0.00     0.020 C 
HETATM   12  C17 UNL     1       0.109  -1.631  20.012  1.00  0.00     0.021 C 
HETATM   13  C18 UNL     1      -0.144  -0.520  19.102  1.00  0.00     0.093 C 
HETATM   14  C30 UNL     1      -0.232  -3.271  17.273  1.00  0.00     0.146 C 
HETATM   15  O3  UNL     1      -0.129  -4.393  16.850  1.00  0.00    -0.296 OA
ENDROOT
BRANCH  13  16
HETATM   16  N3  UNL     1      -1.207   0.281  19.829  1.00  0.00    -0.354 N 
HETATM   17  C19 UNL     1      -0.859   1.415  20.589  1.00  0.00     0.249 C 
HETATM   18  O2  UNL     1       0.372   1.739  20.641  1.00  0.00    -0.271 OA
ATOM     19  H3  UNL     1      -2.183  -0.005  19.767  1.00  0.00     0.162 HD
BRANCH  17  20
HETATM   20  C20 UNL     1      -1.814   2.249  21.326  1.00  0.00     0.282 C 
HETATM   21  C21 UNL     1      -1.908   1.875  22.784  1.00  0.00     0.043 C 
HETATM   22  C22 UNL     1      -0.978   2.605  23.684  1.00  0.00     0.004 C 
HETATM   23  C23 UNL     1      -0.916   4.079  23.380  1.00  0.00     0.028 C 
HETATM   24  C24 UNL     1      -0.580   4.231  21.924  1.00  0.00     0.239 C 
HETATM   25  N4  UNL     1      -1.665   3.658  21.149  1.00  0.00    -0.048 N 
HETATM   26  C25 UNL     1      -2.901   4.284  21.645  1.00  0.00     0.274 C 
BRANCH  25  27
HETATM   27  C26 UNL     1      -1.480   4.079  19.800  1.00  0.00     0.331 C 
BRANCH  27  28
HETATM   28  C27 UNL     1      -1.476   5.547  19.762  1.00  0.00    -0.077 C 
HETATM   29  C28 UNL     1      -1.459   6.763  19.712  1.00  0.00    -0.078 C 
BRANCH  29  30
HETATM   30  C29 UNL     1      -1.427   8.232  19.667  1.00  0.00     0.323 C 
BRANCH  30  31
HETATM   31  N5  UNL     1      -2.780   8.684  19.323  1.00  0.00    -0.069 N 
ATOM     32  H53 UNL     1      -2.816   9.666  19.050  1.00  0.00     0.275 HD
ATOM     33  H52 UNL     1      -3.120   8.293  18.445  1.00  0.00     0.275 HD
ATOM     34  H51 UNL     1      -3.380   8.467  20.118  1.00  0.00     0.275 HD
ENDBRANCH  30  31
ENDBRANCH  29  30
ENDBRANCH  27  28
ENDBRANCH  25  27
ENDBRANCH  17  20
ENDBRANCH  13  16
BRANCH   1  35
HETATM   35  C5  UNL     1       1.530  -3.485  20.835  1.00  0.00     0.253 C 
BRANCH  35  36
HETATM   36  N1  UNL     1       2.522  -4.219  21.518  1.00  0.00    -0.049 N 
HETATM   37  C1  UNL     1       3.429  -3.553  22.383  1.00  0.00     0.278 C 
HETATM   38  C2  UNL     1       1.755  -5.043  22.461  1.00  0.00     0.278 C 
BRANCH  36  39
HETATM   39  C3  UNL     1       3.217  -5.194  20.696  1.00  0.00     0.272 C 
BRANCH  39  40
HETATM   40  C4  UNL     1       3.574  -4.856  19.336  1.00  0.00     0.278 C 
HETATM   41  N2  UNL     1       3.065  -5.280  18.101  1.00  0.00    -0.057 NA
HETATM   42  O1  UNL     1       4.543  -4.006  19.195  1.00  0.00    -0.270 OA
ENDBRANCH  39  40
ENDBRANCH  36  39
ENDBRANCH  35  36
ENDBRANCH   1  35
TORSDOF 10
ENDMDL
MODEL 2
REMARK VINA RESULT: -7.081177430      2.715      7.425
REMARK  10 active torsions:
REMARK  status: ('A' for Active; 'I' for Inactive)
REMARK    1  A    between atoms: N1_2  and  C3_4 
REMARK    2  A    between atoms: N1_2  and  C5_8 
REMARK    3  A    between atoms: C3_4  and  C4_5 
REMARK    4  A    between atoms: C5_8  and  C6_9 
REMARK    5  A    between atoms: C18_21  and  N3_22 
REMARK       I    between atoms: N3_22  and  C19_24 
REMARK    6  A    between atoms: C19_24  and  C20_26 
REMARK    7  A    between atoms: N4_31  and  C26_33 
REMARK    8  A    between atoms: C26_33  and  C27_34 
REMARK    9  A    between atoms: C28_35  and  C29_36 
REMARK   10  A    between atoms: C29_36  and  N5_37 
ROOT
HETATM    1  C6  UNL     1      -0.158  -0.092  19.996  1.00  0.00     0.005 A 
HETATM    2  C7  UNL     1      -0.761   1.047  19.278  1.00  0.00     0.031 A 
HETATM    3  C8  UNL     1       0.666   0.931  19.262  1.00  0.00     0.076 A 
HETATM    4  C9  UNL     1       1.870   0.318  19.593  1.00  0.00    -0.100 C 
HETATM    5  C10 UNL     1       2.644  -0.349  19.809  1.00  0.00    -0.094 C 
HETATM    6  C11 UNL     1       3.493  -1.462  20.020  1.00  0.00     0.135 C 
HETATM    7  C12 UNL     1       3.518  -2.228  18.655  1.00  0.00     0.031 C 
HETATM    8  C13 UNL     1       2.133  -2.623  18.287  1.00  0.00     0.011 C 
HETATM    9  C14 UNL     1       1.881  -3.868  19.153  1.00  0.00     0.019 C 
HETATM   10  C15 UNL     1       1.576  -3.192  20.521  1.00  0.00     0.057 C 
HETATM   11  C16 UNL     1       0.244  -2.571  20.329  1.00  0.00     0.020 C 
HETATM   12  C17 UNL     1       0.112  -1.424  19.385  1.00  0.00     0.021 C 
HETATM   13  C18 UNL     1       0.970  -1.708  18.239  1.00  0.00     0.093 C 
HETATM   14  C30 UNL     1       2.734  -2.432  20.939  1.00  0.00     0.146 C 
HETATM   15  O3  UNL     1       3.160  -2.534  22.060  1.00  0.00    -0.296 OA
ENDROOT
BRANCH  13  16
HETATM   16  N3  UNL     1       0.069  -2.526  17.335  1.00  0.00    -0.354 N 
HETATM   17  C19 UNL     1      -0.712  -1.901  16.343  1.00  0.00     0.249 C 
HETATM   18  O2  UNL     1      -0.634  -0.635  16.236  1.00  0.00    -0.271 OA
ATOM     19  H3  UNL     1       0.029  -3.538  17.446  1.00  0.00     0.162 HD
BRANCH  17  20
HETATM   20  C20 UNL     1      -1.611  -2.608  15.423  1.00  0.00     0.282 C 
HETATM   21  C21 UNL     1      -0.923  -3.029  14.149  1.00  0.00     0.043 C 
HETATM   22  C22 UNL     1      -0.314  -4.384  14.178  1.00  0.00     0.004 C 
HETATM   23  C23 UNL     1      -1.215  -5.410  14.815  1.00  0.00     0.028 C 
HETATM   24  C24 UNL     1      -1.598  -4.898  16.174  1.00  0.00     0.239 C 
HETATM   25  N4  UNL     1      -2.363  -3.677  15.998  1.00  0.00    -0.048 N 
HETATM   26  C25 UNL     1      -3.440  -4.000  15.049  1.00  0.00     0.274 C 
BRANCH  25  27
HETATM   27  C26 UNL     1      -2.969  -3.381  17.253  1.00  0.00     0.331 C 
BRANCH  27  28
HETATM   28  C27 UNL     1      -4.312  -2.840  17.011  1.00  0.00    -0.077 C 
HETATM   29  C28 UNL     1      -5.434  -2.410  16.821  1.00  0.00    -0.078 C 
BRANCH  29  30
HETATM   30  C29 UNL     1      -6.789  -1.895  16.572  1.00  0.00     0.323 C 
BRANCH  30  31
HETATM   31  N5  UNL     1      -6.653  -0.729  15.691  1.00  0.00    -0.069 N 
ATOM     32  H53 UNL     1      -6.059   0.001  16.084  1.00  0.00     0.275 HD
ATOM     33  H52 UNL     1      -6.094  -0.919  14.860  1.00  0.00     0.275 HD
ATOM     34  H51 UNL     1      -7.596  -0.405  15.475  1.00  0.00     0.275 HD
ENDBRANCH  30  31
ENDBRANCH  29  30
ENDBRANCH  27  28
ENDBRANCH  25  27
ENDBRANCH  17  20
ENDBRANCH  13  16
BRANCH   1  35
HETATM   35  C5  UNL     1      -0.456  -0.096  21.398  1.00  0.00     0.253 C 
BRANCH  35  36
HETATM   36  N1  UNL     1      -1.115   0.847  22.213  1.00  0.00    -0.049 N 
HETATM   37  C1  UNL     1      -2.368   1.379  21.813  1.00  0.00     0.278 C 
HETATM   38  C2  UNL     1      -1.482   0.074  23.407  1.00  0.00     0.278 C 
BRANCH  36  39
HETATM   39  C3  UNL     1      -0.253   1.893  22.733  1.00  0.00     0.272 C 
BRANCH  39  40
HETATM   40  C4  UNL     1      -0.572   3.278  22.468  1.00  0.00     0.278 C 
HETATM   41  N2  UNL     1      -1.303   4.227  23.195  1.00  0.00    -0.057 NA
HETATM   42  O1  UNL     1      -0.111   3.767  21.359  1.00  0.00    -0.270 OA
ENDBRANCH  39  40
ENDBRANCH  36  39
ENDBRANCH  35  36
ENDBRANCH   1  35
TORSDOF 10
ENDMDL
MODEL 3
REMARK VINA RESULT: -6.925130919      2.392      9.198
REMARK  10 active torsions:
REMARK  status: ('A' for Active; 'I' for Inactive)
REMARK    1  A    between atoms: N1_2  and  C3_4 
REMARK    2  A    between atoms: N1_2  and  C5_8 
REMARK    3  A    between atoms: C3_4  and  C4_5 
REMARK    4  A    between atoms: C5_8  and  C6_9 
REMARK    5  A    between atoms: C18_21  and  N3_22 
REMARK       I    between atoms: N3_22  and  C19_24 
REMARK    6  A    between atoms: C19_24  and  C20_26 
REMARK    7  A    between atoms: N4_31  and  C26_33 
REMARK    8  A    between atoms: C26_33  and  C27_34 
REMARK    9  A    between atoms: C28_35  and  C29_36 
REMARK   10  A    between atoms: C29_36  and  N5_37 
ROOT
HETATM    1  C6  UNL     1      -1.935   3.352  22.282  1.00  0.00     0.005 A 
HETATM    2  C7  UNL     1      -1.611   3.783  20.909  1.00  0.00     0.031 A 
HETATM    3  C8  UNL     1      -0.643   4.039  21.932  1.00  0.00     0.076 A 
HETATM    4  C9  UNL     1      -0.173   4.001  23.241  1.00  0.00    -0.100 C 
HETATM    5  C10 UNL     1       0.068   3.753  24.226  1.00  0.00    -0.094 C 
HETATM    6  C11 UNL     1       0.270   3.151  25.491  1.00  0.00     0.135 C 
HETATM    7  C12 UNL     1       1.074   1.839  25.203  1.00  0.00     0.031 C 
HETATM    8  C13 UNL     1       0.293   0.978  24.276  1.00  0.00     0.011 C 
HETATM    9  C14 UNL     1      -0.744   0.319  25.198  1.00  0.00     0.019 C 
HETATM   10  C15 UNL     1      -1.762   1.487  25.346  1.00  0.00     0.057 C 
HETATM   11  C16 UNL     1      -2.414   1.570  24.017  1.00  0.00     0.020 C 
HETATM   12  C17 UNL     1      -1.606   2.012  22.843  1.00  0.00     0.021 C 
HETATM   13  C18 UNL     1      -0.281   1.418  22.983  1.00  0.00     0.093 C 
HETATM   14  C30 UNL     1      -1.095   2.618  25.954  1.00  0.00     0.146 C 
HETATM   15  O3  UNL     1      -1.601   3.203  26.875  1.00  0.00    -0.296 OA
ENDROOT
BRANCH  13  16
HETATM   16  N3  UNL     1      -0.445   0.061  22.329  1.00  0.00    -0.354 N 
HETATM   17  C19 UNL     1       0.069  -0.184  21.041  1.00  0.00     0.249 C 
HETATM   18  O2  UNL     1       0.672   0.771  20.452  1.00  0.00    -0.271 OA
ATOM     19  H3  UNL     1      -0.933  -0.683  22.827  1.00  0.00     0.162 HD
BRANCH  17  20
HETATM   20  C20 UNL     1      -0.041  -1.461  20.328  1.00  0.00     0.282 C 
HETATM   21  C21 UNL     1      -0.768  -1.332  19.013  1.00  0.00     0.043 C 
HETATM   22  C22 UNL     1       0.098  -1.051  17.838  1.00  0.00     0.004 C 
HETATM   23  C23 UNL     1       1.347  -1.893  17.825  1.00  0.00     0.028 C 
HETATM   24  C24 UNL     1       2.044  -1.695  19.140  1.00  0.00     0.239 C 
HETATM   25  N4  UNL     1       1.176  -2.196  20.191  1.00  0.00    -0.048 N 
HETATM   26  C25 UNL     1       0.806  -3.566  19.801  1.00  0.00     0.274 C 
BRANCH  25  27
HETATM   27  C26 UNL     1       1.964  -2.283  21.375  1.00  0.00     0.331 C 
BRANCH  27  28
HETATM   28  C27 UNL     1       3.297  -2.784  21.017  1.00  0.00    -0.077 C 
HETATM   29  C28 UNL     1       4.411  -3.188  20.740  1.00  0.00    -0.078 C 
BRANCH  29  30
HETATM   30  C29 UNL     1       5.757  -3.664  20.390  1.00  0.00     0.323 C 
BRANCH  30  31
HETATM   31  N5  UNL     1       6.072  -4.776  21.295  1.00  0.00    -0.069 N 
ATOM     32  H53 UNL     1       7.072  -4.961  21.368  1.00  0.00     0.275 HD
ATOM     33  H52 UNL     1       5.909  -4.551  22.276  1.00  0.00     0.275 HD
ATOM     34  H51 UNL     1       5.537  -5.584  20.976  1.00  0.00     0.275 HD
ENDBRANCH  30  31
ENDBRANCH  29  30
ENDBRANCH  27  28
ENDBRANCH  25  27
ENDBRANCH  17  20
ENDBRANCH  13  16
BRANCH   1  35
HETATM   35  C5  UNL     1      -3.115   3.976  22.805  1.00  0.00     0.253 C 
BRANCH  35  36
HETATM   36  N1  UNL     1      -4.473   3.851  22.446  1.00  0.00    -0.049 N 
HETATM   37  C1  UNL     1      -4.947   2.642  21.873  1.00  0.00     0.278 C 
HETATM   38  C2  UNL     1      -5.174   3.870  23.736  1.00  0.00     0.278 C 
BRANCH  36  39
HETATM   39  C3  UNL     1      -5.013   5.001  21.744  1.00  0.00     0.272 C 
BRANCH  39  40
HETATM   40  C4  UNL     1      -4.156   5.775  20.873  1.00  0.00     0.278 C 
HETATM   41  N2  UNL     1      -3.379   6.919  21.099  1.00  0.00    -0.057 NA
HETATM   42  O1  UNL     1      -4.067   5.362  19.648  1.00  0.00    -0.270 OA
ENDBRANCH  39  40
ENDBRANCH  36  39
ENDBRANCH  35  36
ENDBRANCH   1  35
TORSDOF 10
ENDMDL
MODEL 4
REMARK VINA RESULT: -6.918765489      1.367      1.748
REMARK  10 active torsions:
REMARK  status: ('A' for Active; 'I' for Inactive)
REMARK    1  A    between atoms: N1_2  and  C3_4 
REMARK    2  A    between atoms: N1_2  and  C5_8 
REMARK    3  A    between atoms: C3_4  and  C4_5 
REMARK    4  A    between atoms: C5_8  and  C6_9 
REMARK    5  A    between atoms: C18_21  and  N3_22 
REMARK       I    between atoms: N3_22  and  C19_24 
REMARK    6  A    between atoms: C19_24  and  C20_26 
REMARK    7  A    between atoms: N4_31  and  C26_33 
REMARK    8  A    between atoms: C26_33  and  C27_34 
REMARK    9  A    between atoms: C28_35  and  C29_36 
REMARK   10  A    between atoms: C29_36  and  N5_37 
ROOT
HETATM    1  C6  UNL     1       0.526  -2.098  21.861  1.00  0.00     0.005 A 
HETATM    2  C7  UNL     1       0.804  -1.801  23.279  1.00  0.00     0.031 A 
HETATM    3  C8  UNL     1       1.727  -1.306  22.303  1.00  0.00     0.076 A 
HETATM    4  C9  UNL     1       2.190  -1.129  21.003  1.00  0.00    -0.100 C 
HETATM    5  C10 UNL     1       2.298  -0.977  19.975  1.00  0.00    -0.094 C 
HETATM    6  C11 UNL     1       2.146  -0.725  18.591  1.00  0.00     0.135 C 
HETATM    7  C12 UNL     1       1.455   0.676  18.498  1.00  0.00     0.031 C 
HETATM    8  C13 UNL     1       0.156   0.633  19.219  1.00  0.00     0.011 C 
HETATM    9  C14 UNL     1      -0.779  -0.063  18.217  1.00  0.00     0.019 C 
HETATM   10  C15 UNL     1      -0.348  -1.544  18.423  1.00  0.00     0.057 C 
HETATM   11  C16 UNL     1      -0.877  -1.893  19.762  1.00  0.00     0.020 C 
HETATM   12  C17 UNL     1      -0.291  -1.233  20.965  1.00  0.00     0.021 C 
HETATM   13  C18 UNL     1      -0.032   0.158  20.609  1.00  0.00     0.093 C 
HETATM   14  C30 UNL     1       1.053  -1.677  18.083  1.00  0.00     0.146 C 
HETATM   15  O3  UNL     1       1.425  -2.569  17.367  1.00  0.00    -0.296 OA
ENDROOT
BRANCH  13  16
HETATM   16  N3  UNL     1      -1.353   0.838  20.910  1.00  0.00    -0.354 N 
HETATM   17  C19 UNL     1      -1.406   1.969  21.747  1.00  0.00     0.249 C 
HETATM   18  O2  UNL     1      -0.311   2.396  22.237  1.00  0.00    -0.271 OA
ATOM     19  H3  UNL     1      -2.213   0.471  20.501  1.00  0.00     0.162 HD
BRANCH  17  20
HETATM   20  C20 UNL     1      -2.634   2.692  22.094  1.00  0.00     0.282 C 
HETATM   21  C21 UNL     1      -3.058   2.463  23.523  1.00  0.00     0.043 C 
HETATM   22  C22 UNL     1      -2.519   3.437  24.506  1.00  0.00     0.004 C 
HETATM   23  C23 UNL     1      -2.593   4.859  24.013  1.00  0.00     0.028 C 
HETATM   24  C24 UNL     1      -1.906   4.914  22.679  1.00  0.00     0.239 C 
HETATM   25  N4  UNL     1      -2.649   4.079  21.753  1.00  0.00    -0.048 N 
HETATM   26  C25 UNL     1      -4.050   4.522  21.832  1.00  0.00     0.274 C 
BRANCH  25  27
HETATM   27  C26 UNL     1      -2.174   4.383  20.445  1.00  0.00     0.331 C 
BRANCH  27  28
HETATM   28  C27 UNL     1      -2.396   5.810  20.183  1.00  0.00    -0.077 C 
HETATM   29  C28 UNL     1      -2.559   6.995  19.957  1.00  0.00    -0.078 C 
BRANCH  29  30
HETATM   30  C29 UNL     1      -2.753   8.430  19.704  1.00  0.00     0.323 C 
BRANCH  30  31
HETATM   31  N5  UNL     1      -1.421   9.028  19.560  1.00  0.00    -0.069 N 
ATOM     32  H53 UNL     1      -1.278   9.471  18.652  1.00  0.00     0.275 HD
ATOM     33  H52 UNL     1      -1.294   9.862  20.133  1.00  0.00     0.275 HD
ATOM     34  H51 UNL     1      -0.740   8.297  19.761  1.00  0.00     0.275 HD
ENDBRANCH  30  31
ENDBRANCH  29  30
ENDBRANCH  27  28
ENDBRANCH  25  27
ENDBRANCH  17  20
ENDBRANCH  13  16
BRANCH   1  35
HETATM   35  C5  UNL     1       0.493  -3.503  21.575  1.00  0.00     0.253 C 
BRANCH  35  36
HETATM   36  N1  UNL     1       1.527  -4.427  21.321  1.00  0.00    -0.049 N 
HETATM   37  C1  UNL     1       2.709  -4.403  22.106  1.00  0.00     0.278 C 
HETATM   38  C2  UNL     1       0.938  -5.718  21.700  1.00  0.00     0.278 C 
BRANCH  36  39
HETATM   39  C3  UNL     1       1.846  -4.595  19.915  1.00  0.00     0.272 C 
BRANCH  39  40
HETATM   40  C4  UNL     1       3.170  -5.029  19.529  1.00  0.00     0.278 C 
HETATM   41  N2  UNL     1       3.779  -6.291  19.528  1.00  0.00    -0.057 NA
HETATM   42  O1  UNL     1       3.971  -4.103  19.101  1.00  0.00    -0.270 OA
ENDBRANCH  39  40
ENDBRANCH  36  39
ENDBRANCH  35  36
ENDBRANCH   1  35
TORSDOF 10
ENDMDL
MODEL 5
REMARK VINA RESULT: -6.832686673      2.650      8.843
REMARK  10 active torsions:
REMARK  status: ('A' for Active; 'I' for Inactive)
REMARK    1  A    between atoms: N1_2  and  C3_4 
REMARK    2  A    between atoms: N1_2  and  C5_8 
REMARK    3  A    between atoms: C3_4  and  C4_5 
REMARK    4  A    between atoms: C5_8  and  C6_9 
REMARK    5  A    between atoms: C18_21  and  N3_22 
REMARK       I    between atoms: N3_22  and  C19_24 
REMARK    6  A    between atoms: C19_24  and  C20_26 
REMARK    7  A    between atoms: N4_31  and  C26_33 
REMARK    8  A    between atoms: C26_33  and  C27_34 
REMARK    9  A    between atoms: C28_35  and  C29_36 
REMARK   10  A    between atoms: C29_36  and  N5_37 
ROOT
HETATM    1  C6  UNL     1      -1.570   3.068  22.771  1.00  0.00     0.005 A 
HETATM    2  C7  UNL     1      -1.226   3.744  21.505  1.00  0.00     0.031 A 
HETATM    3  C8  UNL     1      -0.316   3.883  22.602  1.00  0.00     0.076 A 
HETATM    4  C9  UNL     1       0.106   3.653  23.907  1.00  0.00    -0.100 C 
HETATM    5  C10 UNL     1       0.327   3.258  24.848  1.00  0.00    -0.094 C 
HETATM    6  C11 UNL     1       0.523   2.465  26.004  1.00  0.00     0.135 C 
HETATM    7  C12 UNL     1       1.426   1.273  25.541  1.00  0.00     0.031 C 
HETATM    8  C13 UNL     1       0.741   0.534  24.448  1.00  0.00     0.011 C 
HETATM    9  C14 UNL     1      -0.281  -0.335  25.196  1.00  0.00     0.019 C 
HETATM   10  C15 UNL     1      -1.382   0.727  25.487  1.00  0.00     0.057 C 
HETATM   11  C16 UNL     1      -1.988   0.992  24.160  1.00  0.00     0.020 C 
HETATM   12  C17 UNL     1      -1.171   1.675  23.116  1.00  0.00     0.021 C 
HETATM   13  C18 UNL     1       0.187   1.150  23.220  1.00  0.00     0.093 C 
HETATM   14  C30 UNL     1      -0.818   1.778  26.305  1.00  0.00     0.146 C 
HETATM   15  O3  UNL     1      -1.397   2.166  27.286  1.00  0.00    -0.296 OA
ENDROOT
BRANCH  13  16
HETATM   16  N3  UNL     1       0.141  -0.085  22.342  1.00  0.00    -0.354 N 
HETATM   17  C19 UNL     1       0.473  -0.009  20.975  1.00  0.00     0.249 C 
HETATM   18  O2  UNL     1       0.809   1.127  20.509  1.00  0.00    -0.271 OA
ATOM     19  H3  UNL     1      -0.132  -0.981  22.746  1.00  0.00     0.162 HD
BRANCH  17  20
HETATM   20  C20 UNL     1       0.458  -1.147  20.049  1.00  0.00     0.282 C 
HETATM   21  C21 UNL     1      -0.940  -1.563  19.663  1.00  0.00     0.043 C 
HETATM   22  C22 UNL     1      -1.482  -0.903  18.447  1.00  0.00     0.004 C 
HETATM   23  C23 UNL     1      -0.477  -0.838  17.327  1.00  0.00     0.028 C 
HETATM   24  C24 UNL     1       0.761  -0.177  17.864  1.00  0.00     0.239 C 
HETATM   25  N4  UNL     1       1.307  -1.023  18.908  1.00  0.00    -0.048 N 
HETATM   26  C25 UNL     1       1.436  -2.368  18.324  1.00  0.00     0.274 C 
BRANCH  25  27
HETATM   27  C26 UNL     1       2.621  -0.546  19.185  1.00  0.00     0.331 C 
BRANCH  27  28
HETATM   28  C27 UNL     1       3.437  -1.666  19.670  1.00  0.00    -0.077 C 
HETATM   29  C28 UNL     1       4.125  -2.580  20.085  1.00  0.00    -0.078 C 
BRANCH  29  30
HETATM   30  C29 UNL     1       4.965  -3.685  20.569  1.00  0.00     0.323 C 
BRANCH  30  31
HETATM   31  N5  UNL     1       5.767  -3.162  21.682  1.00  0.00    -0.069 N 
ATOM     32  H53 UNL     1       6.236  -2.284  21.459  1.00  0.00     0.275 HD
ATOM     33  H52 UNL     1       5.200  -2.815  22.455  1.00  0.00     0.275 HD
ATOM     34  H51 UNL     1       6.413  -3.901  21.960  1.00  0.00     0.275 HD
ENDBRANCH  30  31
ENDBRANCH  29  30
ENDBRANCH  27  28
ENDBRANCH  25  27
ENDBRANCH  17  20
ENDBRANCH  13  16
BRANCH   1  35
HETATM   35  C5  UNL     1      -2.809   3.521  23.333  1.00  0.00     0.253 C 
BRANCH  35  36
HETATM   36  N1  UNL     1      -4.128   3.480  22.835  1.00  0.00    -0.049 N 
HETATM   37  C1  UNL     1      -4.518   2.448  21.942  1.00  0.00     0.278 C 
HETATM   38  C2  UNL     1      -4.935   3.172  24.023  1.00  0.00     0.278 C 
BRANCH  36  39
HETATM   39  C3  UNL     1      -4.641   4.764  22.395  1.00  0.00     0.272 C 
BRANCH  39  40
HETATM   40  C4  UNL     1      -3.992   5.456  21.303  1.00  0.00     0.278 C 
HETATM   41  N2  UNL     1      -3.984   5.226  19.921  1.00  0.00    -0.057 NA
HETATM   42  O1  UNL     1      -3.274   6.486  21.627  1.00  0.00    -0.270 OA
ENDBRANCH  39  40
ENDBRANCH  36  39
ENDBRANCH  35  36
ENDBRANCH   1  35
TORSDOF 10
ENDMDL
