MODEL 1
REMARK VINA RESULT: -7.807718629      0.000      0.000
REMARK  8 active torsions:
REMARK  status: ('A' for Active; 'I' for Inactive)
REMARK    1  A    between atoms: C3_3  and  C4_4 
REMARK    2  A    between atoms: C3_3  and  N5_32 
REMARK    3  A    between atoms: C4_4  and  C5_5 
REMARK    4  A    between atoms: C5_5  and  N1_6 
REMARK    5  A    between atoms: C19_23  and  C20_24 
REMARK    6  A    between atoms: C20_24  and  C21_25 
REMARK    7  A    between atoms: N5_32  and  C26_35 
REMARK    8  A    between atoms: C26_35  and  C28_37 
ROOT
HETATM    1  C1  UNL     1       3.611  -2.013  18.954  1.00  0.00     0.099 C 
HETATM    2  C2  UNL     1       2.444  -1.651  18.904  1.00  0.00    -0.155 C 
HETATM    3  C3  UNL     1       1.036  -1.191  18.814  1.00  0.00     0.254 C 
ENDROOT
BRANCH   3   4
HETATM    4  C4  UNL     1       0.742  -0.117  19.799  1.00  0.00     0.073 C 
BRANCH   4   5
HETATM    5  C5  UNL     1      -0.279  -0.622  20.764  1.00  0.00     0.250 C 
BRANCH   5   6
HETATM    6  N1  UNL     1      -0.820   0.380  21.652  1.00  0.00    -0.010 N 
HETATM    7  C6  UNL     1       0.071   0.947  22.577  1.00  0.00     0.280 C 
HETATM    8  C7  UNL     1      -0.420   1.574  23.795  1.00  0.00     0.268 C 
HETATM    9  O1  UNL     1      -0.171   0.856  24.842  1.00  0.00    -0.267 OA
HETATM   10  N2  UNL     1      -1.108   2.760  24.261  1.00  0.00    -0.322 N 
HETATM   11  C8  UNL     1      -1.007   3.214  25.595  1.00  0.00     0.123 C 
HETATM   12  C19 UNL     1      -1.981   3.641  23.440  1.00  0.00     0.120 C 
HETATM   13  C9  UNL     1      -1.648   2.323  26.629  1.00  0.00     0.299 C 
HETATM   14  C17 UNL     1      -1.846   4.445  25.642  1.00  0.00     0.047 C 
HETATM   15  N3  UNL     1      -2.284   3.197  27.603  1.00  0.00     0.100 N 
HETATM   16  C10 UNL     1      -1.414   3.651  28.634  1.00  0.00     0.307 C 
HETATM   17  C16 UNL     1      -2.744   4.331  26.839  1.00  0.00     0.237 C 
HETATM   18  C11 UNL     1      -1.661   5.122  28.768  1.00  0.00    -0.050 C 
HETATM   19  C12 UNL     1      -1.146   5.951  29.669  1.00  0.00    -0.026 C 
HETATM   20  C14 UNL     1      -2.595   5.544  27.698  1.00  0.00     0.045 C 
HETATM   21  C13 UNL     1      -1.460   7.400  29.710  1.00  0.00     0.036 C 
HETATM   22  C15 UNL     1      -3.901   6.038  28.262  1.00  0.00     0.017 C 
HETATM   23  C18 UNL     1      -2.731   4.445  24.403  1.00  0.00     0.050 C 
HETATM   24  C23 UNL     1      -2.870   2.720  22.583  1.00  0.00     0.251 C 
HETATM   25  O2  UNL     1      -4.039   3.073  22.486  1.00  0.00    -0.270 OA
HETATM   26  N4  UNL     1      -2.333   1.564  21.972  1.00  0.00    -0.300 N 
HETATM   27  C24 UNL     1      -1.494   1.375  20.778  1.00  0.00     0.374 C 
HETATM   28  C25 UNL     1      -2.180   0.126  22.132  1.00  0.00     0.374 C 
BRANCH  12  29
HETATM   29  C20 UNL     1      -1.063   4.408  22.557  1.00  0.00     0.067 C 
BRANCH  29  30
HETATM   30  C21 UNL     1      -1.683   5.328  21.607  1.00  0.00    -0.034 C 
HETATM   31  C22 UNL     1      -1.488   5.301  20.337  1.00  0.00     0.007 C 
ENDBRANCH  29  30
ENDBRANCH  12  29
ENDBRANCH   5   6
ENDBRANCH   4   5
ENDBRANCH   3   4
BRANCH   3  32
HETATM   32  N5  UNL     1       0.802  -0.690  17.449  1.00  0.00    -0.048 N 
ATOM     33  H52 UNL     1       0.215   0.144  17.429  1.00  0.00     0.279 HD
ATOM     34  H51 UNL     1       1.636  -0.278  17.030  1.00  0.00     0.279 HD
BRANCH  32  35
HETATM   35  C26 UNL     1       0.252  -1.792  16.655  1.00  0.00     0.283 C 
HETATM   36  C27 UNL     1      -0.718  -2.578  17.518  1.00  0.00     0.052 C 
BRANCH  35  37
HETATM   37  C28 UNL     1      -0.452  -1.341  15.453  1.00  0.00     0.204 C 
HETATM   38  O3  UNL     1      -1.475  -0.644  15.531  1.00  0.00    -0.646 OA
HETATM   39  O4  UNL     1       0.037  -1.695  14.203  1.00  0.00    -0.646 OA
ENDBRANCH  35  37
ENDBRANCH  32  35
ENDBRANCH   3  32
TORSDOF 8
ENDMDL
MODEL 2
REMARK VINA RESULT: -7.590544211      4.139      7.238
REMARK  8 active torsions:
REMARK  status: ('A' for Active; 'I' for Inactive)
REMARK    1  A    between atoms: C3_3  and  C4_4 
REMARK    2  A    between atoms: C3_3  and  N5_32 
REMARK    3  A    between atoms: C4_4  and  C5_5 
REMARK    4  A    between atoms: C5_5  and  N1_6 
REMARK    5  A    between atoms: C19_23  and  C20_24 
REMARK    6  A    between atoms: C20_24  and  C21_25 
REMARK    7  A    between atoms: N5_32  and  C26_35 
REMARK    8  A    between atoms: C26_35  and  C28_37 
ROOT
HETATM    1  C1  UNL     1      -1.230   2.993  20.518  1.00  0.00     0.099 C 
HETATM    2  C2  UNL     1      -2.130   3.781  20.774  1.00  0.00    -0.155 C 
HETATM    3  C3  UNL     1      -3.196   4.760  21.097  1.00  0.00     0.254 C 
ENDROOT
BRANCH   3   4
HETATM    4  C4  UNL     1      -3.871   4.439  22.381  1.00  0.00     0.073 C 
BRANCH   4   5
HETATM    5  C5  UNL     1      -3.026   4.944  23.504  1.00  0.00     0.250 C 
BRANCH   5   6
HETATM    6  N1  UNL     1      -2.340   3.918  24.254  1.00  0.00    -0.010 N 
HETATM    7  C6  UNL     1      -0.939   3.991  24.283  1.00  0.00     0.280 C 
HETATM    8  C7  UNL     1      -0.138   2.812  24.570  1.00  0.00     0.268 C 
HETATM    9  O1  UNL     1       0.466   2.368  23.515  1.00  0.00    -0.267 OA
HETATM   10  N2  UNL     1       0.236   1.933  25.659  1.00  0.00    -0.322 N 
HETATM   11  C8  UNL     1       1.406   1.143  25.622  1.00  0.00     0.123 C 
HETATM   12  C19 UNL     1      -0.521   1.743  26.926  1.00  0.00     0.120 C 
HETATM   13  C9  UNL     1       1.400   0.030  24.603  1.00  0.00     0.299 C 
HETATM   14  C17 UNL     1       1.413   0.411  26.921  1.00  0.00     0.047 C 
HETATM   15  N3  UNL     1       2.039  -1.118  25.228  1.00  0.00     0.100 N 
HETATM   16  C10 UNL     1       3.459  -1.123  25.124  1.00  0.00     0.307 C 
HETATM   17  C16 UNL     1       1.668  -1.037  26.621  1.00  0.00     0.237 C 
HETATM   18  C11 UNL     1       3.975  -1.464  26.488  1.00  0.00    -0.050 C 
HETATM   19  C12 UNL     1       5.236  -1.677  26.847  1.00  0.00    -0.026 C 
HETATM   20  C14 UNL     1       2.829  -1.521  27.426  1.00  0.00     0.045 C 
HETATM   21  C13 UNL     1       5.637  -2.008  28.235  1.00  0.00     0.036 C 
HETATM   22  C15 UNL     1       2.632  -2.908  27.979  1.00  0.00     0.017 C 
HETATM   23  C18 UNL     1       0.014   0.517  27.515  1.00  0.00     0.050 C 
HETATM   24  C23 UNL     1      -2.011   1.644  26.549  1.00  0.00     0.251 C 
HETATM   25  O2  UNL     1      -2.643   0.789  27.157  1.00  0.00    -0.270 OA
HETATM   26  N4  UNL     1      -2.565   2.497  25.566  1.00  0.00    -0.300 N 
HETATM   27  C24 UNL     1      -2.971   3.911  25.600  1.00  0.00     0.374 C 
HETATM   28  C25 UNL     1      -2.918   2.577  24.158  1.00  0.00     0.374 C 
BRANCH  12  29
HETATM   29  C20 UNL     1      -0.291   2.978  27.720  1.00  0.00     0.067 C 
BRANCH  29  30
HETATM   30  C21 UNL     1      -0.666   2.930  29.131  1.00  0.00    -0.034 C 
HETATM   31  C22 UNL     1      -1.604   3.632  29.658  1.00  0.00     0.007 C 
ENDBRANCH  29  30
ENDBRANCH  12  29
ENDBRANCH   5   6
ENDBRANCH   4   5
ENDBRANCH   3   4
BRANCH   3  32
HETATM   32  N5  UNL     1      -2.584   6.097  21.181  1.00  0.00    -0.048 N 
ATOM     33  H52 UNL     1      -2.958   6.657  21.947  1.00  0.00     0.279 HD
ATOM     34  H51 UNL     1      -1.614   6.069  21.495  1.00  0.00     0.279 HD
BRANCH  32  35
HETATM   35  C26 UNL     1      -2.739   6.744  19.874  1.00  0.00     0.283 C 
HETATM   36  C27 UNL     1      -3.633   7.959  20.036  1.00  0.00     0.052 C 
BRANCH  35  37
HETATM   37  C28 UNL     1      -1.467   7.174  19.289  1.00  0.00     0.204 C 
HETATM   38  O3  UNL     1      -1.416   8.116  18.486  1.00  0.00    -0.646 OA
HETATM   39  O4  UNL     1      -0.297   6.518  19.645  1.00  0.00    -0.646 OA
ENDBRANCH  35  37
ENDBRANCH  32  35
ENDBRANCH   3  32
TORSDOF 8
ENDMDL
MODEL 3
REMARK VINA RESULT: -7.409325174      1.454      2.041
REMARK  8 active torsions:
REMARK  status: ('A' for Active; 'I' for Inactive)
REMARK    1  A    between atoms: C3_3  and  C4_4 
REMARK    2  A    between atoms: C3_3  and  N5_32 
REMARK    3  A    between atoms: C4_4  and  C5_5 
REMARK    4  A    between atoms: C5_5  and  N1_6 
REMARK    5  A    between atoms: C19_23  and  C20_24 
REMARK    6  A    between atoms: C20_24  and  C21_25 
REMARK    7  A    between atoms: N5_32  and  C26_35 
REMARK    8  A    between atoms: C26_35  and  C28_37 
ROOT
HETATM    1  C1  UNL     1      -1.348  -0.884  16.937  1.00  0.00     0.099 C 
HETATM    2  C2  UNL     1      -0.336  -0.828  17.621  1.00  0.00    -0.155 C 
HETATM    3  C3  UNL     1       0.882  -0.791  18.467  1.00  0.00     0.254 C 
ENDROOT
BRANCH   3   4
HETATM    4  C4  UNL     1       0.741   0.165  19.597  1.00  0.00     0.073 C 
BRANCH   4   5
HETATM    5  C5  UNL     1      -0.249  -0.388  20.568  1.00  0.00     0.250 C 
BRANCH   5   6
HETATM    6  N1  UNL     1      -0.802   0.581  21.486  1.00  0.00    -0.010 N 
HETATM    7  C6  UNL     1       0.084   1.136  22.422  1.00  0.00     0.280 C 
HETATM    8  C7  UNL     1      -0.411   1.722  23.658  1.00  0.00     0.268 C 
HETATM    9  O1  UNL     1      -0.145   0.980  24.685  1.00  0.00    -0.267 OA
HETATM   10  N2  UNL     1      -1.117   2.884  24.160  1.00  0.00    -0.322 N 
HETATM   11  C8  UNL     1      -1.016   3.302  25.505  1.00  0.00     0.123 C 
HETATM   12  C19 UNL     1      -2.008   3.772  23.367  1.00  0.00     0.120 C 
HETATM   13  C9  UNL     1      -1.638   2.372  26.518  1.00  0.00     0.299 C 
HETATM   14  C17 UNL     1      -1.876   4.517  25.590  1.00  0.00     0.047 C 
HETATM   15  N3  UNL     1      -2.283   3.209  27.518  1.00  0.00     0.100 N 
HETATM   16  C10 UNL     1      -1.416   3.650  28.558  1.00  0.00     0.307 C 
HETATM   17  C16 UNL     1      -2.766   4.356  26.787  1.00  0.00     0.237 C 
HETATM   18  C11 UNL     1      -1.687   5.112  28.733  1.00  0.00    -0.050 C 
HETATM   19  C12 UNL     1      -1.182   5.925  29.654  1.00  0.00    -0.026 C 
HETATM   20  C14 UNL     1      -2.633   5.547  27.678  1.00  0.00     0.045 C 
HETATM   21  C13 UNL     1      -1.520   7.366  29.736  1.00  0.00     0.036 C 
HETATM   22  C15 UNL     1      -3.944   6.004  28.261  1.00  0.00     0.017 C 
HETATM   23  C18 UNL     1      -2.767   4.536  24.355  1.00  0.00     0.050 C 
HETATM   24  C23 UNL     1      -2.886   2.860  22.489  1.00  0.00     0.251 C 
HETATM   25  O2  UNL     1      -4.061   3.195  22.407  1.00  0.00    -0.270 OA
HETATM   26  N4  UNL     1      -2.333   1.729  21.845  1.00  0.00    -0.300 N 
HETATM   27  C24 UNL     1      -1.496   1.588  20.642  1.00  0.00     0.374 C 
HETATM   28  C25 UNL     1      -2.154   0.291  21.965  1.00  0.00     0.374 C 
BRANCH  12  29
HETATM   29  C20 UNL     1      -1.108   4.577  22.502  1.00  0.00     0.067 C 
BRANCH  29  30
HETATM   30  C21 UNL     1      -1.748   5.490  21.559  1.00  0.00    -0.034 C 
HETATM   31  C22 UNL     1      -1.419   5.607  20.322  1.00  0.00     0.007 C 
ENDBRANCH  29  30
ENDBRANCH  12  29
ENDBRANCH   5   6
ENDBRANCH   4   5
ENDBRANCH   3   4
BRANCH   3  32
HETATM   32  N5  UNL     1       1.119  -2.146  18.992  1.00  0.00    -0.048 N 
ATOM     33  H52 UNL     1       1.333  -2.153  19.989  1.00  0.00     0.279 HD
ATOM     34  H51 UNL     1       0.269  -2.709  19.033  1.00  0.00     0.279 HD
BRANCH  32  35
HETATM   35  C26 UNL     1       2.171  -2.764  18.179  1.00  0.00     0.283 C 
HETATM   36  C27 UNL     1       3.509  -2.537  18.860  1.00  0.00     0.052 C 
BRANCH  35  37
HETATM   37  C28 UNL     1       1.982  -4.203  17.989  1.00  0.00     0.204 C 
HETATM   38  O3  UNL     1       0.854  -4.716  18.045  1.00  0.00    -0.646 OA
HETATM   39  O4  UNL     1       3.084  -5.009  17.736  1.00  0.00    -0.646 OA
ENDBRANCH  35  37
ENDBRANCH  32  35
ENDBRANCH   3  32
TORSDOF 8
ENDMDL
MODEL 4
REMARK VINA RESULT: -7.368235826      3.402      8.608
REMARK  8 active torsions:
REMARK  status: ('A' for Active; 'I' for Inactive)
REMARK    1  A    between atoms: C3_3  and  C4_4 
REMARK    2  A    between atoms: C3_3  and  N5_32 
REMARK    3  A    between atoms: C4_4  and  C5_5 
REMARK    4  A    between atoms: C5_5  and  N1_6 
REMARK    5  A    between atoms: C19_23  and  C20_24 
REMARK    6  A    between atoms: C20_24  and  C21_25 
REMARK    7  A    between atoms: N5_32  and  C26_35 
REMARK    8  A    between atoms: C26_35  and  C28_37 
ROOT
HETATM    1  C1  UNL     1      -5.910   4.367  21.016  1.00  0.00     0.099 C 
HETATM    2  C2  UNL     1      -4.911   5.065  21.118  1.00  0.00    -0.155 C 
HETATM    3  C3  UNL     1      -3.683   5.892  21.215  1.00  0.00     0.254 C 
ENDROOT
BRANCH   3   4
HETATM    4  C4  UNL     1      -2.821   5.471  22.351  1.00  0.00     0.073 C 
BRANCH   4   5
HETATM    5  C5  UNL     1      -3.422   4.258  22.981  1.00  0.00     0.250 C 
BRANCH   5   6
HETATM    6  N1  UNL     1      -2.613   3.065  22.891  1.00  0.00    -0.010 N 
HETATM    7  C6  UNL     1      -1.382   3.190  22.229  1.00  0.00     0.280 C 
HETATM    8  C7  UNL     1      -0.720   2.025  21.661  1.00  0.00     0.268 C 
HETATM    9  O1  UNL     1      -0.779   2.019  20.368  1.00  0.00    -0.267 OA
HETATM   10  N2  UNL     1       0.006   0.833  22.048  1.00  0.00    -0.322 N 
HETATM   11  C8  UNL     1       0.882   0.166  21.163  1.00  0.00     0.123 C 
HETATM   12  C19 UNL     1      -0.056   0.167  23.376  1.00  0.00     0.120 C 
HETATM   13  C9  UNL     1       0.220  -0.507  19.986  1.00  0.00     0.299 C 
HETATM   14  C17 UNL     1       1.416  -0.982  21.951  1.00  0.00     0.047 C 
HETATM   15  N3  UNL     1       0.911  -1.771  19.779  1.00  0.00     0.100 N 
HETATM   16  C10 UNL     1       2.082  -1.671  18.976  1.00  0.00     0.307 C 
HETATM   17  C16 UNL     1       1.282  -2.212  21.102  1.00  0.00     0.237 C 
HETATM   18  C11 UNL     1       3.142  -2.453  19.688  1.00  0.00    -0.050 C 
HETATM   19  C12 UNL     1       4.373  -2.720  19.265  1.00  0.00    -0.026 C 
HETATM   20  C14 UNL     1       2.604  -2.897  20.995  1.00  0.00     0.045 C 
HETATM   21  C13 UNL     1       5.348  -3.508  20.057  1.00  0.00     0.036 C 
HETATM   22  C15 UNL     1       2.505  -4.398  21.075  1.00  0.00     0.017 C 
HETATM   23  C18 UNL     1       0.516  -1.162  23.167  1.00  0.00     0.050 C 
HETATM   24  C23 UNL     1      -1.537   0.138  23.797  1.00  0.00     0.251 C 
HETATM   25  O2  UNL     1      -1.908  -0.906  24.317  1.00  0.00    -0.270 OA
HETATM   26  N4  UNL     1      -2.371   1.259  23.578  1.00  0.00    -0.300 N 
HETATM   27  C24 UNL     1      -2.501   2.547  24.279  1.00  0.00     0.374 C 
HETATM   28  C25 UNL     1      -3.350   1.822  22.661  1.00  0.00     0.374 C 
BRANCH  12  29
HETATM   29  C20 UNL     1       0.707   1.044  24.302  1.00  0.00     0.067 C 
BRANCH  29  30
HETATM   30  C21 UNL     1       1.408   0.386  25.401  1.00  0.00    -0.034 C 
HETATM   31  C22 UNL     1       1.977   1.003  26.373  1.00  0.00     0.007 C 
ENDBRANCH  29  30
ENDBRANCH  12  29
ENDBRANCH   5   6
ENDBRANCH   4   5
ENDBRANCH   3   4
BRANCH   3  32
HETATM   32  N5  UNL     1      -2.937   5.758  19.952  1.00  0.00    -0.048 N 
ATOM     33  H52 UNL     1      -2.079   5.215  20.054  1.00  0.00     0.279 HD
ATOM     34  H51 UNL     1      -3.403   5.149  19.279  1.00  0.00     0.279 HD
BRANCH  32  35
HETATM   35  C26 UNL     1      -2.698   7.106  19.428  1.00  0.00     0.283 C 
HETATM   36  C27 UNL     1      -3.607   8.080  20.155  1.00  0.00     0.052 C 
BRANCH  35  37
HETATM   37  C28 UNL     1      -1.312   7.550  19.591  1.00  0.00     0.204 C 
HETATM   38  O3  UNL     1      -1.030   8.754  19.684  1.00  0.00    -0.646 OA
HETATM   39  O4  UNL     1      -0.295   6.606  19.646  1.00  0.00    -0.646 OA
ENDBRANCH  35  37
ENDBRANCH  32  35
ENDBRANCH   3  32
TORSDOF 8
ENDMDL
MODEL 5
REMARK VINA RESULT: -7.209962360      1.346      1.604
REMARK  8 active torsions:
REMARK  status: ('A' for Active; 'I' for Inactive)
REMARK    1  A    between atoms: C3_3  and  C4_4 
REMARK    2  A    between atoms: C3_3  and  N5_32 
REMARK    3  A    between atoms: C4_4  and  C5_5 
REMARK    4  A    between atoms: C5_5  and  N1_6 
REMARK    5  A    between atoms: C19_23  and  C20_24 
REMARK    6  A    between atoms: C20_24  and  C21_25 
REMARK    7  A    between atoms: N5_32  and  C26_35 
REMARK    8  A    between atoms: C26_35  and  C28_37 
ROOT
HETATM    1  C1  UNL     1       3.849  -2.922  21.030  1.00  0.00     0.099 C 
HETATM    2  C2  UNL     1       2.820  -2.290  20.830  1.00  0.00    -0.155 C 
HETATM    3  C3  UNL     1       1.593  -1.493  20.586  1.00  0.00     0.254 C 
ENDROOT
BRANCH   3   4
HETATM    4  C4  UNL     1       0.858  -1.209  21.846  1.00  0.00     0.073 C 
BRANCH   4   5
HETATM    5  C5  UNL     1      -0.516  -0.738  21.501  1.00  0.00     0.250 C 
BRANCH   5   6
HETATM    6  N1  UNL     1      -1.027   0.313  22.349  1.00  0.00    -0.010 N 
HETATM    7  C6  UNL     1      -0.106   0.924  23.215  1.00  0.00     0.280 C 
HETATM    8  C7  UNL     1      -0.558   1.619  24.411  1.00  0.00     0.268 C 
HETATM    9  O1  UNL     1      -0.282   0.957  25.488  1.00  0.00    -0.267 OA
HETATM   10  N2  UNL     1      -1.228   2.832  24.832  1.00  0.00    -0.322 N 
HETATM   11  C8  UNL     1      -1.085   3.357  26.136  1.00  0.00     0.123 C 
HETATM   12  C19 UNL     1      -2.122   3.672  23.991  1.00  0.00     0.120 C 
HETATM   13  C9  UNL     1      -1.699   2.526  27.235  1.00  0.00     0.299 C 
HETATM   14  C17 UNL     1      -1.919   4.593  26.142  1.00  0.00     0.047 C 
HETATM   15  N3  UNL     1      -2.302   3.455  28.179  1.00  0.00     0.100 N 
HETATM   16  C10 UNL     1      -1.401   3.960  29.158  1.00  0.00     0.307 C 
HETATM   17  C16 UNL     1      -2.781   4.549  27.369  1.00  0.00     0.237 C 
HETATM   18  C11 UNL     1      -1.638   5.437  29.220  1.00  0.00    -0.050 C 
HETATM   19  C12 UNL     1      -1.094   6.311  30.059  1.00  0.00    -0.026 C 
HETATM   20  C14 UNL     1      -2.602   5.805  28.155  1.00  0.00     0.045 C 
HETATM   21  C13 UNL     1      -1.401   7.762  30.030  1.00  0.00     0.036 C 
HETATM   22  C15 UNL     1      -3.889   6.336  28.730  1.00  0.00     0.017 C 
HETATM   23  C18 UNL     1      -2.840   4.531  24.930  1.00  0.00     0.050 C 
HETATM   24  C23 UNL     1      -3.039   2.711  23.211  1.00  0.00     0.251 C 
HETATM   25  O2  UNL     1      -4.209   3.064  23.130  1.00  0.00    -0.270 OA
HETATM   26  N4  UNL     1      -2.525   1.520  22.649  1.00  0.00    -0.300 N 
HETATM   27  C24 UNL     1      -1.722   1.263  21.442  1.00  0.00     0.374 C 
HETATM   28  C25 UNL     1      -2.372   0.093  22.882  1.00  0.00     0.374 C 
BRANCH  12  29
HETATM   29  C20 UNL     1      -1.228   4.385  23.041  1.00  0.00     0.067 C 
BRANCH  29  30
HETATM   30  C21 UNL     1      -1.871   5.078  21.928  1.00  0.00    -0.034 C 
HETATM   31  C22 UNL     1      -1.484   5.005  20.705  1.00  0.00     0.007 C 
ENDBRANCH  29  30
ENDBRANCH  12  29
ENDBRANCH   5   6
ENDBRANCH   4   5
ENDBRANCH   3   4
BRANCH   3  32
HETATM   32  N5  UNL     1       1.987  -0.227  19.946  1.00  0.00    -0.048 N 
ATOM     33  H52 UNL     1       1.630   0.593  20.437  1.00  0.00     0.279 HD
ATOM     34  H51 UNL     1       2.981  -0.023  20.048  1.00  0.00     0.279 HD
BRANCH  32  35
HETATM   35  C26 UNL     1       1.560  -0.281  18.544  1.00  0.00     0.283 C 
HETATM   36  C27 UNL     1       1.186  -1.712  18.204  1.00  0.00     0.052 C 
BRANCH  35  37
HETATM   37  C28 UNL     1       0.412   0.583  18.257  1.00  0.00     0.204 C 
HETATM   38  O3  UNL     1       0.441   1.796  18.513  1.00  0.00    -0.646 OA
HETATM   39  O4  UNL     1      -0.727   0.035  17.684  1.00  0.00    -0.646 OA
ENDBRANCH  35  37
ENDBRANCH  32  35
ENDBRANCH   3  32
TORSDOF 8
ENDMDL
