MODEL 1
REMARK VINA RESULT: -7.132496439      0.000      0.000
REMARK  14 active torsions:
REMARK  status: ('A' for Active; 'I' for Inactive)
REMARK    1  A    between atoms: C2_2  and  C3_3 
REMARK    2  A    between atoms: C3_3  and  C4_4 
REMARK    3  A    between atoms: C4_4  and  O1_5 
REMARK    4  A    between atoms: C4_4  and  C5_7 
REMARK    5  A    between atoms: C5_7  and  C6_8 
REMARK    6  A    between atoms: C6_8  and  C7_9 
REMARK    7  A    between atoms: C7_9  and  C8_10 
REMARK    8  A    between atoms: C8_10  and  C9_11 
REMARK    9  A    between atoms: C9_11  and  C10_12 
REMARK   10  A    between atoms: N3_24  and  N4_26 
REMARK   11  A    between atoms: C18_35  and  C19_36 
REMARK   12  A    between atoms: C19_36  and  C20_37 
REMARK   13  A    between atoms: C24_44  and  C25_45 
REMARK   14  A    between atoms: C25_45  and  C27_47 
ROOT
HETATM    1  C10 UNL     1       2.419  22.171  18.630  1.00  0.00     0.176 C 
HETATM    2  N1  UNL     1       1.040  22.596  18.734  1.00  0.00    -0.346 N 
ATOM      3  H1  UNL     1       0.794  23.186  19.530  1.00  0.00     0.163 HD
HETATM    4  C11 UNL     1       0.002  22.268  17.832  1.00  0.00     0.241 C 
HETATM    5  O2  UNL     1      -0.697  23.189  17.274  1.00  0.00    -0.271 OA
HETATM    6  C12 UNL     1      -0.359  20.878  17.465  1.00  0.00     0.175 C 
HETATM    7  C13 UNL     1      -0.286  20.674  15.961  1.00  0.00     0.042 C 
HETATM    8  N2  UNL     1      -1.696  20.562  17.963  1.00  0.00    -0.337 N 
HETATM    9  C14 UNL     1      -2.330  21.566  18.833  1.00  0.00     0.154 C 
HETATM   10  C15 UNL     1      -2.418  19.397  17.677  1.00  0.00     0.289 C 
HETATM   11  O3  UNL     1      -3.696  19.569  17.586  1.00  0.00    -0.264 OA
HETATM   12  C16 UNL     1      -1.942  18.041  17.470  1.00  0.00     0.193 C 
HETATM   13  N3  UNL     1      -2.367  17.538  16.297  1.00  0.00    -0.267 N 
ATOM     14  H3  UNL     1      -2.950  18.123  15.698  1.00  0.00     0.190 HD
HETATM   15  N6  UNL     1      -1.131  17.276  18.327  1.00  0.00    -0.306 N 
ATOM     16  H6  UNL     1      -0.382  16.779  17.847  1.00  0.00     0.170 HD
HETATM   17  C17 UNL     1      -1.152  17.062  19.710  1.00  0.00     0.246 C 
HETATM   18  O4  UNL     1      -1.110  15.868  20.217  1.00  0.00    -0.271 OA
HETATM   19  C18 UNL     1      -1.218  18.070  20.797  1.00  0.00     0.177 C 
HETATM   20  N7  UNL     1       0.137  18.107  21.355  1.00  0.00    -0.346 N 
ATOM     21  H7  UNL     1       0.383  17.348  21.990  1.00  0.00     0.163 HD
HETATM   22  C23 UNL     1       1.122  19.051  21.122  1.00  0.00     0.241 C 
HETATM   23  O5  UNL     1       2.279  18.625  20.753  1.00  0.00    -0.271 OA
HETATM   24  C24 UNL     1       1.009  20.530  21.252  1.00  0.00     0.180 C 
HETATM   25  N8  UNL     1       2.281  21.189  21.020  1.00  0.00    -0.346 N 
ATOM     26  H8  UNL     1       2.774  21.527  21.846  1.00  0.00     0.163 HD
HETATM   27  C29 UNL     1       2.905  21.410  19.787  1.00  0.00     0.241 C 
HETATM   28  O6  UNL     1       4.070  20.882  19.621  1.00  0.00    -0.271 OA
ENDROOT
BRANCH   1  29
HETATM   29  C9  UNL     1       3.220  23.394  18.272  1.00  0.00     0.035 C 
BRANCH  29  30
HETATM   30  C8  UNL     1       4.005  23.282  17.018  1.00  0.00     0.002 C 
BRANCH  30  31
HETATM   31  C7  UNL     1       3.135  22.854  15.837  1.00  0.00     0.000 C 
BRANCH  31  32
HETATM   32  C6  UNL     1       3.324  21.427  15.483  1.00  0.00     0.006 C 
BRANCH  32  33
HETATM   33  C5  UNL     1       3.369  21.130  13.991  1.00  0.00     0.064 C 
BRANCH  33  34
HETATM   34  C4  UNL     1       4.666  21.331  13.373  1.00  0.00     0.043 C 
BRANCH  34  35
HETATM   35  C3  UNL     1       5.946  21.095  13.925  1.00  0.00     0.027 C 
BRANCH  35  36
HETATM   36  C2  UNL     1       6.785  20.150  13.673  1.00  0.00    -0.029 C 
HETATM   37  C1  UNL     1       7.786  20.120  12.598  1.00  0.00     0.036 C 
ENDBRANCH  35  36
ENDBRANCH  34  35
BRANCH  34  38
HETATM   38  O1  UNL     1       4.655  21.785  12.150  1.00  0.00    -0.365 OA
ATOM     39  H1  UNL     1       4.042  21.361  11.561  1.00  0.00     0.217 HD
ENDBRANCH  34  38
ENDBRANCH  33  34
ENDBRANCH  32  33
ENDBRANCH  31  32
ENDBRANCH  30  31
ENDBRANCH  29  30
ENDBRANCH   1  29
BRANCH  24  40
HETATM   40  C25 UNL     1       0.509  20.889  22.657  1.00  0.00     0.013 C 
HETATM   41  C26 UNL     1      -0.010  22.283  22.663  1.00  0.00     0.012 C 
BRANCH  40  42
HETATM   42  C27 UNL     1       1.589  20.606  23.654  1.00  0.00     0.002 C 
HETATM   43  C28 UNL     1       1.055  19.917  24.888  1.00  0.00     0.005 C 
ENDBRANCH  40  42
ENDBRANCH  24  40
BRANCH  19  44
HETATM   44  C19 UNL     1      -2.090  17.539  21.933  1.00  0.00     0.038 C 
BRANCH  44  45
HETATM   45  C20 UNL     1      -1.873  18.255  23.233  1.00  0.00    -0.020 C 
HETATM   46  C21 UNL     1      -2.059  17.388  24.430  1.00  0.00     0.009 C 
HETATM   47  C22 UNL     1      -2.906  19.377  23.284  1.00  0.00     0.009 C 
ENDBRANCH  44  45
ENDBRANCH  19  44
BRANCH  13  48
HETATM   48  N4  UNL     1      -2.049  16.276  15.872  1.00  0.00    -0.248 N 
HETATM   49  N5  UNL     1      -2.788  15.296  16.174  1.00  0.00    -0.331 N 
ATOM     50  H52 UNL     1      -3.621  15.463  16.737  1.00  0.00     0.178 HD
ATOM     51  H51 UNL     1      -2.551  14.355  15.858  1.00  0.00     0.178 HD
ATOM     52  H4  UNL     1      -1.212  16.126  15.309  1.00  0.00     0.207 HD
ENDBRANCH  13  48
TORSDOF 14
ENDMDL
MODEL 2
REMARK VINA RESULT: -6.861008300      3.362      8.442
REMARK  14 active torsions:
REMARK  status: ('A' for Active; 'I' for Inactive)
REMARK    1  A    between atoms: C2_2  and  C3_3 
REMARK    2  A    between atoms: C3_3  and  C4_4 
REMARK    3  A    between atoms: C4_4  and  O1_5 
REMARK    4  A    between atoms: C4_4  and  C5_7 
REMARK    5  A    between atoms: C5_7  and  C6_8 
REMARK    6  A    between atoms: C6_8  and  C7_9 
REMARK    7  A    between atoms: C7_9  and  C8_10 
REMARK    8  A    between atoms: C8_10  and  C9_11 
REMARK    9  A    between atoms: C9_11  and  C10_12 
REMARK   10  A    between atoms: N3_24  and  N4_26 
REMARK   11  A    between atoms: C18_35  and  C19_36 
REMARK   12  A    between atoms: C19_36  and  C20_37 
REMARK   13  A    between atoms: C24_44  and  C25_45 
REMARK   14  A    between atoms: C25_45  and  C27_47 
ROOT
HETATM    1  C10 UNL     1      -0.262  18.704  21.971  1.00  0.00     0.176 C 
HETATM    2  N1  UNL     1      -0.546  20.095  22.253  1.00  0.00    -0.346 N 
ATOM      3  H1  UNL     1      -0.961  20.645  21.501  1.00  0.00     0.163 HD
HETATM    4  C11 UNL     1      -0.302  20.758  23.477  1.00  0.00     0.241 C 
HETATM    5  O2  UNL     1      -1.248  21.373  24.090  1.00  0.00    -0.271 OA
HETATM    6  C12 UNL     1       1.024  20.801  24.139  1.00  0.00     0.175 C 
HETATM    7  C13 UNL     1       0.947  20.252  25.554  1.00  0.00     0.042 C 
HETATM    8  N2  UNL     1       1.533  22.171  24.145  1.00  0.00    -0.337 N 
HETATM    9  C14 UNL     1       0.758  23.166  23.388  1.00  0.00     0.154 C 
HETATM   10  C15 UNL     1       2.683  22.610  24.814  1.00  0.00     0.289 C 
HETATM   11  O3  UNL     1       2.603  23.812  25.282  1.00  0.00    -0.264 OA
HETATM   12  C16 UNL     1       3.936  21.915  25.052  1.00  0.00     0.193 C 
HETATM   13  N3  UNL     1       4.252  21.895  26.359  1.00  0.00    -0.267 N 
ATOM     14  H3  UNL     1       3.619  22.344  27.021  1.00  0.00     0.190 HD
HETATM   15  N6  UNL     1       4.774  21.306  24.101  1.00  0.00    -0.306 N 
ATOM     16  H6  UNL     1       5.113  20.386  24.383  1.00  0.00     0.170 HD
HETATM   17  C17 UNL     1       5.234  21.713  22.844  1.00  0.00     0.246 C 
HETATM   18  O4  UNL     1       6.492  21.666  22.529  1.00  0.00    -0.271 OA
HETATM   19  C18 UNL     1       4.447  22.239  21.701  1.00  0.00     0.177 C 
HETATM   20  N7  UNL     1       4.400  21.133  20.740  1.00  0.00    -0.346 N 
ATOM     21  H7  UNL     1       5.239  20.990  20.178  1.00  0.00     0.163 HD
HETATM   22  C23 UNL     1       3.352  20.260  20.506  1.00  0.00     0.241 C 
HETATM   23  O5  UNL     1       3.608  18.999  20.544  1.00  0.00    -0.271 OA
HETATM   24  C24 UNL     1       1.935  20.605  20.206  1.00  0.00     0.180 C 
HETATM   25  N8  UNL     1       1.143  19.423  19.921  1.00  0.00    -0.346 N 
ATOM     26  H8  UNL     1       0.919  19.252  18.940  1.00  0.00     0.163 HD
HETATM   27  C29 UNL     1       0.652  18.492  20.843  1.00  0.00     0.241 C 
HETATM   28  O6  UNL     1       1.044  17.271  20.703  1.00  0.00    -0.271 OA
ENDROOT
BRANCH   1  29
HETATM   29  C9  UNL     1      -1.591  18.004  21.873  1.00  0.00     0.035 C 
BRANCH  29  30
HETATM   30  C8  UNL     1      -1.939  17.511  20.517  1.00  0.00     0.002 C 
BRANCH  30  31
HETATM   31  C7  UNL     1      -2.361  18.648  19.588  1.00  0.00     0.000 C 
BRANCH  31  32
HETATM   32  C6  UNL     1      -2.277  18.270  18.157  1.00  0.00     0.006 C 
BRANCH  32  33
HETATM   33  C5  UNL     1      -3.064  17.026  17.768  1.00  0.00     0.064 C 
BRANCH  33  34
HETATM   34  C4  UNL     1      -2.348  16.101  16.911  1.00  0.00     0.043 C 
BRANCH  34  35
HETATM   35  C3  UNL     1      -2.175  14.707  17.074  1.00  0.00     0.027 C 
BRANCH  35  36
HETATM   36  C2  UNL     1      -1.356  14.067  17.835  1.00  0.00    -0.029 C 
HETATM   37  C1  UNL     1      -0.380  14.647  18.767  1.00  0.00     0.036 C 
ENDBRANCH  35  36
ENDBRANCH  34  35
BRANCH  34  38
HETATM   38  O1  UNL     1      -1.791  16.617  15.849  1.00  0.00    -0.365 OA
ATOM     39  H1  UNL     1      -1.058  17.198  16.012  1.00  0.00     0.217 HD
ENDBRANCH  34  38
ENDBRANCH  33  34
ENDBRANCH  32  33
ENDBRANCH  31  32
ENDBRANCH  30  31
ENDBRANCH  29  30
ENDBRANCH   1  29
BRANCH  24  40
HETATM   40  C25 UNL     1       1.878  21.548  18.998  1.00  0.00     0.013 C 
HETATM   41  C26 UNL     1       0.513  22.128  18.880  1.00  0.00     0.012 C 
BRANCH  40  42
HETATM   42  C27 UNL     1       2.372  20.828  17.783  1.00  0.00     0.002 C 
HETATM   43  C28 UNL     1       3.234  21.711  16.912  1.00  0.00     0.005 C 
ENDBRANCH  40  42
ENDBRANCH  24  40
BRANCH  19  44
HETATM   44  C19 UNL     1       5.244  23.332  20.994  1.00  0.00     0.038 C 
BRANCH  44  45
HETATM   45  C20 UNL     1       4.640  23.758  19.688  1.00  0.00    -0.020 C 
HETATM   46  C21 UNL     1       5.603  24.444  18.780  1.00  0.00     0.009 C 
HETATM   47  C22 UNL     1       3.519  24.735  20.030  1.00  0.00     0.009 C 
ENDBRANCH  44  45
ENDBRANCH  19  44
BRANCH  13  48
HETATM   48  N4  UNL     1       5.387  21.297  26.839  1.00  0.00    -0.248 N 
HETATM   49  N5  UNL     1       5.427  20.860  28.024  1.00  0.00    -0.331 N 
ATOM     50  H52 UNL     1       4.600  20.960  28.613  1.00  0.00     0.178 HD
ATOM     51  H51 UNL     1       6.273  20.415  28.381  1.00  0.00     0.178 HD
ATOM     52  H4  UNL     1       6.205  21.205  26.236  1.00  0.00     0.207 HD
ENDBRANCH  13  48
TORSDOF 14
ENDMDL
MODEL 3
REMARK VINA RESULT: -6.780847621      0.792      1.363
REMARK  14 active torsions:
REMARK  status: ('A' for Active; 'I' for Inactive)
REMARK    1  A    between atoms: C2_2  and  C3_3 
REMARK    2  A    between atoms: C3_3  and  C4_4 
REMARK    3  A    between atoms: C4_4  and  O1_5 
REMARK    4  A    between atoms: C4_4  and  C5_7 
REMARK    5  A    between atoms: C5_7  and  C6_8 
REMARK    6  A    between atoms: C6_8  and  C7_9 
REMARK    7  A    between atoms: C7_9  and  C8_10 
REMARK    8  A    between atoms: C8_10  and  C9_11 
REMARK    9  A    between atoms: C9_11  and  C10_12 
REMARK   10  A    between atoms: N3_24  and  N4_26 
REMARK   11  A    between atoms: C18_35  and  C19_36 
REMARK   12  A    between atoms: C19_36  and  C20_37 
REMARK   13  A    between atoms: C24_44  and  C25_45 
REMARK   14  A    between atoms: C25_45  and  C27_47 
ROOT
HETATM    1  C10 UNL     1       2.535  22.153  18.598  1.00  0.00     0.176 C 
HETATM    2  N1  UNL     1       1.163  22.606  18.679  1.00  0.00    -0.346 N 
ATOM      3  H1  UNL     1       0.921  23.215  19.460  1.00  0.00     0.163 HD
HETATM    4  C11 UNL     1       0.129  22.280  17.772  1.00  0.00     0.241 C 
HETATM    5  O2  UNL     1      -0.547  23.203  17.189  1.00  0.00    -0.271 OA
HETATM    6  C12 UNL     1      -0.255  20.890  17.427  1.00  0.00     0.175 C 
HETATM    7  C13 UNL     1      -0.171  20.656  15.928  1.00  0.00     0.042 C 
HETATM    8  N2  UNL     1      -1.603  20.609  17.917  1.00  0.00    -0.337 N 
HETATM    9  C14 UNL     1      -2.227  21.642  18.761  1.00  0.00     0.154 C 
HETATM   10  C15 UNL     1      -2.345  19.453  17.646  1.00  0.00     0.289 C 
HETATM   11  O3  UNL     1      -3.618  19.648  17.538  1.00  0.00    -0.264 OA
HETATM   12  C16 UNL     1      -1.892  18.084  17.470  1.00  0.00     0.193 C 
HETATM   13  N3  UNL     1      -2.315  17.568  16.302  1.00  0.00    -0.267 N 
ATOM     14  H3  UNL     1      -2.880  18.152  15.686  1.00  0.00     0.190 HD
HETATM   15  N6  UNL     1      -1.106  17.321  18.350  1.00  0.00    -0.306 N 
ATOM     16  H6  UNL     1      -0.360  16.801  17.888  1.00  0.00     0.170 HD
HETATM   17  C17 UNL     1      -1.144  17.134  19.736  1.00  0.00     0.246 C 
HETATM   18  O4  UNL     1      -1.131  15.949  20.266  1.00  0.00    -0.271 OA
HETATM   19  C18 UNL     1      -1.203  18.164  20.803  1.00  0.00     0.177 C 
HETATM   20  N7  UNL     1       0.147  18.186  21.375  1.00  0.00    -0.346 N 
ATOM     21  H7  UNL     1       0.372  17.434  22.026  1.00  0.00     0.163 HD
HETATM   22  C23 UNL     1       1.152  19.106  21.135  1.00  0.00     0.241 C 
HETATM   23  O5  UNL     1       2.305  18.651  20.786  1.00  0.00    -0.271 OA
HETATM   24  C24 UNL     1       1.067  20.589  21.235  1.00  0.00     0.180 C 
HETATM   25  N8  UNL     1       2.353  21.219  21.004  1.00  0.00    -0.346 N 
ATOM     26  H8  UNL     1       2.845  21.564  21.829  1.00  0.00     0.163 HD
HETATM   27  C29 UNL     1       2.994  21.405  19.774  1.00  0.00     0.241 C 
HETATM   28  O6  UNL     1       4.150  20.852  19.630  1.00  0.00    -0.271 OA
ENDROOT
BRANCH   1  29
HETATM   29  C9  UNL     1       3.363  23.353  18.225  1.00  0.00     0.035 C 
BRANCH  29  30
HETATM   30  C8  UNL     1       4.150  23.206  16.975  1.00  0.00     0.002 C 
BRANCH  30  31
HETATM   31  C7  UNL     1       3.278  22.764  15.801  1.00  0.00     0.000 C 
BRANCH  31  32
HETATM   32  C6  UNL     1       3.563  21.372  15.377  1.00  0.00     0.006 C 
BRANCH  32  33
HETATM   33  C5  UNL     1       4.859  21.184  14.601  1.00  0.00     0.064 C 
BRANCH  33  34
HETATM   34  C4  UNL     1       4.747  21.415  13.173  1.00  0.00     0.043 C 
BRANCH  34  35
HETATM   35  C3  UNL     1       3.651  21.941  12.453  1.00  0.00     0.027 C 
BRANCH  35  36
HETATM   36  C2  UNL     1       2.719  21.322  11.812  1.00  0.00    -0.029 C 
HETATM   37  C1  UNL     1       1.454  20.818  12.362  1.00  0.00     0.036 C 
ENDBRANCH  35  36
ENDBRANCH  34  35
BRANCH  34  38
HETATM   38  O1  UNL     1       5.792  21.100  12.458  1.00  0.00    -0.365 OA
ATOM     39  H1  UNL     1       5.620  20.558  11.697  1.00  0.00     0.217 HD
ENDBRANCH  34  38
ENDBRANCH  33  34
ENDBRANCH  32  33
ENDBRANCH  31  32
ENDBRANCH  30  31
ENDBRANCH  29  30
ENDBRANCH   1  29
BRANCH  24  40
HETATM   40  C25 UNL     1       0.560  20.984  22.628  1.00  0.00     0.013 C 
HETATM   41  C26 UNL     1       0.152  22.415  22.625  1.00  0.00     0.012 C 
BRANCH  40  42
HETATM   42  C27 UNL     1       1.586  20.616  23.652  1.00  0.00     0.002 C 
HETATM   43  C28 UNL     1       0.982  19.869  24.817  1.00  0.00     0.005 C 
ENDBRANCH  40  42
ENDBRANCH  24  40
BRANCH  19  44
HETATM   44  C19 UNL     1      -2.096  17.672  21.939  1.00  0.00     0.038 C 
BRANCH  44  45
HETATM   45  C20 UNL     1      -2.396  18.728  22.960  1.00  0.00    -0.020 C 
HETATM   46  C21 UNL     1      -3.356  18.287  24.012  1.00  0.00     0.009 C 
HETATM   47  C22 UNL     1      -3.016  19.897  22.201  1.00  0.00     0.009 C 
ENDBRANCH  44  45
ENDBRANCH  19  44
BRANCH  13  48
HETATM   48  N4  UNL     1      -2.017  16.291  15.905  1.00  0.00    -0.248 N 
HETATM   49  N5  UNL     1      -2.777  15.331  16.217  1.00  0.00    -0.331 N 
ATOM     50  H52 UNL     1      -3.613  15.526  16.769  1.00  0.00     0.178 HD
ATOM     51  H51 UNL     1      -2.556  14.380  15.922  1.00  0.00     0.178 HD
ATOM     52  H4  UNL     1      -1.177  16.115  15.354  1.00  0.00     0.207 HD
ENDBRANCH  13  48
TORSDOF 14
ENDMDL
MODEL 4
REMARK VINA RESULT: -6.653790465      4.645      6.797
REMARK  14 active torsions:
REMARK  status: ('A' for Active; 'I' for Inactive)
REMARK    1  A    between atoms: C2_2  and  C3_3 
REMARK    2  A    between atoms: C3_3  and  C4_4 
REMARK    3  A    between atoms: C4_4  and  O1_5 
REMARK    4  A    between atoms: C4_4  and  C5_7 
REMARK    5  A    between atoms: C5_7  and  C6_8 
REMARK    6  A    between atoms: C6_8  and  C7_9 
REMARK    7  A    between atoms: C7_9  and  C8_10 
REMARK    8  A    between atoms: C8_10  and  C9_11 
REMARK    9  A    between atoms: C9_11  and  C10_12 
REMARK   10  A    between atoms: N3_24  and  N4_26 
REMARK   11  A    between atoms: C18_35  and  C19_36 
REMARK   12  A    between atoms: C19_36  and  C20_37 
REMARK   13  A    between atoms: C24_44  and  C25_45 
REMARK   14  A    between atoms: C25_45  and  C27_47 
ROOT
HETATM    1  C10 UNL     1      -1.358  19.575  20.412  1.00  0.00     0.176 C 
HETATM    2  N1  UNL     1      -1.508  20.902  20.969  1.00  0.00    -0.346 N 
ATOM      3  H1  UNL     1      -0.717  21.279  21.490  1.00  0.00     0.163 HD
HETATM    4  C11 UNL     1      -2.653  21.723  20.855  1.00  0.00     0.241 C 
HETATM    5  O2  UNL     1      -2.564  22.911  20.377  1.00  0.00    -0.271 OA
HETATM    6  C12 UNL     1      -4.014  21.297  21.264  1.00  0.00     0.175 C 
HETATM    7  C13 UNL     1      -4.994  21.413  20.108  1.00  0.00     0.042 C 
HETATM    8  N2  UNL     1      -4.464  22.097  22.401  1.00  0.00    -0.337 N 
HETATM    9  C14 UNL     1      -3.475  23.006  23.002  1.00  0.00     0.154 C 
HETATM   10  C15 UNL     1      -5.750  22.074  22.956  1.00  0.00     0.289 C 
HETATM   11  O3  UNL     1      -6.158  23.214  23.407  1.00  0.00    -0.264 OA
HETATM   12  C16 UNL     1      -6.678  20.965  23.093  1.00  0.00     0.193 C 
HETATM   13  N3  UNL     1      -7.874  21.247  22.546  1.00  0.00    -0.267 N 
ATOM     14  H3  UNL     1      -8.009  22.160  22.112  1.00  0.00     0.190 HD
HETATM   15  N6  UNL     1      -6.441  19.718  23.699  1.00  0.00    -0.306 N 
ATOM     16  H6  UNL     1      -6.795  18.927  23.160  1.00  0.00     0.170 HD
HETATM   17  C17 UNL     1      -5.816  19.348  24.895  1.00  0.00     0.246 C 
HETATM   18  O4  UNL     1      -6.382  18.543  25.741  1.00  0.00    -0.271 OA
HETATM   19  C18 UNL     1      -4.485  19.763  25.405  1.00  0.00     0.177 C 
HETATM   20  N7  UNL     1      -3.629  18.589  25.210  1.00  0.00    -0.346 N 
ATOM     21  H7  UNL     1      -3.729  17.841  25.896  1.00  0.00     0.163 HD
HETATM   22  C23 UNL     1      -2.702  18.376  24.205  1.00  0.00     0.241 C 
HETATM   23  O5  UNL     1      -2.787  17.277  23.540  1.00  0.00    -0.271 OA
HETATM   24  C24 UNL     1      -1.591  19.277  23.790  1.00  0.00     0.180 C 
HETATM   25  N8  UNL     1      -0.764  18.673  22.763  1.00  0.00    -0.346 N 
ATOM     26  H8  UNL     1       0.141  18.309  23.065  1.00  0.00     0.163 HD
HETATM   27  C29 UNL     1      -1.070  18.533  21.405  1.00  0.00     0.241 C 
HETATM   28  O6  UNL     1      -1.110  17.332  20.938  1.00  0.00    -0.271 OA
ENDROOT
BRANCH   1  29
HETATM   29  C9  UNL     1      -0.367  19.691  19.284  1.00  0.00     0.035 C 
BRANCH  29  30
HETATM   30  C8  UNL     1      -0.914  19.386  17.939  1.00  0.00     0.002 C 
BRANCH  30  31
HETATM   31  C7  UNL     1      -2.433  19.536  17.893  1.00  0.00     0.000 C 
BRANCH  31  32
HETATM   32  C6  UNL     1      -3.094  18.400  17.207  1.00  0.00     0.006 C 
BRANCH  32  33
HETATM   33  C5  UNL     1      -2.863  17.037  17.843  1.00  0.00     0.064 C 
BRANCH  33  34
HETATM   34  C4  UNL     1      -2.281  16.047  16.957  1.00  0.00     0.043 C 
BRANCH  34  35
HETATM   35  C3  UNL     1      -2.136  14.657  17.168  1.00  0.00     0.027 C 
BRANCH  35  36
HETATM   36  C2  UNL     1      -1.212  14.017  17.800  1.00  0.00    -0.029 C 
HETATM   37  C1  UNL     1      -0.351  14.537  18.869  1.00  0.00     0.036 C 
ENDBRANCH  35  36
ENDBRANCH  34  35
BRANCH  34  38
HETATM   38  O1  UNL     1      -1.836  16.492  15.814  1.00  0.00    -0.365 OA
ATOM     39  H1  UNL     1      -2.496  16.648  15.149  1.00  0.00     0.217 HD
ENDBRANCH  34  38
ENDBRANCH  33  34
ENDBRANCH  32  33
ENDBRANCH  31  32
ENDBRANCH  30  31
ENDBRANCH  29  30
ENDBRANCH   1  29
BRANCH  24  40
HETATM   40  C25 UNL     1      -0.716  19.611  25.005  1.00  0.00     0.013 C 
HETATM   41  C26 UNL     1       0.150  20.779  24.692  1.00  0.00     0.012 C 
BRANCH  40  42
HETATM   42  C27 UNL     1       0.009  18.379  25.448  1.00  0.00     0.002 C 
HETATM   43  C28 UNL     1       0.505  18.493  26.869  1.00  0.00     0.005 C 
ENDBRANCH  40  42
ENDBRANCH  24  40
BRANCH  19  44
HETATM   44  C19 UNL     1      -4.554  19.944  26.919  1.00  0.00     0.038 C 
BRANCH  44  45
HETATM   45  C20 UNL     1      -3.696  21.067  27.423  1.00  0.00    -0.020 C 
HETATM   46  C21 UNL     1      -3.174  21.951  26.342  1.00  0.00     0.009 C 
HETATM   47  C22 UNL     1      -2.511  20.419  28.131  1.00  0.00     0.009 C 
ENDBRANCH  44  45
ENDBRANCH  19  44
BRANCH  13  48
HETATM   48  N4  UNL     1      -8.918  20.361  22.547  1.00  0.00    -0.248 N 
HETATM   49  N5  UNL     1      -9.863  20.485  21.718  1.00  0.00    -0.331 N 
ATOM     50  H52 UNL     1      -9.832  21.256  21.050  1.00  0.00     0.178 HD
ATOM     51  H51 UNL     1     -10.641  19.825  21.719  1.00  0.00     0.178 HD
ATOM     52  H4  UNL     1      -8.932  19.596  23.222  1.00  0.00     0.207 HD
ENDBRANCH  13  48
TORSDOF 14
ENDMDL
MODEL 5
REMARK VINA RESULT: -6.620872907      0.878      1.405
REMARK  14 active torsions:
REMARK  status: ('A' for Active; 'I' for Inactive)
REMARK    1  A    between atoms: C2_2  and  C3_3 
REMARK    2  A    between atoms: C3_3  and  C4_4 
REMARK    3  A    between atoms: C4_4  and  O1_5 
REMARK    4  A    between atoms: C4_4  and  C5_7 
REMARK    5  A    between atoms: C5_7  and  C6_8 
REMARK    6  A    between atoms: C6_8  and  C7_9 
REMARK    7  A    between atoms: C7_9  and  C8_10 
REMARK    8  A    between atoms: C8_10  and  C9_11 
REMARK    9  A    between atoms: C9_11  and  C10_12 
REMARK   10  A    between atoms: N3_24  and  N4_26 
REMARK   11  A    between atoms: C18_35  and  C19_36 
REMARK   12  A    between atoms: C19_36  and  C20_37 
REMARK   13  A    between atoms: C24_44  and  C25_45 
REMARK   14  A    between atoms: C25_45  and  C27_47 
ROOT
HETATM    1  C10 UNL     1       2.419  22.286  18.669  1.00  0.00     0.176 C 
HETATM    2  N1  UNL     1       1.038  22.700  18.798  1.00  0.00    -0.346 N 
ATOM      3  H1  UNL     1       0.799  23.274  19.607  1.00  0.00     0.163 HD
HETATM    4  C11 UNL     1      -0.009  22.382  17.903  1.00  0.00     0.241 C 
HETATM    5  O2  UNL     1      -0.720  23.308  17.370  1.00  0.00    -0.271 OA
HETATM    6  C12 UNL     1      -0.365  20.997  17.514  1.00  0.00     0.175 C 
HETATM    7  C13 UNL     1      -0.310  20.820  16.006  1.00  0.00     0.042 C 
HETATM    8  N2  UNL     1      -1.694  20.663  18.023  1.00  0.00    -0.337 N 
HETATM    9  C14 UNL     1      -2.323  21.647  18.919  1.00  0.00     0.154 C 
HETATM   10  C15 UNL     1      -2.413  19.499  17.725  1.00  0.00     0.289 C 
HETATM   11  O3  UNL     1      -3.693  19.664  17.653  1.00  0.00    -0.264 OA
HETATM   12  C16 UNL     1      -1.930  18.150  17.487  1.00  0.00     0.193 C 
HETATM   13  N3  UNL     1      -2.367  17.666  16.310  1.00  0.00    -0.267 N 
ATOM     14  H3  UNL     1      -2.961  18.258  15.730  1.00  0.00     0.190 HD
HETATM   15  N6  UNL     1      -1.105  17.374  18.320  1.00  0.00    -0.306 N 
ATOM     16  H6  UNL     1      -0.358  16.891  17.822  1.00  0.00     0.170 HD
HETATM   17  C17 UNL     1      -1.106  17.135  19.699  1.00  0.00     0.246 C 
HETATM   18  O4  UNL     1      -1.051  15.933  20.184  1.00  0.00    -0.271 OA
HETATM   19  C18 UNL     1      -1.166  18.123  20.805  1.00  0.00     0.177 C 
HETATM   20  N7  UNL     1       0.196  18.159  21.347  1.00  0.00    -0.346 N 
ATOM     21  H7  UNL     1       0.454  17.389  21.964  1.00  0.00     0.163 HD
HETATM   22  C23 UNL     1       1.172  19.113  21.120  1.00  0.00     0.241 C 
HETATM   23  O5  UNL     1       2.327  18.701  20.728  1.00  0.00    -0.271 OA
HETATM   24  C24 UNL     1       1.052  20.588  21.277  1.00  0.00     0.180 C 
HETATM   25  N8  UNL     1       2.316  21.259  21.042  1.00  0.00    -0.346 N 
ATOM     26  H8  UNL     1       2.818  21.586  21.868  1.00  0.00     0.163 HD
HETATM   27  C29 UNL     1       2.924  21.508  19.806  1.00  0.00     0.241 C 
HETATM   28  O6  UNL     1       4.090  20.990  19.616  1.00  0.00    -0.271 OA
ENDROOT
BRANCH   1  29
HETATM   29  C9  UNL     1       3.208  23.521  18.324  1.00  0.00     0.035 C 
BRANCH  29  30
HETATM   30  C8  UNL     1       3.306  23.814  16.872  1.00  0.00     0.002 C 
BRANCH  30  31
HETATM   31  C7  UNL     1       4.757  23.882  16.401  1.00  0.00     0.000 C 
BRANCH  31  32
HETATM   32  C6  UNL     1       4.873  24.319  14.989  1.00  0.00     0.006 C 
BRANCH  32  33
HETATM   33  C5  UNL     1       5.910  23.571  14.162  1.00  0.00     0.064 C 
BRANCH  33  34
HETATM   34  C4  UNL     1       5.807  22.125  14.229  1.00  0.00     0.043 C 
BRANCH  34  35
HETATM   35  C3  UNL     1       4.799  21.292  13.694  1.00  0.00     0.027 C 
BRANCH  35  36
HETATM   36  C2  UNL     1       3.598  21.085  14.115  1.00  0.00    -0.029 C 
HETATM   37  C1  UNL     1       3.202  20.492  15.398  1.00  0.00     0.036 C 
ENDBRANCH  35  36
ENDBRANCH  34  35
BRANCH  34  38
HETATM   38  O1  UNL     1       6.769  21.511  14.862  1.00  0.00    -0.365 OA
ATOM     39  H1  UNL     1       6.745  20.562  14.822  1.00  0.00     0.217 HD
ENDBRANCH  34  38
ENDBRANCH  33  34
ENDBRANCH  32  33
ENDBRANCH  31  32
ENDBRANCH  30  31
ENDBRANCH  29  30
ENDBRANCH   1  29
BRANCH  24  40
HETATM   40  C25 UNL     1       0.567  20.918  22.695  1.00  0.00     0.013 C 
HETATM   41  C26 UNL     1       0.072  22.320  22.742  1.00  0.00     0.012 C 
BRANCH  40  42
HETATM   42  C27 UNL     1       1.648  20.590  23.677  1.00  0.00     0.002 C 
HETATM   43  C28 UNL     1       1.103  19.924  24.918  1.00  0.00     0.005 C 
ENDBRANCH  40  42
ENDBRANCH  24  40
BRANCH  19  44
HETATM   44  C19 UNL     1      -2.020  17.566  21.941  1.00  0.00     0.038 C 
BRANCH  44  45
HETATM   45  C20 UNL     1      -1.820  18.284  23.243  1.00  0.00    -0.020 C 
HETATM   46  C21 UNL     1      -2.013  17.418  24.439  1.00  0.00     0.009 C 
HETATM   47  C22 UNL     1      -2.859  19.401  23.282  1.00  0.00     0.009 C 
ENDBRANCH  44  45
ENDBRANCH  19  44
BRANCH  13  48
HETATM   48  N4  UNL     1      -2.047  16.413  15.859  1.00  0.00    -0.248 N 
HETATM   49  N5  UNL     1      -2.740  15.414  16.202  1.00  0.00    -0.331 N 
ATOM     50  H52 UNL     1      -3.540  15.559  16.818  1.00  0.00     0.178 HD
ATOM     51  H51 UNL     1      -2.502  14.481  15.865  1.00  0.00     0.178 HD
ATOM     52  H4  UNL     1      -1.244  16.287  15.242  1.00  0.00     0.207 HD
ENDBRANCH  13  48
TORSDOF 14
ENDMDL
