MODEL 1
REMARK VINA RESULT: -6.481601144      0.000      0.000
REMARK  13 active torsions:
REMARK  status: ('A' for Active; 'I' for Inactive)
REMARK    1  A    between atoms: C2_2  and  C3_3 
REMARK    2  A    between atoms: C3_3  and  C4_4 
REMARK    3  A    between atoms: C4_4  and  C5_5 
REMARK    4  A    between atoms: C5_5  and  C6_6 
REMARK    5  A    between atoms: C6_6  and  C7_7 
REMARK    6  A    between atoms: C9_12  and  C10_13 
REMARK    7  A    between atoms: C10_13  and  C11_14 
REMARK    8  A    between atoms: C16_21  and  C17_22 
REMARK    9  A    between atoms: C17_22  and  C18_23 
REMARK   10  A    between atoms: C22_30  and  C23_31 
REMARK   11  A    between atoms: C23_31  and  C24_32 
REMARK   12  A    between atoms: C26_39  and  C27_40 
REMARK   13  A    between atoms: C29_42  and  O6_43 
REMARK       I    between atoms: N6_45  and  C30_46 
ROOT
HETATM    1  C7  UNL     1       2.917  21.791  15.939  1.00  0.00     0.090 C 
HETATM    2  C8  UNL     1       2.447  20.503  16.402  1.00  0.00     0.265 C 
HETATM    3  O1  UNL     1       1.748  19.774  15.597  1.00  0.00    -0.266 OA
HETATM    4  N1  UNL     1       2.639  19.873  17.660  1.00  0.00    -0.343 N 
ATOM      5  H1  UNL     1       3.075  18.951  17.636  1.00  0.00     0.163 HD
HETATM    6  C9  UNL     1       2.294  20.376  18.967  1.00  0.00     0.177 C 
HETATM    7  C14 UNL     1       1.790  19.276  19.871  1.00  0.00     0.243 C 
HETATM    8  O2  UNL     1       2.731  18.508  20.288  1.00  0.00    -0.271 OA
HETATM    9  N2  UNL     1       0.489  19.026  20.277  1.00  0.00    -0.341 N 
HETATM   10  C15 UNL     1       0.337  18.683  21.727  1.00  0.00     0.153 C 
HETATM   11  C16 UNL     1      -0.737  19.089  19.520  1.00  0.00     0.179 C 
HETATM   12  C21 UNL     1      -1.125  20.538  19.422  1.00  0.00     0.241 C 
HETATM   13  O3  UNL     1      -1.176  21.072  20.606  1.00  0.00    -0.271 OA
HETATM   14  N3  UNL     1      -1.414  21.342  18.360  1.00  0.00    -0.346 N 
ATOM     15  H3  UNL     1      -0.810  22.161  18.295  1.00  0.00     0.163 HD
HETATM   16  C22 UNL     1      -2.405  21.270  17.303  1.00  0.00     0.185 C 
HETATM   17  C25 UNL     1      -2.556  22.591  16.635  1.00  0.00     0.241 C 
HETATM   18  O5  UNL     1      -3.522  23.379  16.846  1.00  0.00    -0.271 OA
HETATM   19  N5  UNL     1      -1.588  23.021  15.717  1.00  0.00    -0.347 N 
ATOM     20  H5  UNL     1      -1.686  23.943  15.294  1.00  0.00     0.163 HD
HETATM   21  C26 UNL     1      -0.435  22.185  15.346  1.00  0.00     0.159 C 
HETATM   22  C29 UNL     1       0.757  23.060  15.376  1.00  0.00     0.149 C 
HETATM   23  N6  UNL     1       1.995  22.921  16.013  1.00  0.00    -0.246 N 
HETATM   24  C30 UNL     1       2.409  24.086  16.776  1.00  0.00     0.341 C 
HETATM   25  N7  UNL     1       3.728  24.004  17.367  1.00  0.00    -0.039 NA
HETATM   26  O7  UNL     1       1.721  25.104  16.936  1.00  0.00    -0.250 OA
ENDROOT
BRANCH   1  27
HETATM   27  C6  UNL     1       3.676  21.842  14.623  1.00  0.00     0.064 C 
BRANCH  27  28
HETATM   28  C5  UNL     1       4.715  20.846  14.376  1.00  0.00     0.006 C 
BRANCH  28  29
HETATM   29  C4  UNL     1       5.721  20.999  13.319  1.00  0.00     0.000 C 
BRANCH  29  30
HETATM   30  C3  UNL     1       6.992  20.249  13.664  1.00  0.00    -0.000 C 
BRANCH  30  31
HETATM   31  C2  UNL     1       7.937  20.248  12.462  1.00  0.00    -0.005 C 
HETATM   32  C1  UNL     1       8.755  21.500  12.386  1.00  0.00     0.005 C 
ENDBRANCH  30  31
ENDBRANCH  29  30
ENDBRANCH  28  29
ENDBRANCH  27  28
ENDBRANCH   1  27
BRANCH  22  33
HETATM   33  O6  UNL     1       0.547  24.132  14.663  1.00  0.00    -0.347 OA
ATOM     34  H6  UNL     1       1.374  24.515  14.395  1.00  0.00     0.219 HD
ENDBRANCH  22  33
BRANCH   6  35
HETATM   35  C10 UNL     1       3.631  20.828  19.596  1.00  0.00     0.038 C 
BRANCH  35  36
HETATM   36  C11 UNL     1       3.421  21.885  20.632  1.00  0.00    -0.020 C 
HETATM   37  C12 UNL     1       2.272  22.804  20.371  1.00  0.00     0.009 C 
HETATM   38  C13 UNL     1       4.701  22.720  20.672  1.00  0.00     0.009 C 
ENDBRANCH  35  36
ENDBRANCH   6  35
BRANCH  21  39
HETATM   39  C27 UNL     1      -0.716  21.749  13.923  1.00  0.00     0.029 C 
HETATM   40  C28 UNL     1       0.482  21.374  13.129  1.00  0.00     0.007 C 
ENDBRANCH  21  39
BRANCH  11  41
HETATM   41  C17 UNL     1      -0.895  18.284  18.322  1.00  0.00     0.039 C 
BRANCH  41  42
HETATM   42  C18 UNL     1      -0.881  16.794  18.410  1.00  0.00    -0.020 C 
HETATM   43  C19 UNL     1      -1.619  16.189  19.555  1.00  0.00     0.009 C 
HETATM   44  C20 UNL     1      -1.290  16.144  17.092  1.00  0.00     0.009 C 
ENDBRANCH  41  42
ENDBRANCH  11  41
BRANCH  16  45
HETATM   45  C23 UNL     1      -3.773  20.876  17.814  1.00  0.00     0.134 C 
BRANCH  45  46
HETATM   46  C24 UNL     1      -4.371  19.900  16.878  1.00  0.00     0.233 C 
HETATM   47  N4  UNL     1      -5.605  20.228  16.212  1.00  0.00    -0.062 NA
HETATM   48  O4  UNL     1      -3.907  18.772  16.587  1.00  0.00    -0.277 OA
ENDBRANCH  45  46
ENDBRANCH  16  45
TORSDOF 13
ENDMDL
MODEL 2
REMARK VINA RESULT: -6.276305220      3.783      6.029
REMARK  13 active torsions:
REMARK  status: ('A' for Active; 'I' for Inactive)
REMARK    1  A    between atoms: C2_2  and  C3_3 
REMARK    2  A    between atoms: C3_3  and  C4_4 
REMARK    3  A    between atoms: C4_4  and  C5_5 
REMARK    4  A    between atoms: C5_5  and  C6_6 
REMARK    5  A    between atoms: C6_6  and  C7_7 
REMARK    6  A    between atoms: C9_12  and  C10_13 
REMARK    7  A    between atoms: C10_13  and  C11_14 
REMARK    8  A    between atoms: C16_21  and  C17_22 
REMARK    9  A    between atoms: C17_22  and  C18_23 
REMARK   10  A    between atoms: C22_30  and  C23_31 
REMARK   11  A    between atoms: C23_31  and  C24_32 
REMARK   12  A    between atoms: C26_39  and  C27_40 
REMARK   13  A    between atoms: C29_42  and  O6_43 
REMARK       I    between atoms: N6_45  and  C30_46 
ROOT
HETATM    1  C7  UNL     1       0.098  17.771  19.911  1.00  0.00     0.090 C 
HETATM    2  C8  UNL     1      -1.087  18.186  20.631  1.00  0.00     0.265 C 
HETATM    3  O1  UNL     1      -2.242  17.826  20.180  1.00  0.00    -0.266 OA
HETATM    4  N1  UNL     1      -1.195  18.963  21.814  1.00  0.00    -0.343 N 
ATOM      5  H1  UNL     1      -1.697  18.529  22.589  1.00  0.00     0.163 HD
HETATM    6  C9  UNL     1      -0.685  20.290  22.056  1.00  0.00     0.177 C 
HETATM    7  C14 UNL     1      -1.638  21.109  22.895  1.00  0.00     0.243 C 
HETATM    8  O2  UNL     1      -1.635  20.758  24.130  1.00  0.00    -0.271 OA
HETATM    9  N2  UNL     1      -2.466  22.144  22.492  1.00  0.00    -0.341 N 
HETATM   10  C15 UNL     1      -2.492  23.324  23.414  1.00  0.00     0.153 C 
HETATM   11  C16 UNL     1      -3.268  22.267  21.300  1.00  0.00     0.179 C 
HETATM   12  C21 UNL     1      -2.346  22.669  20.183  1.00  0.00     0.241 C 
HETATM   13  O3  UNL     1      -1.677  23.732  20.512  1.00  0.00    -0.271 OA
HETATM   14  N3  UNL     1      -2.107  22.134  18.952  1.00  0.00    -0.346 N 
ATOM     15  H3  UNL     1      -1.131  21.875  18.806  1.00  0.00     0.163 HD
HETATM   16  C22 UNL     1      -2.956  21.858  17.808  1.00  0.00     0.185 C 
HETATM   17  C25 UNL     1      -2.136  21.647  16.586  1.00  0.00     0.241 C 
HETATM   18  O5  UNL     1      -1.993  22.515  15.677  1.00  0.00    -0.271 OA
HETATM   19  N5  UNL     1      -1.466  20.431  16.399  1.00  0.00    -0.347 N 
ATOM     20  H5  UNL     1      -0.879  20.313  15.573  1.00  0.00     0.163 HD
HETATM   21  C26 UNL     1      -1.580  19.318  17.355  1.00  0.00     0.159 C 
HETATM   22  C29 UNL     1      -0.213  18.802  17.580  1.00  0.00     0.149 C 
HETATM   23  N6  UNL     1       0.509  18.565  18.756  1.00  0.00    -0.246 N 
HETATM   24  C30 UNL     1       1.845  19.134  18.763  1.00  0.00     0.341 C 
HETATM   25  N7  UNL     1       2.646  18.822  19.928  1.00  0.00    -0.039 NA
HETATM   26  O7  UNL     1       2.315  19.839  17.860  1.00  0.00    -0.250 OA
ENDROOT
BRANCH   1  27
HETATM   27  C6  UNL     1       0.258  16.293  19.593  1.00  0.00     0.064 C 
BRANCH  27  28
HETATM   28  C5  UNL     1      -0.565  15.713  18.536  1.00  0.00     0.006 C 
BRANCH  28  29
HETATM   29  C4  UNL     1      -0.421  14.320  18.097  1.00  0.00     0.000 C 
BRANCH  29  30
HETATM   30  C3  UNL     1      -1.733  13.778  17.565  1.00  0.00    -0.000 C 
BRANCH  30  31
HETATM   31  C2  UNL     1      -2.073  14.454  16.238  1.00  0.00    -0.005 C 
HETATM   32  C1  UNL     1      -1.702  13.608  15.060  1.00  0.00     0.005 C 
ENDBRANCH  30  31
ENDBRANCH  29  30
ENDBRANCH  28  29
ENDBRANCH  27  28
ENDBRANCH   1  27
BRANCH  22  33
HETATM   33  O6  UNL     1       0.365  18.546  16.439  1.00  0.00    -0.347 OA
ATOM     34  H6  UNL     1      -0.271  18.215  15.817  1.00  0.00     0.219 HD
ENDBRANCH  22  33
BRANCH   6  35
HETATM   35  C10 UNL     1       0.562  20.092  22.946  1.00  0.00     0.038 C 
BRANCH  35  36
HETATM   36  C11 UNL     1       1.497  21.254  22.849  1.00  0.00    -0.020 C 
HETATM   37  C12 UNL     1       1.592  21.876  21.494  1.00  0.00     0.009 C 
HETATM   38  C13 UNL     1       2.882  20.736  23.235  1.00  0.00     0.009 C 
ENDBRANCH  35  36
ENDBRANCH   6  35
BRANCH  21  39
HETATM   39  C27 UNL     1      -2.412  18.275  16.638  1.00  0.00     0.029 C 
HETATM   40  C28 UNL     1      -3.879  18.390  16.839  1.00  0.00     0.007 C 
ENDBRANCH  21  39
BRANCH  11  41
HETATM   41  C17 UNL     1      -4.275  21.266  20.994  1.00  0.00     0.039 C 
BRANCH  41  42
HETATM   42  C18 UNL     1      -5.717  21.547  21.252  1.00  0.00    -0.020 C 
HETATM   43  C19 UNL     1      -6.324  20.879  22.439  1.00  0.00     0.009 C 
HETATM   44  C20 UNL     1      -6.010  23.045  21.259  1.00  0.00     0.009 C 
ENDBRANCH  41  42
ENDBRANCH  11  41
BRANCH  16  45
HETATM   45  C23 UNL     1      -3.913  22.990  17.508  1.00  0.00     0.134 C 
BRANCH  45  46
HETATM   46  C24 UNL     1      -5.298  22.483  17.597  1.00  0.00     0.233 C 
HETATM   47  N4  UNL     1      -6.394  23.417  17.566  1.00  0.00    -0.062 NA
HETATM   48  O4  UNL     1      -5.642  21.282  17.702  1.00  0.00    -0.277 OA
ENDBRANCH  45  46
ENDBRANCH  16  45
TORSDOF 13
ENDMDL
MODEL 3
REMARK VINA RESULT: -6.253714926      2.398      7.781
REMARK  13 active torsions:
REMARK  status: ('A' for Active; 'I' for Inactive)
REMARK    1  A    between atoms: C2_2  and  C3_3 
REMARK    2  A    between atoms: C3_3  and  C4_4 
REMARK    3  A    between atoms: C4_4  and  C5_5 
REMARK    4  A    between atoms: C5_5  and  C6_6 
REMARK    5  A    between atoms: C6_6  and  C7_7 
REMARK    6  A    between atoms: C9_12  and  C10_13 
REMARK    7  A    between atoms: C10_13  and  C11_14 
REMARK    8  A    between atoms: C16_21  and  C17_22 
REMARK    9  A    between atoms: C17_22  and  C18_23 
REMARK   10  A    between atoms: C22_30  and  C23_31 
REMARK   11  A    between atoms: C23_31  and  C24_32 
REMARK   12  A    between atoms: C26_39  and  C27_40 
REMARK   13  A    between atoms: C29_42  and  O6_43 
REMARK       I    between atoms: N6_45  and  C30_46 
ROOT
HETATM    1  C7  UNL     1      -1.428  19.019  18.409  1.00  0.00     0.090 C 
HETATM    2  C8  UNL     1      -0.865  19.161  17.083  1.00  0.00     0.265 C 
HETATM    3  O1  UNL     1       0.274  18.606  16.833  1.00  0.00    -0.266 OA
HETATM    4  N1  UNL     1      -1.385  19.844  15.952  1.00  0.00    -0.343 N 
ATOM      5  H1  UNL     1      -1.504  19.283  15.108  1.00  0.00     0.163 HD
HETATM    6  C9  UNL     1      -1.765  21.230  15.849  1.00  0.00     0.177 C 
HETATM    7  C14 UNL     1      -1.406  21.807  14.499  1.00  0.00     0.243 C 
HETATM    8  O2  UNL     1      -2.188  21.403  13.565  1.00  0.00    -0.271 OA
HETATM    9  N2  UNL     1      -0.377  22.681  14.184  1.00  0.00    -0.341 N 
HETATM   10  C15 UNL     1      -0.756  23.786  13.247  1.00  0.00     0.153 C 
HETATM   11  C16 UNL     1       0.985  22.703  14.657  1.00  0.00     0.179 C 
HETATM   12  C21 UNL     1       0.971  23.330  16.023  1.00  0.00     0.241 C 
HETATM   13  O3  UNL     1       0.380  24.486  15.982  1.00  0.00    -0.271 OA
HETATM   14  N3  UNL     1       1.447  22.913  17.230  1.00  0.00    -0.346 N 
ATOM     15  H3  UNL     1       0.728  22.855  17.951  1.00  0.00     0.163 HD
HETATM   16  C22 UNL     1       2.767  22.534  17.699  1.00  0.00     0.185 C 
HETATM   17  C25 UNL     1       2.819  22.547  19.185  1.00  0.00     0.241 C 
HETATM   18  O5  UNL     1       3.356  23.469  19.862  1.00  0.00    -0.271 OA
HETATM   19  N5  UNL     1       2.243  21.494  19.910  1.00  0.00    -0.347 N 
ATOM     20  H5  UNL     1       2.256  21.532  20.929  1.00  0.00     0.163 HD
HETATM   21  C26 UNL     1       1.623  20.335  19.249  1.00  0.00     0.159 C 
HETATM   22  C29 UNL     1       0.339  20.084  19.938  1.00  0.00     0.149 C 
HETATM   23  N6  UNL     1      -0.964  19.933  19.450  1.00  0.00    -0.246 N 
HETATM   24  C30 UNL     1      -1.955  20.749  20.128  1.00  0.00     0.341 C 
HETATM   25  N7  UNL     1      -3.324  20.542  19.705  1.00  0.00    -0.039 NA
HETATM   26  O7  UNL     1      -1.700  21.576  21.015  1.00  0.00    -0.250 OA
ENDROOT
BRANCH   1  27
HETATM   27  C6  UNL     1      -1.554  17.618  18.984  1.00  0.00     0.064 C 
BRANCH  27  28
HETATM   28  C5  UNL     1      -2.418  16.658  18.303  1.00  0.00     0.006 C 
BRANCH  28  29
HETATM   29  C4  UNL     1      -1.922  15.747  17.265  1.00  0.00     0.000 C 
BRANCH  29  30
HETATM   30  C3  UNL     1      -0.915  14.767  17.835  1.00  0.00    -0.000 C 
BRANCH  30  31
HETATM   31  C2  UNL     1      -0.882  13.501  16.980  1.00  0.00    -0.005 C 
HETATM   32  C1  UNL     1      -1.608  13.675  15.682  1.00  0.00     0.005 C 
ENDBRANCH  30  31
ENDBRANCH  29  30
ENDBRANCH  28  29
ENDBRANCH  27  28
ENDBRANCH   1  27
BRANCH  22  33
HETATM   33  O6  UNL     1       0.528  20.000  21.226  1.00  0.00    -0.347 OA
ATOM     34  H6  UNL     1       0.343  20.835  21.640  1.00  0.00     0.219 HD
ENDBRANCH  22  33
BRANCH   6  35
HETATM   35  C10 UNL     1      -3.309  21.235  15.885  1.00  0.00     0.038 C 
BRANCH  35  36
HETATM   36  C11 UNL     1      -3.843  22.533  16.397  1.00  0.00    -0.020 C 
HETATM   37  C12 UNL     1      -2.971  23.225  17.393  1.00  0.00     0.009 C 
HETATM   38  C13 UNL     1      -5.181  22.224  17.067  1.00  0.00     0.009 C 
ENDBRANCH  35  36
ENDBRANCH   6  35
BRANCH  21  39
HETATM   39  C27 UNL     1       2.576  19.186  19.504  1.00  0.00     0.029 C 
HETATM   40  C28 UNL     1       3.640  19.459  20.505  1.00  0.00     0.007 C 
ENDBRANCH  21  39
BRANCH  11  41
HETATM   41  C17 UNL     1       1.838  21.542  14.475  1.00  0.00     0.039 C 
BRANCH  41  42
HETATM   42  C18 UNL     1       2.492  21.288  13.158  1.00  0.00    -0.020 C 
HETATM   43  C19 UNL     1       1.642  20.669  12.101  1.00  0.00     0.009 C 
HETATM   44  C20 UNL     1       3.202  22.531  12.629  1.00  0.00     0.009 C 
ENDBRANCH  41  42
ENDBRANCH  11  41
BRANCH  16  45
HETATM   45  C23 UNL     1       3.849  23.473  17.212  1.00  0.00     0.134 C 
BRANCH  45  46
HETATM   46  C24 UNL     1       5.068  22.689  16.925  1.00  0.00     0.233 C 
HETATM   47  N4  UNL     1       5.243  22.111  15.618  1.00  0.00    -0.062 NA
HETATM   48  O4  UNL     1       6.007  22.460  17.724  1.00  0.00    -0.277 OA
ENDBRANCH  45  46
ENDBRANCH  16  45
TORSDOF 13
ENDMDL
MODEL 4
REMARK VINA RESULT: -6.180251621      2.198      7.801
REMARK  13 active torsions:
REMARK  status: ('A' for Active; 'I' for Inactive)
REMARK    1  A    between atoms: C2_2  and  C3_3 
REMARK    2  A    between atoms: C3_3  and  C4_4 
REMARK    3  A    between atoms: C4_4  and  C5_5 
REMARK    4  A    between atoms: C5_5  and  C6_6 
REMARK    5  A    between atoms: C6_6  and  C7_7 
REMARK    6  A    between atoms: C9_12  and  C10_13 
REMARK    7  A    between atoms: C10_13  and  C11_14 
REMARK    8  A    between atoms: C16_21  and  C17_22 
REMARK    9  A    between atoms: C17_22  and  C18_23 
REMARK   10  A    between atoms: C22_30  and  C23_31 
REMARK   11  A    between atoms: C23_31  and  C24_32 
REMARK   12  A    between atoms: C26_39  and  C27_40 
REMARK   13  A    between atoms: C29_42  and  O6_43 
REMARK       I    between atoms: N6_45  and  C30_46 
ROOT
HETATM    1  C7  UNL     1      -1.663  18.912  18.406  1.00  0.00     0.090 C 
HETATM    2  C8  UNL     1      -0.774  19.096  17.279  1.00  0.00     0.265 C 
HETATM    3  O1  UNL     1       0.401  18.559  17.324  1.00  0.00    -0.266 OA
HETATM    4  N1  UNL     1      -0.989  19.805  16.068  1.00  0.00    -0.343 N 
ATOM      5  H1  UNL     1      -0.873  19.267  15.209  1.00  0.00     0.163 HD
HETATM    6  C9  UNL     1      -1.352  21.190  15.902  1.00  0.00     0.177 C 
HETATM    7  C14 UNL     1      -0.661  21.808  14.709  1.00  0.00     0.243 C 
HETATM    8  O2  UNL     1      -1.164  21.422  13.592  1.00  0.00    -0.271 OA
HETATM    9  N2  UNL     1       0.399  22.700  14.697  1.00  0.00    -0.341 N 
HETATM   10  C15 UNL     1       0.261  23.827  13.721  1.00  0.00     0.153 C 
HETATM   11  C16 UNL     1       1.589  22.723  15.512  1.00  0.00     0.179 C 
HETATM   12  C21 UNL     1       1.206  23.311  16.841  1.00  0.00     0.241 C 
HETATM   13  O3  UNL     1       0.626  24.462  16.673  1.00  0.00    -0.271 OA
HETATM   14  N3  UNL     1       1.355  22.865  18.120  1.00  0.00    -0.346 N 
ATOM     15  H3  UNL     1       0.473  22.780  18.625  1.00  0.00     0.163 HD
HETATM   16  C22 UNL     1       2.511  22.487  18.910  1.00  0.00     0.185 C 
HETATM   17  C25 UNL     1       2.171  22.458  20.357  1.00  0.00     0.241 C 
HETATM   18  O5  UNL     1       2.496  23.366  21.174  1.00  0.00    -0.271 OA
HETATM   19  N5  UNL     1       1.443  21.380  20.880  1.00  0.00    -0.347 N 
ATOM     20  H5  UNL     1       1.187  21.390  21.867  1.00  0.00     0.163 HD
HETATM   21  C26 UNL     1       1.038  20.233  20.051  1.00  0.00     0.159 C 
HETATM   22  C29 UNL     1      -0.378  19.950  20.372  1.00  0.00     0.149 C 
HETATM   23  N6  UNL     1      -1.504  19.801  19.554  1.00  0.00    -0.246 N 
HETATM   24  C30 UNL     1      -2.652  20.588  19.967  1.00  0.00     0.341 C 
HETATM   25  N7  UNL     1      -3.858  20.379  19.194  1.00  0.00    -0.039 NA
HETATM   26  O7  UNL     1      -2.652  21.392  20.910  1.00  0.00    -0.250 OA
ENDROOT
BRANCH   1  27
HETATM   27  C6  UNL     1      -1.911  17.494  18.894  1.00  0.00     0.064 C 
BRANCH  27  28
HETATM   28  C5  UNL     1      -2.699  16.594  18.055  1.00  0.00     0.006 C 
BRANCH  28  29
HETATM   29  C4  UNL     1      -2.085  15.660  17.105  1.00  0.00     0.000 C 
BRANCH  29  30
HETATM   30  C3  UNL     1      -0.969  14.870  17.760  1.00  0.00    -0.000 C 
BRANCH  30  31
HETATM   31  C2  UNL     1      -0.794  13.530  17.048  1.00  0.00    -0.005 C 
HETATM   32  C1  UNL     1      -1.476  13.505  15.715  1.00  0.00     0.005 C 
ENDBRANCH  30  31
ENDBRANCH  29  30
ENDBRANCH  28  29
ENDBRANCH  27  28
ENDBRANCH   1  27
BRANCH  22  33
HETATM   33  O6  UNL     1      -0.532  19.833  21.662  1.00  0.00    -0.347 OA
ATOM     34  H6  UNL     1      -1.316  19.332  21.854  1.00  0.00     0.219 HD
ENDBRANCH  22  33
BRANCH   6  35
HETATM   35  C10 UNL     1      -2.852  21.178  15.531  1.00  0.00     0.038 C 
BRANCH  35  36
HETATM   36  C11 UNL     1      -3.521  22.461  15.906  1.00  0.00    -0.020 C 
HETATM   37  C12 UNL     1      -2.958  23.137  17.113  1.00  0.00     0.009 C 
HETATM   38  C13 UNL     1      -4.986  22.127  16.185  1.00  0.00     0.009 C 
ENDBRANCH  35  36
ENDBRANCH   6  35
BRANCH  21  39
HETATM   39  C27 UNL     1       1.910  19.088  20.520  1.00  0.00     0.029 C 
HETATM   40  C28 UNL     1       3.183  18.916  19.773  1.00  0.00     0.007 C 
ENDBRANCH  21  39
BRANCH  11  41
HETATM   41  C17 UNL     1       2.479  21.576  15.533  1.00  0.00     0.039 C 
BRANCH  41  42
HETATM   42  C18 UNL     1       3.925  21.741  15.201  1.00  0.00    -0.020 C 
HETATM   43  C19 UNL     1       4.540  20.675  14.359  1.00  0.00     0.009 C 
HETATM   44  C20 UNL     1       4.222  23.126  14.633  1.00  0.00     0.009 C 
ENDBRANCH  41  42
ENDBRANCH  11  41
BRANCH  16  45
HETATM   45  C23 UNL     1       3.667  23.449  18.748  1.00  0.00     0.134 C 
BRANCH  45  46
HETATM   46  C24 UNL     1       4.933  22.687  18.778  1.00  0.00     0.233 C 
HETATM   47  N4  UNL     1       5.924  22.927  17.761  1.00  0.00    -0.062 NA
HETATM   48  O4  UNL     1       5.255  21.817  19.621  1.00  0.00    -0.277 OA
ENDBRANCH  45  46
ENDBRANCH  16  45
TORSDOF 13
ENDMDL
MODEL 5
REMARK VINA RESULT: -6.044509312      1.552      1.878
REMARK  13 active torsions:
REMARK  status: ('A' for Active; 'I' for Inactive)
REMARK    1  A    between atoms: C2_2  and  C3_3 
REMARK    2  A    between atoms: C3_3  and  C4_4 
REMARK    3  A    between atoms: C4_4  and  C5_5 
REMARK    4  A    between atoms: C5_5  and  C6_6 
REMARK    5  A    between atoms: C6_6  and  C7_7 
REMARK    6  A    between atoms: C9_12  and  C10_13 
REMARK    7  A    between atoms: C10_13  and  C11_14 
REMARK    8  A    between atoms: C16_21  and  C17_22 
REMARK    9  A    between atoms: C17_22  and  C18_23 
REMARK   10  A    between atoms: C22_30  and  C23_31 
REMARK   11  A    between atoms: C23_31  and  C24_32 
REMARK   12  A    between atoms: C26_39  and  C27_40 
REMARK   13  A    between atoms: C29_42  and  O6_43 
REMARK       I    between atoms: N6_45  and  C30_46 
ROOT
HETATM    1  C7  UNL     1       2.606  21.294  17.662  1.00  0.00     0.090 C 
HETATM    2  C8  UNL     1       1.808  20.089  17.732  1.00  0.00     0.265 C 
HETATM    3  O1  UNL     1       1.202  19.687  16.665  1.00  0.00    -0.266 OA
HETATM    4  N1  UNL     1       1.570  19.229  18.836  1.00  0.00    -0.343 N 
ATOM      5  H1  UNL     1       1.820  18.250  18.701  1.00  0.00     0.163 HD
HETATM    6  C9  UNL     1       1.018  19.569  20.124  1.00  0.00     0.177 C 
HETATM    7  C14 UNL     1       0.116  18.478  20.649  1.00  0.00     0.243 C 
HETATM    8  O2  UNL     1       0.769  17.455  21.070  1.00  0.00    -0.271 OA
HETATM    9  N2  UNL     1      -1.268  18.468  20.722  1.00  0.00    -0.341 N 
HETATM   10  C15 UNL     1      -1.827  17.929  22.002  1.00  0.00     0.153 C 
HETATM   11  C16 UNL     1      -2.241  18.938  19.766  1.00  0.00     0.179 C 
HETATM   12  C21 UNL     1      -2.318  20.432  19.908  1.00  0.00     0.241 C 
HETATM   13  O3  UNL     1      -2.555  20.755  21.144  1.00  0.00    -0.271 OA
HETATM   14  N3  UNL     1      -2.188  21.448  19.009  1.00  0.00    -0.346 N 
ATOM     15  H3  UNL     1      -1.445  22.106  19.245  1.00  0.00     0.163 HD
HETATM   16  C22 UNL     1      -2.889  21.785  17.785  1.00  0.00     0.185 C 
HETATM   17  C25 UNL     1      -2.627  23.198  17.402  1.00  0.00     0.241 C 
HETATM   18  O5  UNL     1      -3.452  24.139  17.580  1.00  0.00    -0.271 OA
HETATM   19  N5  UNL     1      -1.403  23.544  16.813  1.00  0.00    -0.347 N 
ATOM     20  H5  UNL     1      -1.224  24.522  16.587  1.00  0.00     0.163 HD
HETATM   21  C26 UNL     1      -0.370  22.541  16.508  1.00  0.00     0.159 C 
HETATM   22  C29 UNL     1       0.920  23.101  16.965  1.00  0.00     0.149 C 
HETATM   23  N6  UNL     1       1.919  22.577  17.793  1.00  0.00    -0.246 N 
HETATM   24  C30 UNL     1       2.345  23.469  18.856  1.00  0.00     0.341 C 
HETATM   25  N7  UNL     1       3.443  22.989  19.668  1.00  0.00    -0.039 NA
HETATM   26  O7  UNL     1       1.840  24.576  19.091  1.00  0.00    -0.250 OA
ENDROOT
BRANCH   1  27
HETATM   27  C6  UNL     1       3.657  21.392  16.568  1.00  0.00     0.064 C 
BRANCH  27  28
HETATM   28  C5  UNL     1       3.218  21.644  15.198  1.00  0.00     0.006 C 
BRANCH  28  29
HETATM   29  C4  UNL     1       3.872  21.035  14.034  1.00  0.00     0.000 C 
BRANCH  29  30
HETATM   30  C3  UNL     1       5.308  21.505  13.908  1.00  0.00    -0.000 C 
BRANCH  30  31
HETATM   31  C2  UNL     1       6.252  20.304  13.944  1.00  0.00    -0.005 C 
HETATM   32  C1  UNL     1       7.242  20.330  12.821  1.00  0.00     0.005 C 
ENDBRANCH  30  31
ENDBRANCH  29  30
ENDBRANCH  28  29
ENDBRANCH  27  28
ENDBRANCH   1  27
BRANCH  22  33
HETATM   33  O6  UNL     1       1.091  24.297  16.474  1.00  0.00    -0.347 OA
ATOM     34  H6  UNL     1       1.532  24.852  17.106  1.00  0.00     0.219 HD
ENDBRANCH  22  33
BRANCH   6  35
HETATM   35  C10 UNL     1       2.223  19.590  21.092  1.00  0.00     0.038 C 
BRANCH  35  36
HETATM   36  C11 UNL     1       1.965  20.470  22.272  1.00  0.00    -0.020 C 
HETATM   37  C12 UNL     1       1.081  21.643  22.002  1.00  0.00     0.009 C 
HETATM   38  C13 UNL     1       3.325  20.992  22.735  1.00  0.00     0.009 C 
ENDBRANCH  35  36
ENDBRANCH   6  35
BRANCH  21  39
HETATM   39  C27 UNL     1      -0.374  22.427  14.997  1.00  0.00     0.029 C 
HETATM   40  C28 UNL     1      -1.291  21.397  14.445  1.00  0.00     0.007 C 
ENDBRANCH  21  39
BRANCH  11  41
HETATM   41  C17 UNL     1      -2.251  18.404  18.415  1.00  0.00     0.039 C 
BRANCH  41  42
HETATM   42  C18 UNL     1      -2.069  16.941  18.184  1.00  0.00    -0.020 C 
HETATM   43  C19 UNL     1      -3.095  16.269  17.336  1.00  0.00     0.009 C 
HETATM   44  C20 UNL     1      -0.660  16.614  17.698  1.00  0.00     0.009 C 
ENDBRANCH  41  42
ENDBRANCH  11  41
BRANCH  16  45
HETATM   45  C23 UNL     1      -4.389  21.634  17.913  1.00  0.00     0.134 C 
BRANCH  45  46
HETATM   46  C24 UNL     1      -4.912  20.994  16.688  1.00  0.00     0.233 C 
HETATM   47  N4  UNL     1      -4.968  19.558  16.613  1.00  0.00    -0.062 NA
HETATM   48  O4  UNL     1      -5.330  21.585  15.664  1.00  0.00    -0.277 OA
ENDBRANCH  45  46
ENDBRANCH  16  45
TORSDOF 13
ENDMDL
