MODEL 1
REMARK VINA RESULT: -7.327191815      0.000      0.000
REMARK  14 active torsions:
REMARK  status: ('A' for Active; 'I' for Inactive)
REMARK    1  A    between atoms: S1_2  and  C2_3 
REMARK    2  A    between atoms: C2_3  and  C3_4 
REMARK    3  A    between atoms: C3_4  and  C4_5 
REMARK    4  A    between atoms: C4_5  and  C5_6 
REMARK    5  A    between atoms: C5_6  and  C6_7 
REMARK    6  A    between atoms: C6_7  and  C7_8 
REMARK    7  A    between atoms: C13_19  and  O2_20 
REMARK    8  A    between atoms: C14_22  and  C15_23 
REMARK    9  A    between atoms: C15_23  and  C16_24 
REMARK   10  A    between atoms: C16_24  and  C17_25 
REMARK   11  A    between atoms: C24_35  and  C25_36 
REMARK   12  A    between atoms: C25_36  and  C26_37 
REMARK   13  A    between atoms: C26_37  and  C27_38 
REMARK   14  A    between atoms: C27_38  and  N4_39 
ROOT
HETATM    1  C7  UNL     1       0.458  20.451  20.923  1.00  0.00     0.177 C 
HETATM    2  N1  UNL     1       1.503  19.638  20.350  1.00  0.00    -0.337 N 
ATOM      3  H1  UNL     1       1.203  18.711  20.049  1.00  0.00     0.164 HD
HETATM    4  C8  UNL     1       2.871  19.913  20.135  1.00  0.00     0.297 C 
HETATM    5  O1  UNL     1       3.689  19.049  20.640  1.00  0.00    -0.258 OA
HETATM    6  C9  UNL     1       3.469  20.960  19.468  1.00  0.00    -0.001 C 
HETATM    7  C10 UNL     1       3.951  21.800  18.890  1.00  0.00    -0.067 C 
HETATM    8  C11 UNL     1       4.533  22.799  18.153  1.00  0.00     0.082 C 
HETATM    9  C12 UNL     1       4.032  23.547  17.188  1.00  0.00     0.098 C 
HETATM   10  N2  UNL     1       2.781  23.587  16.592  1.00  0.00    -0.348 N 
ATOM     11  H2  UNL     1       2.300  24.464  16.789  1.00  0.00     0.167 HD
HETATM   12  C13 UNL     1       2.012  22.750  15.799  1.00  0.00     0.138 C 
HETATM   13  C14 UNL     1       1.907  21.283  15.750  1.00  0.00     0.159 C 
HETATM   14  N3  UNL     1       0.530  20.904  15.464  1.00  0.00    -0.347 N 
ATOM     15  H3  UNL     1       0.270  20.821  14.480  1.00  0.00     0.163 HD
HETATM   16  C23 UNL     1      -0.479  20.641  16.415  1.00  0.00     0.241 C 
HETATM   17  O3  UNL     1      -1.592  21.167  16.203  1.00  0.00    -0.271 OA
HETATM   18  C24 UNL     1      -0.331  19.802  17.635  1.00  0.00     0.178 C 
HETATM   19  N7  UNL     1      -1.059  20.252  18.783  1.00  0.00    -0.341 N 
HETATM   20  C29 UNL     1      -2.519  20.056  18.780  1.00  0.00     0.153 C 
HETATM   21  C30 UNL     1      -0.560  20.907  19.937  1.00  0.00     0.243 C 
HETATM   22  O4  UNL     1      -1.099  22.071  20.122  1.00  0.00    -0.271 OA
ENDROOT
BRANCH  13  23
HETATM   23  C15 UNL     1       2.739  20.829  14.541  1.00  0.00     0.038 C 
BRANCH  23  24
HETATM   24  C16 UNL     1       4.104  20.352  14.990  1.00  0.00     0.041 C 
BRANCH  24  25
HETATM   25  C17 UNL     1       5.106  20.947  14.069  1.00  0.00    -0.058 A 
HETATM   26  C18 UNL     1       4.881  22.131  13.414  1.00  0.00     0.007 A 
HETATM   27  C19 UNL     1       5.803  22.698  12.553  1.00  0.00     0.001 A 
HETATM   28  C20 UNL     1       7.001  22.058  12.332  1.00  0.00     0.000 A 
HETATM   29  C21 UNL     1       7.263  20.863  12.973  1.00  0.00     0.001 A 
HETATM   30  C22 UNL     1       6.310  20.314  13.841  1.00  0.00     0.007 A 
ENDBRANCH  24  25
ENDBRANCH  23  24
ENDBRANCH  13  23
BRANCH  12  31
HETATM   31  O2  UNL     1       1.224  23.339  14.926  1.00  0.00    -0.348 OA
ATOM     32  H2  UNL     1       0.488  22.827  14.614  1.00  0.00     0.219 HD
ENDBRANCH  12  31
BRANCH  18  33
HETATM   33  C25 UNL     1      -0.425  18.339  17.354  1.00  0.00     0.037 C 
BRANCH  33  34
HETATM   34  C26 UNL     1      -0.073  17.385  18.433  1.00  0.00     0.022 C 
BRANCH  34  35
HETATM   35  C27 UNL     1      -1.260  16.393  18.609  1.00  0.00     0.122 C 
BRANCH  35  36
HETATM   36  N4  UNL     1      -0.873  15.072  18.249  1.00  0.00    -0.367 N 
HETATM   37  C28 UNL     1      -1.032  14.481  17.137  1.00  0.00     0.196 C 
HETATM   38  N5  UNL     1      -0.613  13.162  16.872  1.00  0.00    -0.067 NA
HETATM   39  N6  UNL     1      -1.676  15.185  16.078  1.00  0.00    -0.067 NA
ATOM     40  H4  UNL     1      -0.408  14.530  18.977  1.00  0.00     0.161 HD
ENDBRANCH  35  36
ENDBRANCH  34  35
ENDBRANCH  33  34
ENDBRANCH  18  33
BRANCH   1  41
HETATM   41  C6  UNL     1      -0.209  19.757  22.095  1.00  0.00     0.035 C 
BRANCH  41  42
HETATM   42  C5  UNL     1      -0.529  18.336  21.915  1.00  0.00     0.002 C 
BRANCH  42  43
HETATM   43  C4  UNL     1      -2.004  17.974  21.918  1.00  0.00     0.001 C 
BRANCH  43  44
HETATM   44  C3  UNL     1      -2.620  18.245  23.262  1.00  0.00     0.010 C 
BRANCH  44  45
HETATM   45  C2  UNL     1      -2.059  17.381  24.326  1.00  0.00     0.073 C 
BRANCH  45  46
HETATM   46  S1  UNL     1      -1.390  18.262  25.722  1.00  0.00    -0.173 SA
HETATM   47  C1  UNL     1       0.407  18.261  25.714  1.00  0.00     0.089 C 
ENDBRANCH  45  46
ENDBRANCH  44  45
ENDBRANCH  43  44
ENDBRANCH  42  43
ENDBRANCH  41  42
ENDBRANCH   1  41
TORSDOF 14
ENDMDL
MODEL 2
REMARK VINA RESULT: -7.263582379      0.762      1.077
REMARK  14 active torsions:
REMARK  status: ('A' for Active; 'I' for Inactive)
REMARK    1  A    between atoms: S1_2  and  C2_3 
REMARK    2  A    between atoms: C2_3  and  C3_4 
REMARK    3  A    between atoms: C3_4  and  C4_5 
REMARK    4  A    between atoms: C4_5  and  C5_6 
REMARK    5  A    between atoms: C5_6  and  C6_7 
REMARK    6  A    between atoms: C6_7  and  C7_8 
REMARK    7  A    between atoms: C13_19  and  O2_20 
REMARK    8  A    between atoms: C14_22  and  C15_23 
REMARK    9  A    between atoms: C15_23  and  C16_24 
REMARK   10  A    between atoms: C16_24  and  C17_25 
REMARK   11  A    between atoms: C24_35  and  C25_36 
REMARK   12  A    between atoms: C25_36  and  C26_37 
REMARK   13  A    between atoms: C26_37  and  C27_38 
REMARK   14  A    between atoms: C27_38  and  N4_39 
ROOT
HETATM    1  C7  UNL     1       0.493  20.466  20.886  1.00  0.00     0.177 C 
HETATM    2  N1  UNL     1       1.540  19.651  20.321  1.00  0.00    -0.337 N 
ATOM      3  H1  UNL     1       1.240  18.725  20.016  1.00  0.00     0.164 HD
HETATM    4  C8  UNL     1       2.912  19.921  20.120  1.00  0.00     0.297 C 
HETATM    5  O1  UNL     1       3.722  19.054  20.631  1.00  0.00    -0.258 OA
HETATM    6  C9  UNL     1       3.520  20.968  19.460  1.00  0.00    -0.001 C 
HETATM    7  C10 UNL     1       4.010  21.806  18.887  1.00  0.00    -0.067 C 
HETATM    8  C11 UNL     1       4.601  22.804  18.157  1.00  0.00     0.082 C 
HETATM    9  C12 UNL     1       4.112  23.554  17.187  1.00  0.00     0.098 C 
HETATM   10  N2  UNL     1       2.867  23.599  16.580  1.00  0.00    -0.348 N 
ATOM     11  H2  UNL     1       2.387  24.478  16.773  1.00  0.00     0.167 HD
HETATM   12  C13 UNL     1       2.103  22.766  15.779  1.00  0.00     0.138 C 
HETATM   13  C14 UNL     1       1.993  21.300  15.727  1.00  0.00     0.159 C 
HETATM   14  N3  UNL     1       0.618  20.926  15.428  1.00  0.00    -0.347 N 
ATOM     15  H3  UNL     1       0.367  20.844  14.442  1.00  0.00     0.163 HD
HETATM   16  C23 UNL     1      -0.401  20.664  16.369  1.00  0.00     0.241 C 
HETATM   17  O3  UNL     1      -1.511  21.194  16.147  1.00  0.00    -0.271 OA
HETATM   18  C24 UNL     1      -0.267  19.823  17.589  1.00  0.00     0.178 C 
HETATM   19  N7  UNL     1      -1.004  20.275  18.731  1.00  0.00    -0.341 N 
HETATM   20  C29 UNL     1      -2.465  20.084  18.714  1.00  0.00     0.153 C 
HETATM   21  C30 UNL     1      -0.514  20.927  19.891  1.00  0.00     0.243 C 
HETATM   22  O4  UNL     1      -1.051  22.092  20.072  1.00  0.00    -0.271 OA
ENDROOT
BRANCH  13  23
HETATM   23  C15 UNL     1       2.835  20.844  14.526  1.00  0.00     0.038 C 
BRANCH  23  24
HETATM   24  C16 UNL     1       4.200  20.377  14.985  1.00  0.00     0.041 C 
BRANCH  24  25
HETATM   25  C17 UNL     1       5.202  20.951  14.052  1.00  0.00    -0.058 A 
HETATM   26  C18 UNL     1       5.014  22.162  13.435  1.00  0.00     0.007 A 
HETATM   27  C19 UNL     1       5.936  22.709  12.562  1.00  0.00     0.001 A 
HETATM   28  C20 UNL     1       7.098  22.022  12.290  1.00  0.00     0.000 A 
HETATM   29  C21 UNL     1       7.322  20.800  12.892  1.00  0.00     0.001 A 
HETATM   30  C22 UNL     1       6.369  20.271  13.772  1.00  0.00     0.007 A 
ENDBRANCH  24  25
ENDBRANCH  23  24
ENDBRANCH  13  23
BRANCH  12  31
HETATM   31  O2  UNL     1       1.325  23.358  14.900  1.00  0.00    -0.348 OA
ATOM     32  H2  UNL     1       0.392  23.326  15.076  1.00  0.00     0.219 HD
ENDBRANCH  12  31
BRANCH  18  33
HETATM   33  C25 UNL     1      -0.363  18.362  17.306  1.00  0.00     0.037 C 
BRANCH  33  34
HETATM   34  C26 UNL     1      -0.024  17.405  18.387  1.00  0.00     0.022 C 
BRANCH  34  35
HETATM   35  C27 UNL     1      -1.232  16.442  18.579  1.00  0.00     0.122 C 
BRANCH  35  36
HETATM   36  N4  UNL     1      -0.874  15.108  18.236  1.00  0.00    -0.367 N 
HETATM   37  C28 UNL     1      -1.052  14.504  17.133  1.00  0.00     0.196 C 
HETATM   38  N5  UNL     1      -0.662  13.173  16.886  1.00  0.00    -0.067 NA
HETATM   39  N6  UNL     1      -1.687  15.206  16.067  1.00  0.00    -0.067 NA
ATOM     40  H4  UNL     1      -0.417  14.567  18.970  1.00  0.00     0.161 HD
ENDBRANCH  35  36
ENDBRANCH  34  35
ENDBRANCH  33  34
ENDBRANCH  18  33
BRANCH   1  41
HETATM   41  C6  UNL     1      -0.188  19.774  22.051  1.00  0.00     0.035 C 
BRANCH  41  42
HETATM   42  C5  UNL     1      -0.560  18.369  21.846  1.00  0.00     0.002 C 
BRANCH  42  43
HETATM   43  C4  UNL     1      -2.021  18.021  22.071  1.00  0.00     0.001 C 
BRANCH  43  44
HETATM   44  C3  UNL     1      -2.279  17.697  23.515  1.00  0.00     0.010 C 
BRANCH  44  45
HETATM   45  C2  UNL     1      -3.468  18.403  24.049  1.00  0.00     0.073 C 
BRANCH  45  46
HETATM   46  S1  UNL     1      -3.963  17.892  25.682  1.00  0.00    -0.173 SA
HETATM   47  C1  UNL     1      -5.723  17.536  25.766  1.00  0.00     0.089 C 
ENDBRANCH  45  46
ENDBRANCH  44  45
ENDBRANCH  43  44
ENDBRANCH  42  43
ENDBRANCH  41  42
ENDBRANCH   1  41
TORSDOF 14
ENDMDL
MODEL 3
REMARK VINA RESULT: -7.027808702      1.592      2.388
REMARK  14 active torsions:
REMARK  status: ('A' for Active; 'I' for Inactive)
REMARK    1  A    between atoms: S1_2  and  C2_3 
REMARK    2  A    between atoms: C2_3  and  C3_4 
REMARK    3  A    between atoms: C3_4  and  C4_5 
REMARK    4  A    between atoms: C4_5  and  C5_6 
REMARK    5  A    between atoms: C5_6  and  C6_7 
REMARK    6  A    between atoms: C6_7  and  C7_8 
REMARK    7  A    between atoms: C13_19  and  O2_20 
REMARK    8  A    between atoms: C14_22  and  C15_23 
REMARK    9  A    between atoms: C15_23  and  C16_24 
REMARK   10  A    between atoms: C16_24  and  C17_25 
REMARK   11  A    between atoms: C24_35  and  C25_36 
REMARK   12  A    between atoms: C25_36  and  C26_37 
REMARK   13  A    between atoms: C26_37  and  C27_38 
REMARK   14  A    between atoms: C27_38  and  N4_39 
ROOT
HETATM    1  C7  UNL     1       0.353  19.737  20.957  1.00  0.00     0.177 C 
HETATM    2  N1  UNL     1       1.407  19.039  20.263  1.00  0.00    -0.337 N 
ATOM      3  H1  UNL     1       1.130  18.145  19.857  1.00  0.00     0.164 HD
HETATM    4  C8  UNL     1       2.759  19.387  20.051  1.00  0.00     0.297 C 
HETATM    5  O1  UNL     1       3.619  18.498  20.426  1.00  0.00    -0.258 OA
HETATM    6  C9  UNL     1       3.303  20.530  19.504  1.00  0.00    -0.001 C 
HETATM    7  C10 UNL     1       3.741  21.450  19.022  1.00  0.00    -0.067 C 
HETATM    8  C11 UNL     1       4.268  22.552  18.401  1.00  0.00     0.082 C 
HETATM    9  C12 UNL     1       3.715  23.394  17.547  1.00  0.00     0.098 C 
HETATM   10  N2  UNL     1       2.448  23.462  16.991  1.00  0.00    -0.348 N 
ATOM     11  H2  UNL     1       1.944  24.290  17.306  1.00  0.00     0.167 HD
HETATM   12  C13 UNL     1       1.685  22.701  16.119  1.00  0.00     0.138 C 
HETATM   13  C14 UNL     1       1.627  21.248  15.892  1.00  0.00     0.159 C 
HETATM   14  N3  UNL     1       0.256  20.857  15.595  1.00  0.00    -0.347 N 
ATOM     15  H3  UNL     1      -0.029  20.886  14.615  1.00  0.00     0.163 HD
HETATM   16  C23 UNL     1      -0.716  20.443  16.530  1.00  0.00     0.241 C 
HETATM   17  O3  UNL     1      -1.852  20.950  16.411  1.00  0.00    -0.271 OA
HETATM   18  C24 UNL     1      -0.507  19.467  17.633  1.00  0.00     0.178 C 
HETATM   19  N7  UNL     1      -1.217  19.747  18.845  1.00  0.00    -0.341 N 
HETATM   20  C29 UNL     1      -2.669  19.500  18.853  1.00  0.00     0.153 C 
HETATM   21  C30 UNL     1      -0.707  20.273  20.059  1.00  0.00     0.243 C 
HETATM   22  O4  UNL     1      -1.279  21.385  20.399  1.00  0.00    -0.271 OA
ENDROOT
BRANCH  13  23
HETATM   23  C15 UNL     1       2.439  20.975  14.617  1.00  0.00     0.038 C 
BRANCH  23  24
HETATM   24  C16 UNL     1       3.771  20.344  14.965  1.00  0.00     0.041 C 
BRANCH  24  25
HETATM   25  C17 UNL     1       4.799  20.973  14.099  1.00  0.00    -0.058 A 
HETATM   26  C18 UNL     1       6.049  20.432  13.941  1.00  0.00     0.007 A 
HETATM   27  C19 UNL     1       7.019  21.007  13.140  1.00  0.00     0.001 A 
HETATM   28  C20 UNL     1       6.733  22.173  12.466  1.00  0.00     0.000 A 
HETATM   29  C21 UNL     1       5.485  22.748  12.601  1.00  0.00     0.001 A 
HETATM   30  C22 UNL     1       4.523  22.142  13.420  1.00  0.00     0.007 A 
ENDBRANCH  24  25
ENDBRANCH  23  24
ENDBRANCH  13  23
BRANCH  12  31
HETATM   31  O2  UNL     1       0.854  23.363  15.345  1.00  0.00    -0.348 OA
ATOM     32  H2  UNL     1      -0.014  23.519  15.698  1.00  0.00     0.219 HD
ENDBRANCH  12  31
BRANCH  18  33
HETATM   33  C25 UNL     1      -0.560  18.047  17.176  1.00  0.00     0.037 C 
BRANCH  33  34
HETATM   34  C26 UNL     1      -0.444  16.971  18.190  1.00  0.00     0.022 C 
BRANCH  34  35
HETATM   35  C27 UNL     1      -1.639  15.993  17.999  1.00  0.00     0.122 C 
BRANCH  35  36
HETATM   36  N4  UNL     1      -1.592  15.380  16.715  1.00  0.00    -0.367 N 
HETATM   37  C28 UNL     1      -1.637  14.144  16.432  1.00  0.00     0.196 C 
HETATM   38  N5  UNL     1      -1.583  13.628  15.121  1.00  0.00    -0.067 NA
HETATM   39  N6  UNL     1      -1.747  13.204  17.498  1.00  0.00    -0.067 NA
ATOM     40  H4  UNL     1      -1.513  16.016  15.921  1.00  0.00     0.161 HD
ENDBRANCH  35  36
ENDBRANCH  34  35
ENDBRANCH  33  34
ENDBRANCH  18  33
BRANCH   1  41
HETATM   41  C6  UNL     1      -0.258  18.882  22.050  1.00  0.00     0.035 C 
BRANCH  41  42
HETATM   42  C5  UNL     1       0.163  19.181  23.424  1.00  0.00     0.002 C 
BRANCH  42  43
HETATM   43  C4  UNL     1       0.612  20.606  23.693  1.00  0.00     0.001 C 
BRANCH  43  44
HETATM   44  C3  UNL     1       2.066  20.649  24.070  1.00  0.00     0.010 C 
BRANCH  44  45
HETATM   45  C2  UNL     1       2.878  21.419  23.100  1.00  0.00     0.073 C 
BRANCH  45  46
HETATM   46  S1  UNL     1       4.551  21.740  23.623  1.00  0.00    -0.173 SA
HETATM   47  C1  UNL     1       5.702  21.700  22.242  1.00  0.00     0.089 C 
ENDBRANCH  45  46
ENDBRANCH  44  45
ENDBRANCH  43  44
ENDBRANCH  42  43
ENDBRANCH  41  42
ENDBRANCH   1  41
TORSDOF 14
ENDMDL
MODEL 4
REMARK VINA RESULT: -7.010598751      1.429      1.964
REMARK  14 active torsions:
REMARK  status: ('A' for Active; 'I' for Inactive)
REMARK    1  A    between atoms: S1_2  and  C2_3 
REMARK    2  A    between atoms: C2_3  and  C3_4 
REMARK    3  A    between atoms: C3_4  and  C4_5 
REMARK    4  A    between atoms: C4_5  and  C5_6 
REMARK    5  A    between atoms: C5_6  and  C6_7 
REMARK    6  A    between atoms: C6_7  and  C7_8 
REMARK    7  A    between atoms: C13_19  and  O2_20 
REMARK    8  A    between atoms: C14_22  and  C15_23 
REMARK    9  A    between atoms: C15_23  and  C16_24 
REMARK   10  A    between atoms: C16_24  and  C17_25 
REMARK   11  A    between atoms: C24_35  and  C25_36 
REMARK   12  A    between atoms: C25_36  and  C26_37 
REMARK   13  A    between atoms: C26_37  and  C27_38 
REMARK   14  A    between atoms: C27_38  and  N4_39 
ROOT
HETATM    1  C7  UNL     1      -1.701  19.762  20.687  1.00  0.00     0.177 C 
HETATM    2  N1  UNL     1      -0.799  18.774  20.148  1.00  0.00    -0.337 N 
ATOM      3  H1  UNL     1      -1.253  18.025  19.625  1.00  0.00     0.164 HD
HETATM    4  C8  UNL     1       0.607  18.671  20.224  1.00  0.00     0.297 C 
HETATM    5  O1  UNL     1       1.050  17.546  20.679  1.00  0.00    -0.258 OA
HETATM    6  C9  UNL     1       1.581  19.587  19.886  1.00  0.00    -0.001 C 
HETATM    7  C10 UNL     1       2.373  20.326  19.574  1.00  0.00    -0.067 C 
HETATM    8  C11 UNL     1       3.333  21.209  19.156  1.00  0.00     0.082 C 
HETATM    9  C12 UNL     1       3.258  22.200  18.286  1.00  0.00     0.098 C 
HETATM   10  N2  UNL     1       2.218  22.683  17.509  1.00  0.00    -0.348 N 
ATOM     11  H2  UNL     1       1.945  23.624  17.791  1.00  0.00     0.167 HD
HETATM   12  C13 UNL     1       1.451  22.225  16.449  1.00  0.00     0.138 C 
HETATM   13  C14 UNL     1       0.989  20.873  16.096  1.00  0.00     0.159 C 
HETATM   14  N3  UNL     1      -0.343  20.951  15.514  1.00  0.00    -0.347 N 
ATOM     15  H3  UNL     1      -0.398  21.088  14.505  1.00  0.00     0.163 HD
HETATM   16  C23 UNL     1      -1.566  20.856  16.212  1.00  0.00     0.241 C 
HETATM   17  O3  UNL     1      -2.437  21.704  15.925  1.00  0.00    -0.271 OA
HETATM   18  C24 UNL     1      -1.903  19.844  17.250  1.00  0.00     0.178 C 
HETATM   19  N7  UNL     1      -2.721  20.316  18.326  1.00  0.00    -0.341 N 
HETATM   20  C29 UNL     1      -4.147  20.551  18.040  1.00  0.00     0.153 C 
HETATM   21  C30 UNL     1      -2.333  20.628  19.654  1.00  0.00     0.243 C 
HETATM   22  O4  UNL     1      -2.586  21.858  19.971  1.00  0.00    -0.271 OA
ENDROOT
BRANCH  13  23
HETATM   23  C15 UNL     1       1.919  20.376  14.978  1.00  0.00     0.038 C 
BRANCH  23  24
HETATM   24  C16 UNL     1       3.343  20.278  15.482  1.00  0.00     0.041 C 
BRANCH  24  25
HETATM   25  C17 UNL     1       4.219  20.904  14.460  1.00  0.00    -0.058 A 
HETATM   26  C18 UNL     1       5.549  20.587  14.347  1.00  0.00     0.007 A 
HETATM   27  C19 UNL     1       6.379  21.163  13.401  1.00  0.00     0.001 A 
HETATM   28  C20 UNL     1       5.863  22.095  12.530  1.00  0.00     0.000 A 
HETATM   29  C21 UNL     1       4.528  22.439  12.613  1.00  0.00     0.001 A 
HETATM   30  C22 UNL     1       3.713  21.840  13.581  1.00  0.00     0.007 A 
ENDBRANCH  24  25
ENDBRANCH  23  24
ENDBRANCH  13  23
BRANCH  12  31
HETATM   31  O2  UNL     1       1.045  23.134  15.591  1.00  0.00    -0.348 OA
ATOM     32  H2  UNL     1       0.483  22.827  14.890  1.00  0.00     0.219 HD
ENDBRANCH  12  31
BRANCH  18  33
HETATM   33  C25 UNL     1      -2.302  18.526  16.676  1.00  0.00     0.037 C 
BRANCH  33  34
HETATM   34  C26 UNL     1      -1.465  17.339  16.975  1.00  0.00     0.022 C 
BRANCH  34  35
HETATM   35  C27 UNL     1      -2.400  16.098  17.068  1.00  0.00     0.122 C 
BRANCH  35  36
HETATM   36  N4  UNL     1      -2.034  15.115  16.106  1.00  0.00    -0.367 N 
HETATM   37  C28 UNL     1      -1.768  13.888  16.297  1.00  0.00     0.196 C 
HETATM   38  N5  UNL     1      -1.411  12.986  15.275  1.00  0.00    -0.067 NA
HETATM   39  N6  UNL     1      -1.828  13.377  17.626  1.00  0.00    -0.067 NA
ATOM     40  H4  UNL     1      -1.977  15.437  15.140  1.00  0.00     0.161 HD
ENDBRANCH  35  36
ENDBRANCH  34  35
ENDBRANCH  33  34
ENDBRANCH  18  33
BRANCH   1  41
HETATM   41  C6  UNL     1      -2.759  19.129  21.571  1.00  0.00     0.035 C 
BRANCH  41  42
HETATM   42  C5  UNL     1      -2.274  18.408  22.754  1.00  0.00     0.002 C 
BRANCH  42  43
HETATM   43  C4  UNL     1      -1.450  19.214  23.742  1.00  0.00     0.001 C 
BRANCH  43  44
HETATM   44  C3  UNL     1      -0.101  18.587  23.954  1.00  0.00     0.010 C 
BRANCH  44  45
HETATM   45  C2  UNL     1      -0.068  17.710  25.148  1.00  0.00     0.073 C 
BRANCH  45  46
HETATM   46  S1  UNL     1      -0.455  18.531  26.682  1.00  0.00    -0.173 SA
HETATM   47  C1  UNL     1       0.981  18.653  27.755  1.00  0.00     0.089 C 
ENDBRANCH  45  46
ENDBRANCH  44  45
ENDBRANCH  43  44
ENDBRANCH  42  43
ENDBRANCH  41  42
ENDBRANCH   1  41
TORSDOF 14
ENDMDL
MODEL 5
REMARK VINA RESULT: -6.976423801      2.253      3.401
REMARK  14 active torsions:
REMARK  status: ('A' for Active; 'I' for Inactive)
REMARK    1  A    between atoms: S1_2  and  C2_3 
REMARK    2  A    between atoms: C2_3  and  C3_4 
REMARK    3  A    between atoms: C3_4  and  C4_5 
REMARK    4  A    between atoms: C4_5  and  C5_6 
REMARK    5  A    between atoms: C5_6  and  C6_7 
REMARK    6  A    between atoms: C6_7  and  C7_8 
REMARK    7  A    between atoms: C13_19  and  O2_20 
REMARK    8  A    between atoms: C14_22  and  C15_23 
REMARK    9  A    between atoms: C15_23  and  C16_24 
REMARK   10  A    between atoms: C16_24  and  C17_25 
REMARK   11  A    between atoms: C24_35  and  C25_36 
REMARK   12  A    between atoms: C25_36  and  C26_37 
REMARK   13  A    between atoms: C26_37  and  C27_38 
REMARK   14  A    between atoms: C27_38  and  N4_39 
ROOT
HETATM    1  C7  UNL     1      -1.431  18.715  22.077  1.00  0.00     0.177 C 
HETATM    2  N1  UNL     1      -1.092  18.051  20.842  1.00  0.00    -0.337 N 
ATOM      3  H1  UNL     1      -1.885  17.862  20.229  1.00  0.00     0.164 HD
HETATM    4  C8  UNL     1       0.156  17.619  20.341  1.00  0.00     0.297 C 
HETATM    5  O1  UNL     1       0.208  16.374  19.999  1.00  0.00    -0.258 OA
HETATM    6  C9  UNL     1       1.327  18.322  20.159  1.00  0.00    -0.001 C 
HETATM    7  C10 UNL     1       2.272  18.911  19.977  1.00  0.00    -0.067 C 
HETATM    8  C11 UNL     1       3.405  19.639  19.721  1.00  0.00     0.082 C 
HETATM    9  C12 UNL     1       3.559  20.936  19.534  1.00  0.00     0.098 C 
HETATM   10  N2  UNL     1       2.662  21.992  19.527  1.00  0.00    -0.348 N 
ATOM     11  H2  UNL     1       2.827  22.629  20.305  1.00  0.00     0.167 HD
HETATM   12  C13 UNL     1       1.599  22.410  18.741  1.00  0.00     0.138 C 
HETATM   13  C14 UNL     1       0.598  21.650  17.975  1.00  0.00     0.159 C 
HETATM   14  N3  UNL     1      -0.684  22.338  18.035  1.00  0.00    -0.347 N 
ATOM     15  H3  UNL     1      -0.864  23.040  17.317  1.00  0.00     0.163 HD
HETATM   16  C23 UNL     1      -1.701  22.127  18.991  1.00  0.00     0.241 C 
HETATM   17  O3  UNL     1      -2.216  23.151  19.488  1.00  0.00    -0.271 OA
HETATM   18  C24 UNL     1      -2.206  20.806  19.452  1.00  0.00     0.178 C 
HETATM   19  N7  UNL     1      -2.570  20.736  20.835  1.00  0.00    -0.341 N 
HETATM   20  C29 UNL     1      -3.823  21.396  21.240  1.00  0.00     0.153 C 
HETATM   21  C30 UNL     1      -1.858  20.130  21.902  1.00  0.00     0.243 C 
HETATM   22  O4  UNL     1      -1.557  20.971  22.840  1.00  0.00    -0.271 OA
ENDROOT
BRANCH  13  23
HETATM   23  C15 UNL     1       1.046  21.701  16.507  1.00  0.00     0.038 C 
BRANCH  23  24
HETATM   24  C16 UNL     1       1.797  20.438  16.141  1.00  0.00     0.041 C 
BRANCH  24  25
HETATM   25  C17 UNL     1       2.698  20.770  15.008  1.00  0.00    -0.058 A 
HETATM   26  C18 UNL     1       4.063  20.775  15.140  1.00  0.00     0.007 A 
HETATM   27  C19 UNL     1       4.915  21.085  14.095  1.00  0.00     0.001 A 
HETATM   28  C20 UNL     1       4.386  21.404  12.865  1.00  0.00     0.000 A 
HETATM   29  C21 UNL     1       3.016  21.410  12.695  1.00  0.00     0.001 A 
HETATM   30  C22 UNL     1       2.178  21.092  13.771  1.00  0.00     0.007 A 
ENDBRANCH  24  25
ENDBRANCH  23  24
ENDBRANCH  13  23
BRANCH  12  31
HETATM   31  O2  UNL     1       1.425  23.709  18.643  1.00  0.00    -0.348 OA
ATOM     32  H2  UNL     1       1.755  24.232  19.364  1.00  0.00     0.219 HD
ENDBRANCH  12  31
BRANCH  18  33
HETATM   33  C25 UNL     1      -3.177  20.187  18.504  1.00  0.00     0.037 C 
BRANCH  33  34
HETATM   34  C26 UNL     1      -2.735  19.907  17.116  1.00  0.00     0.022 C 
BRANCH  34  35
HETATM   35  C27 UNL     1      -3.484  18.639  16.614  1.00  0.00     0.122 C 
BRANCH  35  36
HETATM   36  N4  UNL     1      -2.566  17.595  16.312  1.00  0.00    -0.367 N 
HETATM   37  C28 UNL     1      -2.195  16.635  17.055  1.00  0.00     0.196 C 
HETATM   38  N5  UNL     1      -1.274  15.642  16.666  1.00  0.00    -0.067 NA
HETATM   39  N6  UNL     1      -2.734  16.543  18.371  1.00  0.00    -0.067 NA
ATOM     40  H4  UNL     1      -2.154  17.620  15.380  1.00  0.00     0.161 HD
ENDBRANCH  35  36
ENDBRANCH  34  35
ENDBRANCH  33  34
ENDBRANCH  18  33
BRANCH   1  41
HETATM   41  C6  UNL     1      -2.471  17.938  22.861  1.00  0.00     0.035 C 
BRANCH  41  42
HETATM   42  C5  UNL     1      -2.094  17.533  24.221  1.00  0.00     0.002 C 
BRANCH  42  43
HETATM   43  C4  UNL     1      -2.913  18.131  25.351  1.00  0.00     0.001 C 
BRANCH  43  44
HETATM   44  C3  UNL     1      -4.260  18.581  24.859  1.00  0.00     0.010 C 
BRANCH  44  45
HETATM   45  C2  UNL     1      -5.360  17.724  25.361  1.00  0.00     0.073 C 
BRANCH  45  46
HETATM   46  S1  UNL     1      -5.129  17.118  27.020  1.00  0.00    -0.173 SA
HETATM   47  C1  UNL     1      -6.333  15.851  27.441  1.00  0.00     0.089 C 
ENDBRANCH  45  46
ENDBRANCH  44  45
ENDBRANCH  43  44
ENDBRANCH  42  43
ENDBRANCH  41  42
ENDBRANCH   1  41
TORSDOF 14
ENDMDL
