MODEL 1
REMARK VINA RESULT: -7.340230192      0.000      0.000
REMARK  12 active torsions:
REMARK  status: ('A' for Active; 'I' for Inactive)
REMARK    1  A    between atoms: C2_2  and  C4_4 
REMARK    2  A    between atoms: C4_4  and  C5_5 
REMARK    3  A    between atoms: C7_10  and  C8_11 
REMARK    4  A    between atoms: C15_19  and  C16_20 
REMARK    5  A    between atoms: C16_20  and  C17_21 
REMARK    6  A    between atoms: C17_21  and  C18_22 
REMARK    7  A    between atoms: C18_22  and  C19_23 
REMARK    8  A    between atoms: C19_23  and  N3_24 
REMARK       I    between atoms: C20_26  and  N5_28 
REMARK    9  A    between atoms: C24_35  and  C25_36 
REMARK   10  A    between atoms: C25_36  and  C26_37 
REMARK   11  A    between atoms: C26_37  and  C27_38 
REMARK   12  A    between atoms: C27_38  and  N7_39 
ROOT
HETATM    1  C5  UNL     1      -1.247  19.827  16.574  1.00  0.00     0.179 C 
HETATM    2  C6  UNL     1       0.193  19.961  16.828  1.00  0.00     0.242 C 
HETATM    3  O1  UNL     1       1.006  19.270  16.094  1.00  0.00    -0.271 OA
HETATM    4  N1  UNL     1       0.850  20.747  17.776  1.00  0.00    -0.338 N 
ATOM      5  H1  UNL     1       1.778  21.064  17.494  1.00  0.00     0.164 HD
HETATM    6  C7  UNL     1       0.442  21.181  19.066  1.00  0.00     0.186 C 
HETATM    7  N2  UNL     1       0.810  20.391  20.185  1.00  0.00    -0.383 N 
HETATM    8  C14 UNL     1       0.277  20.764  21.426  1.00  0.00     0.146 C 
HETATM    9  C15 UNL     1       1.480  19.190  19.991  1.00  0.00     0.173 C 
HETATM   10  C23 UNL     1       0.746  17.945  20.318  1.00  0.00     0.241 C 
HETATM   11  O2  UNL     1       0.613  17.698  21.572  1.00  0.00    -0.271 OA
HETATM   12  N6  UNL     1       0.182  17.003  19.460  1.00  0.00    -0.346 N 
ATOM     13  H6  UNL     1       0.491  16.043  19.613  1.00  0.00     0.163 HD
HETATM   14  C24 UNL     1      -0.776  17.175  18.385  1.00  0.00     0.176 C 
HETATM   15  C29 UNL     1      -1.674  18.322  18.573  1.00  0.00     0.243 C 
HETATM   16  O3  UNL     1      -2.212  18.335  19.743  1.00  0.00    -0.271 OA
HETATM   17  N10 UNL     1      -2.018  19.353  17.724  1.00  0.00    -0.341 N 
HETATM   18  C30 UNL     1      -3.288  20.059  17.965  1.00  0.00     0.153 C 
ENDROOT
BRANCH   9  19
HETATM   19  C16 UNL     1       2.914  19.125  20.549  1.00  0.00     0.035 C 
BRANCH  19  20
HETATM   20  C17 UNL     1       3.772  20.273  20.251  1.00  0.00     0.007 C 
BRANCH  20  21
HETATM   21  C18 UNL     1       4.126  20.993  21.566  1.00  0.00     0.044 C 
BRANCH  21  22
HETATM   22  C19 UNL     1       5.444  21.691  21.513  1.00  0.00     0.063 C 
BRANCH  22  23
HETATM   23  N3  UNL     1       6.211  21.611  22.673  1.00  0.00    -0.344 N 
HETATM   24  C20 UNL     1       6.204  21.974  23.847  1.00  0.00     0.189 C 
HETATM   25  N4  UNL     1       7.351  21.577  24.671  1.00  0.00    -0.063 NA
HETATM   26  N5  UNL     1       5.217  22.746  24.538  1.00  0.00    -0.364 N 
HETATM   27  C21 UNL     1       5.238  24.192  24.541  1.00  0.00     0.151 C 
HETATM   28  C22 UNL     1       4.182  22.018  25.267  1.00  0.00     0.151 C 
ATOM     29  H3  UNL     1       7.058  21.074  22.487  1.00  0.00     0.167 HD
ENDBRANCH  22  23
ENDBRANCH  21  22
ENDBRANCH  20  21
ENDBRANCH  19  20
ENDBRANCH   9  19
BRANCH   6  30
HETATM   30  C8  UNL     1       0.883  22.609  19.318  1.00  0.00     0.028 C 
HETATM   31  C9  UNL     1       2.063  23.062  18.538  1.00  0.00     0.008 C 
HETATM   32  C10 UNL     1       2.532  24.387  19.157  1.00  0.00     0.001 C 
HETATM   33  C11 UNL     1       1.450  25.404  18.970  1.00  0.00     0.000 C 
HETATM   34  C12 UNL     1       0.146  24.912  19.551  1.00  0.00     0.001 C 
HETATM   35  C13 UNL     1      -0.257  23.584  18.944  1.00  0.00     0.008 C 
ENDBRANCH   6  30
BRANCH  14  36
HETATM   36  C25 UNL     1      -1.727  15.949  18.400  1.00  0.00     0.036 C 
BRANCH  36  37
HETATM   37  C26 UNL     1      -0.900  14.736  18.673  1.00  0.00     0.022 C 
BRANCH  37  38
HETATM   38  C27 UNL     1      -1.609  13.545  18.038  1.00  0.00     0.122 C 
BRANCH  38  39
HETATM   39  N7  UNL     1      -1.985  13.928  16.698  1.00  0.00    -0.367 N 
HETATM   40  C28 UNL     1      -1.439  13.384  15.685  1.00  0.00     0.196 C 
HETATM   41  N8  UNL     1      -0.450  12.387  15.874  1.00  0.00    -0.067 NA
HETATM   42  N9  UNL     1      -1.814  13.768  14.379  1.00  0.00    -0.067 NA
ATOM     43  H7  UNL     1      -2.697  14.644  16.562  1.00  0.00     0.161 HD
ENDBRANCH  38  39
ENDBRANCH  37  38
ENDBRANCH  36  37
ENDBRANCH  14  36
BRANCH   1  44
HETATM   44  C4  UNL     1      -1.913  20.928  15.860  1.00  0.00     0.039 C 
BRANCH  44  45
HETATM   45  C2  UNL     1      -1.109  21.968  15.184  1.00  0.00    -0.020 C 
HETATM   46  C1  UNL     1      -1.228  21.786  13.660  1.00  0.00     0.009 C 
HETATM   47  C3  UNL     1      -1.465  23.398  15.439  1.00  0.00     0.009 C 
ENDBRANCH  44  45
ENDBRANCH   1  44
TORSDOF 12
ENDMDL
MODEL 2
REMARK VINA RESULT: -7.115378151      1.751      2.619
REMARK  12 active torsions:
REMARK  status: ('A' for Active; 'I' for Inactive)
REMARK    1  A    between atoms: C2_2  and  C4_4 
REMARK    2  A    between atoms: C4_4  and  C5_5 
REMARK    3  A    between atoms: C7_10  and  C8_11 
REMARK    4  A    between atoms: C15_19  and  C16_20 
REMARK    5  A    between atoms: C16_20  and  C17_21 
REMARK    6  A    between atoms: C17_21  and  C18_22 
REMARK    7  A    between atoms: C18_22  and  C19_23 
REMARK    8  A    between atoms: C19_23  and  N3_24 
REMARK       I    between atoms: C20_26  and  N5_28 
REMARK    9  A    between atoms: C24_35  and  C25_36 
REMARK   10  A    between atoms: C25_36  and  C26_37 
REMARK   11  A    between atoms: C26_37  and  C27_38 
REMARK   12  A    between atoms: C27_38  and  N7_39 
ROOT
HETATM    1  C5  UNL     1       1.141  19.421  17.819  1.00  0.00     0.179 C 
HETATM    2  C6  UNL     1       1.912  19.593  19.057  1.00  0.00     0.242 C 
HETATM    3  O1  UNL     1       2.807  18.702  19.343  1.00  0.00    -0.271 OA
HETATM    4  N1  UNL     1       1.825  20.605  20.014  1.00  0.00    -0.338 N 
ATOM      5  H1  UNL     1       2.700  20.807  20.497  1.00  0.00     0.164 HD
HETATM    6  C7  UNL     1       0.723  21.400  20.428  1.00  0.00     0.186 C 
HETATM    7  N2  UNL     1      -0.044  20.959  21.536  1.00  0.00    -0.383 N 
HETATM    8  C14 UNL     1      -1.204  21.686  21.833  1.00  0.00     0.146 C 
HETATM    9  C15 UNL     1       0.247  19.740  22.134  1.00  0.00     0.173 C 
HETATM   10  C23 UNL     1      -0.754  18.658  21.984  1.00  0.00     0.241 C 
HETATM   11  O2  UNL     1      -1.813  18.786  22.701  1.00  0.00    -0.271 OA
HETATM   12  N6  UNL     1      -0.710  17.520  21.181  1.00  0.00    -0.346 N 
ATOM     13  H6  UNL     1      -0.848  16.639  21.675  1.00  0.00     0.163 HD
HETATM   14  C24 UNL     1      -0.499  17.394  19.751  1.00  0.00     0.176 C 
HETATM   15  C29 UNL     1      -0.945  18.566  18.985  1.00  0.00     0.243 C 
HETATM   16  O3  UNL     1      -2.141  18.927  19.294  1.00  0.00    -0.271 OA
HETATM   17  N10 UNL     1      -0.304  19.315  18.020  1.00  0.00    -0.341 N 
HETATM   18  C30 UNL     1      -1.130  20.087  17.076  1.00  0.00     0.153 C 
ENDROOT
BRANCH   9  19
HETATM   19  C16 UNL     1       0.745  19.808  23.589  1.00  0.00     0.035 C 
BRANCH  19  20
HETATM   20  C17 UNL     1       1.380  21.063  23.994  1.00  0.00     0.007 C 
BRANCH  20  21
HETATM   21  C18 UNL     1       2.910  20.892  23.954  1.00  0.00     0.044 C 
BRANCH  21  22
HETATM   22  C19 UNL     1       3.611  21.650  25.031  1.00  0.00     0.063 C 
BRANCH  22  23
HETATM   23  N3  UNL     1       4.998  21.521  25.050  1.00  0.00    -0.344 N 
HETATM   24  C20 UNL     1       5.987  21.777  24.367  1.00  0.00     0.189 C 
HETATM   25  N4  UNL     1       7.290  21.389  24.918  1.00  0.00    -0.063 NA
HETATM   26  N5  UNL     1       6.051  22.411  23.087  1.00  0.00    -0.364 N 
HETATM   27  C21 UNL     1       5.929  21.664  21.854  1.00  0.00     0.151 C 
HETATM   28  C22 UNL     1       6.264  23.855  23.060  1.00  0.00     0.151 C 
ATOM     29  H3  UNL     1       5.288  21.064  25.914  1.00  0.00     0.167 HD
ENDBRANCH  22  23
ENDBRANCH  21  22
ENDBRANCH  20  21
ENDBRANCH  19  20
ENDBRANCH   9  19
BRANCH   6  30
HETATM   30  C8  UNL     1       1.156  22.831  20.679  1.00  0.00     0.028 C 
HETATM   31  C9  UNL     1       2.611  23.029  20.901  1.00  0.00     0.008 C 
HETATM   32  C10 UNL     1       2.795  24.455  21.442  1.00  0.00     0.001 C 
HETATM   33  C11 UNL     1       2.364  25.421  20.383  1.00  0.00     0.000 C 
HETATM   34  C12 UNL     1       0.947  25.137  19.942  1.00  0.00     0.001 C 
HETATM   35  C13 UNL     1       0.802  23.709  19.457  1.00  0.00     0.008 C 
ENDBRANCH   6  30
BRANCH  14  36
HETATM   36  C25 UNL     1      -1.408  16.246  19.240  1.00  0.00     0.036 C 
BRANCH  36  37
HETATM   37  C26 UNL     1      -0.930  15.859  17.880  1.00  0.00     0.022 C 
BRANCH  37  38
HETATM   38  C27 UNL     1      -1.598  14.538  17.516  1.00  0.00     0.122 C 
BRANCH  38  39
HETATM   39  N7  UNL     1      -0.554  13.551  17.370  1.00  0.00    -0.367 N 
HETATM   40  C28 UNL     1      -0.530  12.768  16.367  1.00  0.00     0.196 C 
HETATM   41  N8  UNL     1      -1.539  12.867  15.378  1.00  0.00    -0.067 NA
HETATM   42  N9  UNL     1       0.495  11.806  16.235  1.00  0.00    -0.067 NA
ATOM     43  H7  UNL     1       0.173  13.480  18.081  1.00  0.00     0.161 HD
ENDBRANCH  38  39
ENDBRANCH  37  38
ENDBRANCH  36  37
ENDBRANCH  14  36
BRANCH   1  44
HETATM   44  C4  UNL     1       1.494  20.283  16.679  1.00  0.00     0.039 C 
BRANCH  44  45
HETATM   45  C2  UNL     1       2.856  20.847  16.568  1.00  0.00    -0.020 C 
HETATM   46  C1  UNL     1       3.340  20.712  15.113  1.00  0.00     0.009 C 
HETATM   47  C3  UNL     1       3.041  22.291  16.914  1.00  0.00     0.009 C 
ENDBRANCH  44  45
ENDBRANCH   1  44
TORSDOF 12
ENDMDL
MODEL 3
REMARK VINA RESULT: -6.933874399      2.846      5.122
REMARK  12 active torsions:
REMARK  status: ('A' for Active; 'I' for Inactive)
REMARK    1  A    between atoms: C2_2  and  C4_4 
REMARK    2  A    between atoms: C4_4  and  C5_5 
REMARK    3  A    between atoms: C7_10  and  C8_11 
REMARK    4  A    between atoms: C15_19  and  C16_20 
REMARK    5  A    between atoms: C16_20  and  C17_21 
REMARK    6  A    between atoms: C17_21  and  C18_22 
REMARK    7  A    between atoms: C18_22  and  C19_23 
REMARK    8  A    between atoms: C19_23  and  N3_24 
REMARK       I    between atoms: C20_26  and  N5_28 
REMARK    9  A    between atoms: C24_35  and  C25_36 
REMARK   10  A    between atoms: C25_36  and  C26_37 
REMARK   11  A    between atoms: C26_37  and  C27_38 
REMARK   12  A    between atoms: C27_38  and  N7_39 
ROOT
HETATM    1  C5  UNL     1      -2.193  19.906  20.184  1.00  0.00     0.179 C 
HETATM    2  C6  UNL     1      -1.316  20.773  19.388  1.00  0.00     0.242 C 
HETATM    3  O1  UNL     1      -1.454  20.759  18.101  1.00  0.00    -0.271 OA
HETATM    4  N1  UNL     1      -0.314  21.643  19.819  1.00  0.00    -0.338 N 
ATOM      5  H1  UNL     1      -0.171  22.456  19.219  1.00  0.00     0.164 HD
HETATM    6  C7  UNL     1       0.541  21.588  20.954  1.00  0.00     0.186 C 
HETATM    7  N2  UNL     1       1.813  20.979  20.805  1.00  0.00    -0.383 N 
HETATM    8  C14 UNL     1       2.575  20.813  21.969  1.00  0.00     0.146 C 
HETATM    9  C15 UNL     1       2.159  20.390  19.596  1.00  0.00     0.173 C 
HETATM   10  C23 UNL     1       2.298  18.915  19.578  1.00  0.00     0.241 C 
HETATM   11  O2  UNL     1       3.363  18.457  20.135  1.00  0.00    -0.271 OA
HETATM   12  N6  UNL     1       1.444  17.955  19.041  1.00  0.00    -0.346 N 
ATOM     13  H6  UNL     1       1.880  17.314  18.378  1.00  0.00     0.163 HD
HETATM   14  C24 UNL     1       0.032  17.724  19.279  1.00  0.00     0.176 C 
HETATM   15  C29 UNL     1      -0.417  18.144  20.613  1.00  0.00     0.243 C 
HETATM   16  O3  UNL     1       0.339  17.688  21.550  1.00  0.00    -0.271 OA
HETATM   17  N10 UNL     1      -1.484  18.925  21.006  1.00  0.00    -0.341 N 
HETATM   18  C30 UNL     1      -1.991  18.770  22.380  1.00  0.00     0.153 C 
ENDROOT
BRANCH   9  19
HETATM   19  C16 UNL     1       3.329  21.046  18.841  1.00  0.00     0.035 C 
BRANCH  19  20
HETATM   20  C17 UNL     1       2.964  21.962  17.759  1.00  0.00     0.007 C 
BRANCH  20  21
HETATM   21  C18 UNL     1       1.900  21.294  16.868  1.00  0.00     0.044 C 
BRANCH  21  22
HETATM   22  C19 UNL     1       2.480  20.330  15.889  1.00  0.00     0.063 C 
BRANCH  22  23
HETATM   23  N3  UNL     1       2.712  20.839  14.613  1.00  0.00    -0.344 N 
HETATM   24  C20 UNL     1       3.614  21.316  13.927  1.00  0.00     0.189 C 
HETATM   25  N4  UNL     1       3.268  21.706  12.557  1.00  0.00    -0.063 NA
HETATM   26  N5  UNL     1       4.979  21.549  14.283  1.00  0.00    -0.364 N 
HETATM   27  C21 UNL     1       5.406  22.774  14.924  1.00  0.00     0.151 C 
HETATM   28  C22 UNL     1       5.948  20.506  13.958  1.00  0.00     0.151 C 
ATOM     29  H3  UNL     1       1.851  20.804  14.068  1.00  0.00     0.167 HD
ENDBRANCH  22  23
ENDBRANCH  21  22
ENDBRANCH  20  21
ENDBRANCH  19  20
ENDBRANCH   9  19
BRANCH   6  30
HETATM   30  C8  UNL     1       0.733  22.968  21.551  1.00  0.00     0.028 C 
HETATM   31  C9  UNL     1       1.215  24.011  20.610  1.00  0.00     0.008 C 
HETATM   32  C10 UNL     1       1.641  25.220  21.456  1.00  0.00     0.001 C 
HETATM   33  C11 UNL     1       0.430  25.762  22.148  1.00  0.00     0.000 C 
HETATM   34  C12 UNL     1      -0.249  24.685  22.961  1.00  0.00     0.001 C 
HETATM   35  C13 UNL     1      -0.614  23.496  22.096  1.00  0.00     0.008 C 
ENDBRANCH   6  30
BRANCH  14  36
HETATM   36  C25 UNL     1      -0.202  16.190  19.271  1.00  0.00     0.036 C 
BRANCH  36  37
HETATM   37  C26 UNL     1      -1.655  15.954  19.023  1.00  0.00     0.022 C 
BRANCH  37  38
HETATM   38  C27 UNL     1      -1.771  15.025  17.820  1.00  0.00     0.122 C 
BRANCH  38  39
HETATM   39  N7  UNL     1      -0.610  14.166  17.822  1.00  0.00    -0.367 N 
HETATM   40  C28 UNL     1      -0.476  13.245  16.954  1.00  0.00     0.196 C 
HETATM   41  N8  UNL     1      -1.478  13.059  15.971  1.00  0.00    -0.067 NA
HETATM   42  N9  UNL     1       0.663  12.411  16.967  1.00  0.00    -0.067 NA
ATOM     43  H7  UNL     1       0.112  14.300  18.529  1.00  0.00     0.161 HD
ENDBRANCH  38  39
ENDBRANCH  37  38
ENDBRANCH  36  37
ENDBRANCH  14  36
BRANCH   1  44
HETATM   44  C4  UNL     1      -3.307  20.547  20.901  1.00  0.00     0.039 C 
BRANCH  44  45
HETATM   45  C2  UNL     1      -3.811  21.866  20.462  1.00  0.00    -0.020 C 
HETATM   46  C1  UNL     1      -5.010  21.659  19.520  1.00  0.00     0.009 C 
HETATM   47  C3  UNL     1      -4.296  22.811  21.517  1.00  0.00     0.009 C 
ENDBRANCH  44  45
ENDBRANCH   1  44
TORSDOF 12
ENDMDL
MODEL 4
REMARK VINA RESULT: -6.881457115      3.316      5.392
REMARK  12 active torsions:
REMARK  status: ('A' for Active; 'I' for Inactive)
REMARK    1  A    between atoms: C2_2  and  C4_4 
REMARK    2  A    between atoms: C4_4  and  C5_5 
REMARK    3  A    between atoms: C7_10  and  C8_11 
REMARK    4  A    between atoms: C15_19  and  C16_20 
REMARK    5  A    between atoms: C16_20  and  C17_21 
REMARK    6  A    between atoms: C17_21  and  C18_22 
REMARK    7  A    between atoms: C18_22  and  C19_23 
REMARK    8  A    between atoms: C19_23  and  N3_24 
REMARK       I    between atoms: C20_26  and  N5_28 
REMARK    9  A    between atoms: C24_35  and  C25_36 
REMARK   10  A    between atoms: C25_36  and  C26_37 
REMARK   11  A    between atoms: C26_37  and  C27_38 
REMARK   12  A    between atoms: C27_38  and  N7_39 
ROOT
HETATM    1  C5  UNL     1      -0.981  17.294  19.243  1.00  0.00     0.179 C 
HETATM    2  C6  UNL     1       0.375  17.728  19.603  1.00  0.00     0.242 C 
HETATM    3  O1  UNL     1       1.054  16.984  20.417  1.00  0.00    -0.271 OA
HETATM    4  N1  UNL     1       1.073  18.863  19.192  1.00  0.00    -0.338 N 
ATOM      5  H1  UNL     1       2.086  18.747  19.151  1.00  0.00     0.164 HD
HETATM    6  C7  UNL     1       0.611  20.154  18.819  1.00  0.00     0.186 C 
HETATM    7  N2  UNL     1       0.546  21.157  19.820  1.00  0.00    -0.383 N 
HETATM    8  C14 UNL     1      -0.045  22.375  19.457  1.00  0.00     0.146 C 
HETATM    9  C15 UNL     1       0.854  20.839  21.136  1.00  0.00     0.173 C 
HETATM   10  C23 UNL     1      -0.257  20.864  22.116  1.00  0.00     0.241 C 
HETATM   11  O2  UNL     1      -0.655  22.036  22.465  1.00  0.00    -0.271 OA
HETATM   12  N6  UNL     1      -0.928  19.801  22.716  1.00  0.00    -0.346 N 
ATOM     13  H6  UNL     1      -0.944  19.823  23.735  1.00  0.00     0.163 HD
HETATM   14  C24 UNL     1      -1.608  18.669  22.116  1.00  0.00     0.176 C 
HETATM   15  C29 UNL     1      -2.146  18.947  20.777  1.00  0.00     0.243 C 
HETATM   16  O3  UNL     1      -2.837  20.033  20.743  1.00  0.00    -0.271 OA
HETATM   17  N10 UNL     1      -2.031  18.252  19.591  1.00  0.00    -0.341 N 
HETATM   18  C30 UNL     1      -3.058  18.464  18.557  1.00  0.00     0.153 C 
ENDROOT
BRANCH   9  19
HETATM   19  C16 UNL     1       2.097  21.536  21.720  1.00  0.00     0.035 C 
BRANCH  19  20
HETATM   20  C17 UNL     1       3.144  20.654  22.238  1.00  0.00     0.007 C 
BRANCH  20  21
HETATM   21  C18 UNL     1       4.365  20.715  21.300  1.00  0.00     0.044 C 
BRANCH  21  22
HETATM   22  C19 UNL     1       5.285  21.847  21.612  1.00  0.00     0.063 C 
BRANCH  22  23
HETATM   23  N3  UNL     1       6.102  21.666  22.727  1.00  0.00    -0.344 N 
HETATM   24  C20 UNL     1       6.172  21.972  23.915  1.00  0.00     0.189 C 
HETATM   25  N4  UNL     1       7.331  21.470  24.660  1.00  0.00    -0.063 NA
HETATM   26  N5  UNL     1       5.268  22.764  24.689  1.00  0.00    -0.364 N 
HETATM   27  C21 UNL     1       5.375  24.205  24.758  1.00  0.00     0.151 C 
HETATM   28  C22 UNL     1       4.227  22.062  25.436  1.00  0.00     0.151 C 
ATOM     29  H3  UNL     1       6.906  21.091  22.473  1.00  0.00     0.167 HD
ENDBRANCH  22  23
ENDBRANCH  21  22
ENDBRANCH  20  21
ENDBRANCH  19  20
ENDBRANCH   9  19
BRANCH   6  30
HETATM   30  C8  UNL     1       1.407  20.693  17.647  1.00  0.00     0.028 C 
HETATM   31  C9  UNL     1       2.849  20.933  17.909  1.00  0.00     0.008 C 
HETATM   32  C10 UNL     1       3.390  21.758  16.731  1.00  0.00     0.001 C 
HETATM   33  C11 UNL     1       3.289  20.929  15.489  1.00  0.00     0.000 C 
HETATM   34  C12 UNL     1       1.870  20.457  15.274  1.00  0.00     0.001 C 
HETATM   35  C13 UNL     1       1.363  19.686  16.475  1.00  0.00     0.008 C 
ENDBRANCH   6  30
BRANCH  14  36
HETATM   36  C25 UNL     1      -2.868  18.369  22.970  1.00  0.00     0.036 C 
BRANCH  36  37
HETATM   37  C26 UNL     1      -2.415  18.090  24.365  1.00  0.00     0.022 C 
BRANCH  37  38
HETATM   38  C27 UNL     1      -3.387  18.783  25.312  1.00  0.00     0.122 C 
BRANCH  38  39
HETATM   39  N7  UNL     1      -3.755  17.827  26.330  1.00  0.00    -0.367 N 
HETATM   40  C28 UNL     1      -4.881  17.235  26.296  1.00  0.00     0.196 C 
HETATM   41  N8  UNL     1      -5.787  17.515  25.243  1.00  0.00    -0.067 NA
HETATM   42  N9  UNL     1      -5.230  16.304  27.298  1.00  0.00    -0.067 NA
ATOM     43  H7  UNL     1      -3.103  17.625  27.087  1.00  0.00     0.161 HD
ENDBRANCH  38  39
ENDBRANCH  37  38
ENDBRANCH  36  37
ENDBRANCH  14  36
BRANCH   1  44
HETATM   44  C4  UNL     1      -1.170  16.706  17.907  1.00  0.00     0.039 C 
BRANCH  44  45
HETATM   45  C2  UNL     1      -1.513  15.275  17.768  1.00  0.00    -0.020 C 
HETATM   46  C1  UNL     1      -1.919  14.994  16.310  1.00  0.00     0.009 C 
HETATM   47  C3  UNL     1      -0.450  14.271  18.083  1.00  0.00     0.009 C 
ENDBRANCH  44  45
ENDBRANCH   1  44
TORSDOF 12
ENDMDL
MODEL 5
REMARK VINA RESULT: -6.867073530      2.352      3.257
REMARK  12 active torsions:
REMARK  status: ('A' for Active; 'I' for Inactive)
REMARK    1  A    between atoms: C2_2  and  C4_4 
REMARK    2  A    between atoms: C4_4  and  C5_5 
REMARK    3  A    between atoms: C7_10  and  C8_11 
REMARK    4  A    between atoms: C15_19  and  C16_20 
REMARK    5  A    between atoms: C16_20  and  C17_21 
REMARK    6  A    between atoms: C17_21  and  C18_22 
REMARK    7  A    between atoms: C18_22  and  C19_23 
REMARK    8  A    between atoms: C19_23  and  N3_24 
REMARK       I    between atoms: C20_26  and  N5_28 
REMARK    9  A    between atoms: C24_35  and  C25_36 
REMARK   10  A    between atoms: C25_36  and  C26_37 
REMARK   11  A    between atoms: C26_37  and  C27_38 
REMARK   12  A    between atoms: C27_38  and  N7_39 
ROOT
HETATM    1  C5  UNL     1      -0.865  19.658  16.959  1.00  0.00     0.179 C 
HETATM    2  C6  UNL     1       0.370  20.194  17.545  1.00  0.00     0.242 C 
HETATM    3  O1  UNL     1       1.499  19.788  17.058  1.00  0.00    -0.271 OA
HETATM    4  N1  UNL     1       0.524  21.109  18.588  1.00  0.00    -0.338 N 
ATOM      5  H1  UNL     1       1.361  21.687  18.524  1.00  0.00     0.164 HD
HETATM    6  C7  UNL     1      -0.291  21.369  19.723  1.00  0.00     0.186 C 
HETATM    7  N2  UNL     1       0.004  20.687  20.930  1.00  0.00    -0.383 N 
HETATM    8  C14 UNL     1      -0.897  20.855  21.990  1.00  0.00     0.146 C 
HETATM    9  C15 UNL     1       1.017  19.736  20.955  1.00  0.00     0.173 C 
HETATM   10  C23 UNL     1       0.613  18.324  21.149  1.00  0.00     0.241 C 
HETATM   11  O2  UNL     1       0.257  18.013  22.345  1.00  0.00    -0.271 OA
HETATM   12  N6  UNL     1       0.569  17.284  20.223  1.00  0.00    -0.346 N 
ATOM     13  H6  UNL     1       1.093  16.450  20.487  1.00  0.00     0.163 HD
HETATM   14  C24 UNL     1      -0.107  17.203  18.942  1.00  0.00     0.176 C 
HETATM   15  C29 UNL     1      -1.314  18.037  18.860  1.00  0.00     0.243 C 
HETATM   16  O3  UNL     1      -2.100  17.860  19.864  1.00  0.00    -0.271 OA
HETATM   17  N10 UNL     1      -1.722  18.949  17.909  1.00  0.00    -0.341 N 
HETATM   18  C30 UNL     1      -3.160  19.251  17.806  1.00  0.00     0.153 C 
ENDROOT
BRANCH   9  19
HETATM   19  C16 UNL     1       2.229  20.071  21.843  1.00  0.00     0.035 C 
BRANCH  19  20
HETATM   20  C17 UNL     1       3.139  21.097  21.329  1.00  0.00     0.007 C 
BRANCH  20  21
HETATM   21  C18 UNL     1       3.639  20.676  19.935  1.00  0.00     0.044 C 
BRANCH  21  22
HETATM   22  C19 UNL     1       4.227  21.806  19.159  1.00  0.00     0.063 C 
BRANCH  22  23
HETATM   23  N3  UNL     1       3.657  22.036  17.909  1.00  0.00    -0.344 N 
HETATM   24  C20 UNL     1       3.594  22.898  17.035  1.00  0.00     0.189 C 
HETATM   25  N4  UNL     1       2.796  22.579  15.847  1.00  0.00    -0.063 NA
HETATM   26  N5  UNL     1       4.198  24.194  17.012  1.00  0.00    -0.364 N 
HETATM   27  C21 UNL     1       3.554  25.351  17.595  1.00  0.00     0.151 C 
HETATM   28  C22 UNL     1       5.497  24.320  16.357  1.00  0.00     0.151 C 
ATOM     29  H3  UNL     1       3.114  21.220  17.624  1.00  0.00     0.167 HD
ENDBRANCH  22  23
ENDBRANCH  21  22
ENDBRANCH  20  21
ENDBRANCH  19  20
ENDBRANCH   9  19
BRANCH   6  30
HETATM   30  C8  UNL     1      -0.353  22.856  20.011  1.00  0.00     0.028 C 
HETATM   31  C9  UNL     1       0.671  23.684  19.325  1.00  0.00     0.008 C 
HETATM   32  C10 UNL     1       0.643  25.072  19.981  1.00  0.00     0.001 C 
HETATM   33  C11 UNL     1      -0.692  25.693  19.714  1.00  0.00     0.000 C 
HETATM   34  C12 UNL     1      -1.807  24.793  20.192  1.00  0.00     0.001 C 
HETATM   35  C13 UNL     1      -1.716  23.423  19.552  1.00  0.00     0.008 C 
ENDBRANCH   6  30
BRANCH  14  36
HETATM   36  C25 UNL     1      -0.642  15.755  18.782  1.00  0.00     0.036 C 
BRANCH  36  37
HETATM   37  C26 UNL     1      -1.229  15.636  17.415  1.00  0.00     0.022 C 
BRANCH  37  38
HETATM   38  C27 UNL     1      -1.830  14.241  17.292  1.00  0.00     0.122 C 
BRANCH  38  39
HETATM   39  N7  UNL     1      -0.735  13.304  17.208  1.00  0.00    -0.367 N 
HETATM   40  C28 UNL     1      -0.528  12.632  16.147  1.00  0.00     0.196 C 
HETATM   41  N8  UNL     1      -1.384  12.806  15.032  1.00  0.00    -0.067 NA
HETATM   42  N9  UNL     1       0.545  11.717  16.077  1.00  0.00    -0.067 NA
ATOM     43  H7  UNL     1      -0.118  13.179  18.010  1.00  0.00     0.161 HD
ENDBRANCH  38  39
ENDBRANCH  37  38
ENDBRANCH  36  37
ENDBRANCH  14  36
BRANCH   1  44
HETATM   44  C4  UNL     1      -1.624  20.540  16.058  1.00  0.00     0.039 C 
BRANCH  44  45
HETATM   45  C2  UNL     1      -0.970  21.715  15.445  1.00  0.00    -0.020 C 
HETATM   46  C1  UNL     1      -1.231  21.703  13.928  1.00  0.00     0.009 C 
HETATM   47  C3  UNL     1      -1.400  23.072  15.909  1.00  0.00     0.009 C 
ENDBRANCH  44  45
ENDBRANCH   1  44
TORSDOF 12
ENDMDL
