MODEL 1
REMARK VINA RESULT: -7.045043514      0.000      0.000
REMARK  13 active torsions:
REMARK  status: ('A' for Active; 'I' for Inactive)
REMARK    1  A    between atoms: C3_3  and  N1_4 
REMARK    2  A    between atoms: N1_4  and  C6_7 
REMARK    3  A    between atoms: C6_7  and  C7_8 
REMARK    4  A    between atoms: C7_8  and  C8_9 
REMARK    5  A    between atoms: C8_9  and  C9_10 
REMARK       I    between atoms: C9_10  and  N2_12 
REMARK    6  A    between atoms: N2_12  and  N3_14 
REMARK    7  A    between atoms: N3_14  and  C10_15 
REMARK    8  A    between atoms: N3_14  and  N7_37 
REMARK    9  A    between atoms: C10_15  and  C11_16 
REMARK   10  A    between atoms: C11_16  and  N4_17 
REMARK   11  A    between atoms: C11_16  and  C15_28 
REMARK       I    between atoms: N4_17  and  C12_18 
REMARK       I    between atoms: C12_18  and  N5_20 
REMARK   12  A    between atoms: C14_23  and  N6_24 
REMARK   13  A    between atoms: C20_33  and  C21_34 
ROOT
HETATM    1  C1  UNL     1      37.438  23.922  55.957  1.00  0.00     0.013 C 
HETATM    2  C2  UNL     1      37.402  24.955  55.321  1.00  0.00    -0.089 C 
HETATM    3  C3  UNL     1      37.370  26.190  54.547  1.00  0.00     0.328 C 
ENDROOT
BRANCH   3   4
HETATM    4  N1  UNL     1      38.354  27.153  55.022  1.00  0.00    -0.065 N 
HETATM    5  C4  UNL     1      38.198  27.199  56.480  1.00  0.00     0.273 C 
HETATM    6  C5  UNL     1      37.974  28.419  54.487  1.00  0.00     0.273 C 
BRANCH   4   7
HETATM    7  C6  UNL     1      39.628  26.649  54.659  1.00  0.00     0.238 C 
BRANCH   7   8
HETATM    8  C7  UNL     1      40.493  26.007  55.644  1.00  0.00     0.037 C 
BRANCH   8   9
HETATM    9  C8  UNL     1      41.189  24.748  55.405  1.00  0.00     0.106 C 
BRANCH   9  10
HETATM   10  C9  UNL     1      42.631  24.976  55.063  1.00  0.00     0.237 C 
HETATM   11  O1  UNL     1      43.286  25.865  55.609  1.00  0.00    -0.272 OA
HETATM   12  N2  UNL     1      43.278  24.137  54.067  1.00  0.00    -0.252 N 
ATOM     13  H2  UNL     1      42.746  23.396  53.611  1.00  0.00     0.191 HD
BRANCH  12  14
HETATM   14  N3  UNL     1      44.612  24.334  53.729  1.00  0.00    -0.214 N 
BRANCH  14  15
HETATM   15  C10 UNL     1      44.998  24.073  52.391  1.00  0.00     0.215 C 
BRANCH  15  16
HETATM   16  C11 UNL     1      43.951  23.708  51.398  1.00  0.00     0.224 C 
BRANCH  16  17
HETATM   17  N4  UNL     1      44.050  22.331  51.107  1.00  0.00    -0.384 NA
HETATM   18  C12 UNL     1      44.133  20.991  50.795  1.00  0.00     0.400 C 
HETATM   19  O2  UNL     1      43.729  20.461  49.713  1.00  0.00    -0.230 OA
HETATM   20  N5  UNL     1      44.715  20.020  51.680  1.00  0.00    -0.216 N 
HETATM   21  C13 UNL     1      45.340  19.852  53.014  1.00  0.00     0.281 A 
HETATM   22  C14 UNL     1      45.174  18.744  52.155  1.00  0.00     0.389 A 
HETATM   23  O3  UNL     1      45.725  20.369  54.090  1.00  0.00    -0.268 OA
BRANCH  22  24
HETATM   24  N6  UNL     1      44.265  17.665  52.497  1.00  0.00    -0.049 N 
ATOM     25  H63 UNL     1      43.976  17.802  53.465  1.00  0.00     0.277 HD
ATOM     26  H62 UNL     1      43.395  17.823  51.987  1.00  0.00     0.277 HD
ATOM     27  H61 UNL     1      44.513  16.683  52.385  1.00  0.00     0.277 HD
ENDBRANCH  22  24
ENDBRANCH  16  17
BRANCH  16  28
HETATM   28  C15 UNL     1      44.197  24.315  50.037  1.00  0.00    -0.010 A 
HETATM   29  C16 UNL     1      45.321  23.800  49.366  1.00  0.00     0.011 A 
HETATM   30  C17 UNL     1      45.434  24.064  47.971  1.00  0.00     0.001 A 
HETATM   31  C18 UNL     1      44.494  24.794  47.318  1.00  0.00     0.001 A 
HETATM   32  C19 UNL     1      43.361  25.316  47.995  1.00  0.00     0.012 A 
HETATM   33  C20 UNL     1      43.286  25.036  49.348  1.00  0.00    -0.022 A 
BRANCH  33  34
HETATM   34  C21 UNL     1      42.174  25.647  50.079  1.00  0.00    -0.060 C 
HETATM   35  C22 UNL     1      42.430  26.746  50.760  1.00  0.00     0.019 C 
HETATM   36  C23 UNL     1      40.846  25.073  50.064  1.00  0.00     0.048 C 
ENDBRANCH  33  34
ENDBRANCH  16  28
ENDBRANCH  15  16
ENDBRANCH  14  15
BRANCH  14  37
HETATM   37  N7  UNL     1      45.494  24.014  54.733  1.00  0.00    -0.232 N 
HETATM   38  N8  UNL     1      46.242  23.047  54.707  1.00  0.00    -0.330 N 
ATOM     39  H82 UNL     1      46.196  22.449  53.881  1.00  0.00     0.178 HD
ATOM     40  H81 UNL     1      46.897  22.809  55.452  1.00  0.00     0.178 HD
ATOM     41  H7  UNL     1      45.527  24.622  55.551  1.00  0.00     0.209 HD
ENDBRANCH  14  37
ENDBRANCH  12  14
ENDBRANCH   9  10
ENDBRANCH   8   9
ENDBRANCH   7   8
ENDBRANCH   4   7
ENDBRANCH   3   4
TORSDOF 13
ENDMDL
MODEL 2
REMARK VINA RESULT: -6.786936155      1.809      2.560
REMARK  13 active torsions:
REMARK  status: ('A' for Active; 'I' for Inactive)
REMARK    1  A    between atoms: C3_3  and  N1_4 
REMARK    2  A    between atoms: N1_4  and  C6_7 
REMARK    3  A    between atoms: C6_7  and  C7_8 
REMARK    4  A    between atoms: C7_8  and  C8_9 
REMARK    5  A    between atoms: C8_9  and  C9_10 
REMARK       I    between atoms: C9_10  and  N2_12 
REMARK    6  A    between atoms: N2_12  and  N3_14 
REMARK    7  A    between atoms: N3_14  and  C10_15 
REMARK    8  A    between atoms: N3_14  and  N7_37 
REMARK    9  A    between atoms: C10_15  and  C11_16 
REMARK   10  A    between atoms: C11_16  and  N4_17 
REMARK   11  A    between atoms: C11_16  and  C15_28 
REMARK       I    between atoms: N4_17  and  C12_18 
REMARK       I    between atoms: C12_18  and  N5_20 
REMARK   12  A    between atoms: C14_23  and  N6_24 
REMARK   13  A    between atoms: C20_33  and  C21_34 
ROOT
HETATM    1  C1  UNL     1      41.724  23.187  60.365  1.00  0.00     0.013 C 
HETATM    2  C2  UNL     1      41.506  24.304  59.945  1.00  0.00    -0.089 C 
HETATM    3  C3  UNL     1      41.229  25.642  59.436  1.00  0.00     0.328 C 
ENDROOT
BRANCH   3   4
HETATM    4  N1  UNL     1      41.617  25.781  58.038  1.00  0.00    -0.065 N 
HETATM    5  C4  UNL     1      43.047  25.459  57.986  1.00  0.00     0.273 C 
HETATM    6  C5  UNL     1      41.452  27.159  57.707  1.00  0.00     0.273 C 
BRANCH   4   7
HETATM    7  C6  UNL     1      40.852  24.840  57.306  1.00  0.00     0.238 C 
BRANCH   7   8
HETATM    8  C7  UNL     1      40.428  25.116  55.937  1.00  0.00     0.037 C 
BRANCH   8   9
HETATM    9  C8  UNL     1      40.927  24.387  54.777  1.00  0.00     0.106 C 
BRANCH   9  10
HETATM   10  C9  UNL     1      42.294  24.860  54.381  1.00  0.00     0.237 C 
HETATM   11  O1  UNL     1      42.557  26.060  54.296  1.00  0.00    -0.272 OA
HETATM   12  N2  UNL     1      43.336  23.889  54.087  1.00  0.00    -0.252 N 
ATOM     13  H2  UNL     1      43.130  22.892  54.156  1.00  0.00     0.191 HD
BRANCH  12  14
HETATM   14  N3  UNL     1      44.609  24.303  53.712  1.00  0.00    -0.214 N 
BRANCH  14  15
HETATM   15  C10 UNL     1      44.882  24.423  52.327  1.00  0.00     0.215 C 
BRANCH  15  16
HETATM   16  C11 UNL     1      43.861  23.956  51.349  1.00  0.00     0.224 C 
BRANCH  16  17
HETATM   17  N4  UNL     1      44.055  22.581  51.101  1.00  0.00    -0.384 NA
HETATM   18  C12 UNL     1      44.231  21.241  50.830  1.00  0.00     0.400 C 
HETATM   19  O2  UNL     1      43.887  20.656  49.756  1.00  0.00    -0.230 OA
HETATM   20  N5  UNL     1      44.852  20.335  51.756  1.00  0.00    -0.216 N 
HETATM   21  C13 UNL     1      45.455  20.244  53.107  1.00  0.00     0.281 A 
HETATM   22  C14 UNL     1      45.380  19.104  52.278  1.00  0.00     0.389 A 
HETATM   23  O3  UNL     1      45.781  20.815  54.176  1.00  0.00    -0.268 OA
BRANCH  22  24
HETATM   24  N6  UNL     1      44.534  17.980  52.632  1.00  0.00    -0.049 N 
ATOM     25  H63 UNL     1      44.293  17.493  51.769  1.00  0.00     0.277 HD
ATOM     26  H62 UNL     1      45.118  17.294  53.110  1.00  0.00     0.277 HD
ATOM     27  H61 UNL     1      43.678  18.087  53.175  1.00  0.00     0.277 HD
ENDBRANCH  22  24
ENDBRANCH  16  17
BRANCH  16  28
HETATM   28  C15 UNL     1      44.063  24.536  49.969  1.00  0.00    -0.010 A 
HETATM   29  C16 UNL     1      45.208  24.063  49.302  1.00  0.00     0.011 A 
HETATM   30  C17 UNL     1      45.295  24.292  47.899  1.00  0.00     0.001 A 
HETATM   31  C18 UNL     1      44.312  24.951  47.235  1.00  0.00     0.001 A 
HETATM   32  C19 UNL     1      43.158  25.431  47.907  1.00  0.00     0.012 A 
HETATM   33  C20 UNL     1      43.109  25.186  49.268  1.00  0.00    -0.022 A 
BRANCH  33  34
HETATM   34  C21 UNL     1      41.971  25.757  49.993  1.00  0.00    -0.060 C 
HETATM   35  C22 UNL     1      40.842  25.078  49.975  1.00  0.00     0.019 C 
HETATM   36  C23 UNL     1      42.072  27.016  50.700  1.00  0.00     0.048 C 
ENDBRANCH  33  34
ENDBRANCH  16  28
ENDBRANCH  15  16
ENDBRANCH  14  15
BRANCH  14  37
HETATM   37  N7  UNL     1      45.610  23.840  54.532  1.00  0.00    -0.232 N 
HETATM   38  N8  UNL     1      45.725  24.144  55.711  1.00  0.00    -0.330 N 
ATOM     39  H82 UNL     1      45.027  24.782  56.094  1.00  0.00     0.178 HD
ATOM     40  H81 UNL     1      46.468  23.800  56.321  1.00  0.00     0.178 HD
ATOM     41  H7  UNL     1      46.299  23.204  54.132  1.00  0.00     0.209 HD
ENDBRANCH  14  37
ENDBRANCH  12  14
ENDBRANCH   9  10
ENDBRANCH   8   9
ENDBRANCH   7   8
ENDBRANCH   4   7
ENDBRANCH   3   4
TORSDOF 13
ENDMDL
MODEL 3
REMARK VINA RESULT: -6.682301350      2.477      3.557
REMARK  13 active torsions:
REMARK  status: ('A' for Active; 'I' for Inactive)
REMARK    1  A    between atoms: C3_3  and  N1_4 
REMARK    2  A    between atoms: N1_4  and  C6_7 
REMARK    3  A    between atoms: C6_7  and  C7_8 
REMARK    4  A    between atoms: C7_8  and  C8_9 
REMARK    5  A    between atoms: C8_9  and  C9_10 
REMARK       I    between atoms: C9_10  and  N2_12 
REMARK    6  A    between atoms: N2_12  and  N3_14 
REMARK    7  A    between atoms: N3_14  and  C10_15 
REMARK    8  A    between atoms: N3_14  and  N7_37 
REMARK    9  A    between atoms: C10_15  and  C11_16 
REMARK   10  A    between atoms: C11_16  and  N4_17 
REMARK   11  A    between atoms: C11_16  and  C15_28 
REMARK       I    between atoms: N4_17  and  C12_18 
REMARK       I    between atoms: C12_18  and  N5_20 
REMARK   12  A    between atoms: C14_23  and  N6_24 
REMARK   13  A    between atoms: C20_33  and  C21_34 
ROOT
HETATM    1  C1  UNL     1      40.324  27.127  57.486  1.00  0.00     0.013 C 
HETATM    2  C2  UNL     1      40.369  26.089  58.112  1.00  0.00    -0.089 C 
HETATM    3  C3  UNL     1      40.416  24.849  58.877  1.00  0.00     0.328 C 
ENDROOT
BRANCH   3   4
HETATM    4  N1  UNL     1      41.672  24.706  59.601  1.00  0.00    -0.065 N 
HETATM    5  C4  UNL     1      41.525  23.501  60.423  1.00  0.00     0.273 C 
HETATM    6  C5  UNL     1      41.770  25.835  60.468  1.00  0.00     0.273 C 
BRANCH   4   7
HETATM    7  C6  UNL     1      42.689  24.543  58.628  1.00  0.00     0.238 C 
BRANCH   7   8
HETATM    8  C7  UNL     1      44.009  25.137  58.811  1.00  0.00     0.037 C 
BRANCH   8   9
HETATM    9  C8  UNL     1      44.598  26.093  57.880  1.00  0.00     0.106 C 
BRANCH   9  10
HETATM   10  C9  UNL     1      45.313  25.398  56.762  1.00  0.00     0.237 C 
HETATM   11  O1  UNL     1      46.484  25.032  56.878  1.00  0.00    -0.272 OA
HETATM   12  N2  UNL     1      44.620  25.146  55.508  1.00  0.00    -0.252 N 
ATOM     13  H2  UNL     1      43.649  25.441  55.402  1.00  0.00     0.191 HD
BRANCH  12  14
HETATM   14  N3  UNL     1      45.264  24.507  54.454  1.00  0.00    -0.214 N 
BRANCH  14  15
HETATM   15  C10 UNL     1      44.754  24.714  53.149  1.00  0.00     0.215 C 
BRANCH  15  16
HETATM   16  C11 UNL     1      43.475  24.058  52.762  1.00  0.00     0.224 C 
BRANCH  16  17
HETATM   17  N4  UNL     1      43.760  22.899  52.009  1.00  0.00    -0.384 NA
HETATM   18  C12 UNL     1      44.024  21.781  51.248  1.00  0.00     0.400 C 
HETATM   19  O2  UNL     1      43.685  21.620  50.034  1.00  0.00    -0.230 OA
HETATM   20  N5  UNL     1      44.743  20.645  51.756  1.00  0.00    -0.216 N 
HETATM   21  C13 UNL     1      45.399  20.100  52.968  1.00  0.00     0.281 A 
HETATM   22  C14 UNL     1      45.378  19.357  51.768  1.00  0.00     0.389 A 
HETATM   23  O3  UNL     1      45.721  20.248  54.172  1.00  0.00    -0.268 OA
BRANCH  22  24
HETATM   24  N6  UNL     1      44.630  18.117  51.672  1.00  0.00    -0.049 N 
ATOM     25  H63 UNL     1      43.656  18.328  51.887  1.00  0.00     0.277 HD
ATOM     26  H62 UNL     1      44.584  17.861  50.686  1.00  0.00     0.277 HD
ATOM     27  H61 UNL     1      44.886  17.280  52.196  1.00  0.00     0.277 HD
ENDBRANCH  22  24
ENDBRANCH  16  17
BRANCH  16  28
HETATM   28  C15 UNL     1      42.678  24.867  51.767  1.00  0.00    -0.010 A 
HETATM   29  C16 UNL     1      43.017  24.632  50.423  1.00  0.00     0.011 A 
HETATM   30  C17 UNL     1      42.109  25.089  49.425  1.00  0.00     0.001 A 
HETATM   31  C18 UNL     1      40.964  25.737  49.762  1.00  0.00     0.001 A 
HETATM   32  C19 UNL     1      40.623  25.976  51.119  1.00  0.00     0.012 A 
HETATM   33  C20 UNL     1      41.528  25.515  52.058  1.00  0.00    -0.022 A 
BRANCH  33  34
HETATM   34  C21 UNL     1      41.239  25.838  53.457  1.00  0.00    -0.060 C 
HETATM   35  C22 UNL     1      41.763  26.945  53.942  1.00  0.00     0.019 C 
HETATM   36  C23 UNL     1      40.413  24.982  54.281  1.00  0.00     0.048 C 
ENDBRANCH  33  34
ENDBRANCH  16  28
ENDBRANCH  15  16
ENDBRANCH  14  15
BRANCH  14  37
HETATM   37  N7  UNL     1      45.751  23.262  54.771  1.00  0.00    -0.232 N 
HETATM   38  N8  UNL     1      46.929  22.944  54.684  1.00  0.00    -0.330 N 
ATOM     39  H82 UNL     1      47.577  23.659  54.354  1.00  0.00     0.178 HD
ATOM     40  H81 UNL     1      47.290  22.019  54.920  1.00  0.00     0.178 HD
ATOM     41  H7  UNL     1      45.088  22.559  55.099  1.00  0.00     0.209 HD
ENDBRANCH  14  37
ENDBRANCH  12  14
ENDBRANCH   9  10
ENDBRANCH   8   9
ENDBRANCH   7   8
ENDBRANCH   4   7
ENDBRANCH   3   4
TORSDOF 13
ENDMDL
MODEL 4
REMARK VINA RESULT: -6.624361384      2.669      4.758
REMARK  13 active torsions:
REMARK  status: ('A' for Active; 'I' for Inactive)
REMARK    1  A    between atoms: C3_3  and  N1_4 
REMARK    2  A    between atoms: N1_4  and  C6_7 
REMARK    3  A    between atoms: C6_7  and  C7_8 
REMARK    4  A    between atoms: C7_8  and  C8_9 
REMARK    5  A    between atoms: C8_9  and  C9_10 
REMARK       I    between atoms: C9_10  and  N2_12 
REMARK    6  A    between atoms: N2_12  and  N3_14 
REMARK    7  A    between atoms: N3_14  and  C10_15 
REMARK    8  A    between atoms: N3_14  and  N7_37 
REMARK    9  A    between atoms: C10_15  and  C11_16 
REMARK   10  A    between atoms: C11_16  and  N4_17 
REMARK   11  A    between atoms: C11_16  and  C15_28 
REMARK       I    between atoms: N4_17  and  C12_18 
REMARK       I    between atoms: C12_18  and  N5_20 
REMARK   12  A    between atoms: C14_23  and  N6_24 
REMARK   13  A    between atoms: C20_33  and  C21_34 
ROOT
HETATM    1  C1  UNL     1      37.779  24.341  55.582  1.00  0.00     0.013 C 
HETATM    2  C2  UNL     1      38.990  24.423  55.571  1.00  0.00    -0.089 C 
HETATM    3  C3  UNL     1      40.444  24.527  55.574  1.00  0.00     0.328 C 
ENDROOT
BRANCH   3   4
HETATM    4  N1  UNL     1      40.897  25.812  55.057  1.00  0.00    -0.065 N 
HETATM    5  C4  UNL     1      40.624  26.788  56.117  1.00  0.00     0.273 C 
HETATM    6  C5  UNL     1      40.064  26.114  53.939  1.00  0.00     0.273 C 
BRANCH   4   7
HETATM    7  C6  UNL     1      42.288  25.690  54.818  1.00  0.00     0.238 C 
BRANCH   7   8
HETATM    8  C7  UNL     1      42.874  24.415  54.415  1.00  0.00     0.037 C 
BRANCH   8   9
HETATM    9  C8  UNL     1      44.259  24.266  53.981  1.00  0.00     0.106 C 
BRANCH   9  10
HETATM   10  C9  UNL     1      44.377  23.280  52.859  1.00  0.00     0.237 C 
HETATM   11  O1  UNL     1      44.363  22.066  53.068  1.00  0.00    -0.272 OA
HETATM   12  N2  UNL     1      44.513  23.755  51.491  1.00  0.00    -0.252 N 
ATOM     13  H2  UNL     1      44.522  24.759  51.305  1.00  0.00     0.191 HD
BRANCH  12  14
HETATM   14  N3  UNL     1      44.630  22.860  50.434  1.00  0.00    -0.214 N 
BRANCH  14  15
HETATM   15  C10 UNL     1      45.252  23.320  49.247  1.00  0.00     0.215 C 
BRANCH  15  16
HETATM   16  C11 UNL     1      45.385  24.786  49.025  1.00  0.00     0.224 C 
BRANCH  16  17
HETATM   17  N4  UNL     1      44.105  25.336  48.802  1.00  0.00    -0.384 NA
HETATM   18  C12 UNL     1      42.867  25.892  48.560  1.00  0.00     0.400 C 
HETATM   19  O2  UNL     1      42.607  26.742  47.652  1.00  0.00    -0.230 OA
HETATM   20  N5  UNL     1      41.698  25.551  49.322  1.00  0.00    -0.216 N 
HETATM   21  C13 UNL     1      41.219  24.727  50.458  1.00  0.00     0.281 A 
HETATM   22  C14 UNL     1      40.323  25.548  49.738  1.00  0.00     0.389 A 
HETATM   23  O3  UNL     1      41.475  23.900  51.365  1.00  0.00    -0.268 OA
BRANCH  22  24
HETATM   24  N6  UNL     1      39.695  26.695  50.367  1.00  0.00    -0.049 N 
ATOM     25  H63 UNL     1      38.726  26.728  50.050  1.00  0.00     0.277 HD
ATOM     26  H62 UNL     1      39.591  26.484  51.359  1.00  0.00     0.277 HD
ATOM     27  H61 UNL     1      40.076  27.638  50.291  1.00  0.00     0.277 HD
ENDBRANCH  22  24
ENDBRANCH  16  17
BRANCH  16  28
HETATM   28  C15 UNL     1      46.080  25.121  47.727  1.00  0.00    -0.010 A 
HETATM   29  C16 UNL     1      45.962  24.134  46.733  1.00  0.00     0.011 A 
HETATM   30  C17 UNL     1      46.292  24.502  45.397  1.00  0.00     0.001 A 
HETATM   31  C18 UNL     1      46.714  25.758  45.100  1.00  0.00     0.001 A 
HETATM   32  C19 UNL     1      46.836  26.754  46.104  1.00  0.00     0.012 A 
HETATM   33  C20 UNL     1      46.504  26.358  47.387  1.00  0.00    -0.022 A 
BRANCH  33  34
HETATM   34  C21 UNL     1      46.715  27.345  48.449  1.00  0.00    -0.060 C 
HETATM   35  C22 UNL     1      47.846  27.276  49.121  1.00  0.00     0.019 C 
HETATM   36  C23 UNL     1      45.727  28.358  48.755  1.00  0.00     0.048 C 
ENDBRANCH  33  34
ENDBRANCH  16  28
ENDBRANCH  15  16
ENDBRANCH  14  15
BRANCH  14  37
HETATM   37  N7  UNL     1      43.570  21.993  50.318  1.00  0.00    -0.232 N 
HETATM   38  N8  UNL     1      43.683  20.777  50.247  1.00  0.00    -0.330 N 
ATOM     39  H82 UNL     1      44.630  20.399  50.277  1.00  0.00     0.178 HD
ATOM     40  H81 UNL     1      42.896  20.134  50.161  1.00  0.00     0.178 HD
ATOM     41  H7  UNL     1      42.631  22.389  50.289  1.00  0.00     0.209 HD
ENDBRANCH  14  37
ENDBRANCH  12  14
ENDBRANCH   9  10
ENDBRANCH   8   9
ENDBRANCH   7   8
ENDBRANCH   4   7
ENDBRANCH   3   4
TORSDOF 13
ENDMDL
MODEL 5
REMARK VINA RESULT: -6.621570772      1.164      2.113
REMARK  13 active torsions:
REMARK  status: ('A' for Active; 'I' for Inactive)
REMARK    1  A    between atoms: C3_3  and  N1_4 
REMARK    2  A    between atoms: N1_4  and  C6_7 
REMARK    3  A    between atoms: C6_7  and  C7_8 
REMARK    4  A    between atoms: C7_8  and  C8_9 
REMARK    5  A    between atoms: C8_9  and  C9_10 
REMARK       I    between atoms: C9_10  and  N2_12 
REMARK    6  A    between atoms: N2_12  and  N3_14 
REMARK    7  A    between atoms: N3_14  and  C10_15 
REMARK    8  A    between atoms: N3_14  and  N7_37 
REMARK    9  A    between atoms: C10_15  and  C11_16 
REMARK   10  A    between atoms: C11_16  and  N4_17 
REMARK   11  A    between atoms: C11_16  and  C15_28 
REMARK       I    between atoms: N4_17  and  C12_18 
REMARK       I    between atoms: C12_18  and  N5_20 
REMARK   12  A    between atoms: C14_23  and  N6_24 
REMARK   13  A    between atoms: C20_33  and  C21_34 
ROOT
HETATM    1  C1  UNL     1      42.841  28.113  52.181  1.00  0.00     0.013 C 
HETATM    2  C2  UNL     1      42.069  28.094  53.117  1.00  0.00    -0.089 C 
HETATM    3  C3  UNL     1      41.146  28.056  54.245  1.00  0.00     0.328 C 
ENDROOT
BRANCH   3   4
HETATM    4  N1  UNL     1      39.818  27.610  53.844  1.00  0.00    -0.065 N 
HETATM    5  C4  UNL     1      39.913  27.309  52.412  1.00  0.00     0.273 C 
HETATM    6  C5  UNL     1      38.947  28.726  54.015  1.00  0.00     0.273 C 
BRANCH   4   7
HETATM    7  C6  UNL     1      39.535  26.442  54.595  1.00  0.00     0.238 C 
BRANCH   7   8
HETATM    8  C7  UNL     1      40.176  25.169  54.279  1.00  0.00     0.037 C 
BRANCH   8   9
HETATM    9  C8  UNL     1      41.042  24.451  55.207  1.00  0.00     0.106 C 
BRANCH   9  10
HETATM   10  C9  UNL     1      42.490  24.686  54.900  1.00  0.00     0.237 C 
HETATM   11  O1  UNL     1      43.164  25.479  55.558  1.00  0.00    -0.272 OA
HETATM   12  N2  UNL     1      43.120  23.969  53.802  1.00  0.00    -0.252 N 
ATOM     13  H2  UNL     1      42.572  23.308  53.252  1.00  0.00     0.191 HD
BRANCH  12  14
HETATM   14  N3  UNL     1      44.460  24.175  53.494  1.00  0.00    -0.214 N 
BRANCH  14  15
HETATM   15  C10 UNL     1      44.808  24.309  52.127  1.00  0.00     0.215 C 
BRANCH  15  16
HETATM   16  C11 UNL     1      43.866  23.806  51.091  1.00  0.00     0.224 C 
BRANCH  16  17
HETATM   17  N4  UNL     1      44.063  22.420  50.921  1.00  0.00    -0.384 NA
HETATM   18  C12 UNL     1      44.243  21.067  50.726  1.00  0.00     0.400 C 
HETATM   19  O2  UNL     1      43.907  20.423  49.684  1.00  0.00    -0.230 OA
HETATM   20  N5  UNL     1      44.860  20.215  51.705  1.00  0.00    -0.216 N 
HETATM   21  C13 UNL     1      45.455  20.201  53.062  1.00  0.00     0.281 A 
HETATM   22  C14 UNL     1      45.387  19.016  52.297  1.00  0.00     0.389 A 
HETATM   23  O3  UNL     1      45.773  20.830  54.099  1.00  0.00    -0.268 OA
BRANCH  22  24
HETATM   24  N6  UNL     1      44.541  17.911  52.707  1.00  0.00    -0.049 N 
ATOM     25  H63 UNL     1      43.631  18.039  52.264  1.00  0.00     0.277 HD
ATOM     26  H62 UNL     1      44.889  17.070  52.247  1.00  0.00     0.277 HD
ATOM     27  H61 UNL     1      44.376  17.681  53.687  1.00  0.00     0.277 HD
ENDBRANCH  22  24
ENDBRANCH  16  17
BRANCH  16  28
HETATM   28  C15 UNL     1      44.186  24.321  49.708  1.00  0.00    -0.010 A 
HETATM   29  C16 UNL     1      45.436  23.912  49.211  1.00  0.00     0.011 A 
HETATM   30  C17 UNL     1      45.672  24.067  47.814  1.00  0.00     0.001 A 
HETATM   31  C18 UNL     1      44.727  24.600  46.998  1.00  0.00     0.001 A 
HETATM   32  C19 UNL     1      43.466  25.015  47.500  1.00  0.00     0.012 A 
HETATM   33  C20 UNL     1      43.274  24.846  48.860  1.00  0.00    -0.022 A 
BRANCH  33  34
HETATM   34  C21 UNL     1      42.016  25.357  49.409  1.00  0.00    -0.060 C 
HETATM   35  C22 UNL     1      41.660  26.579  49.068  1.00  0.00     0.019 C 
HETATM   36  C23 UNL     1      41.191  24.561  50.293  1.00  0.00     0.048 C 
ENDBRANCH  33  34
ENDBRANCH  16  28
ENDBRANCH  15  16
ENDBRANCH  14  15
BRANCH  14  37
HETATM   37  N7  UNL     1      45.331  23.511  54.324  1.00  0.00    -0.232 N 
HETATM   38  N8  UNL     1      45.830  24.001  55.328  1.00  0.00    -0.330 N 
ATOM     39  H82 UNL     1      45.573  24.963  55.548  1.00  0.00     0.178 HD
ATOM     40  H81 UNL     1      46.476  23.508  55.944  1.00  0.00     0.178 HD
ATOM     41  H7  UNL     1      45.577  22.550  54.087  1.00  0.00     0.209 HD
ENDBRANCH  14  37
ENDBRANCH  12  14
ENDBRANCH   9  10
ENDBRANCH   8   9
ENDBRANCH   7   8
ENDBRANCH   4   7
ENDBRANCH   3   4
TORSDOF 13
ENDMDL
