MODEL 1
REMARK VINA RESULT: -6.355047578      0.000      0.000
REMARK  13 active torsions:
REMARK  status: ('A' for Active; 'I' for Inactive)
REMARK    1  A    between atoms: C3_3  and  C4_4 
REMARK    2  A    between atoms: C4_4  and  C5_5 
REMARK    3  A    between atoms: C5_5  and  N1_6 
REMARK    4  A    between atoms: C8_9  and  C9_10 
REMARK       I    between atoms: C9_10  and  N2_12 
REMARK    5  A    between atoms: N2_12  and  C10_14 
REMARK    6  A    between atoms: C10_14  and  C11_15 
REMARK    7  A    between atoms: C10_14  and  C19_28 
REMARK    8  A    between atoms: C12_16  and  C13_17 
REMARK       I    between atoms: C13_17  and  N3_19 
REMARK       I    between atoms: N3_19  and  C14_21 
REMARK    9  A    between atoms: C14_21  and  C15_23 
REMARK   10  A    between atoms: C15_23  and  N4_24 
REMARK   11  A    between atoms: C19_28  and  C20_29 
REMARK   12  A    between atoms: C20_29  and  C21_30 
REMARK   13  A    between atoms: C21_30  and  N5_31 
ROOT
HETATM    1  C1  UNL     1      45.617  17.910  54.898  1.00  0.00     0.012 C 
HETATM    2  C2  UNL     1      45.815  18.416  53.824  1.00  0.00    -0.117 C 
HETATM    3  C3  UNL     1      46.051  19.018  52.492  1.00  0.00     0.095 C 
ENDROOT
BRANCH   3   4
HETATM    4  C4  UNL     1      44.772  19.269  51.782  1.00  0.00     0.034 C 
BRANCH   4   5
HETATM    5  C5  UNL     1      44.868  20.200  50.606  1.00  0.00     0.149 C 
BRANCH   5   6
HETATM    6  N1  UNL     1      44.168  21.436  50.906  1.00  0.00    -0.303 N 
HETATM    7  C6  UNL     1      44.181  22.074  52.101  1.00  0.00     0.112 A 
HETATM    8  C7  UNL     1      43.395  23.176  51.957  1.00  0.00     0.055 A 
HETATM    9  C8  UNL     1      42.894  23.220  50.672  1.00  0.00     0.117 A 
HETATM   10  N8  UNL     1      43.413  22.106  50.067  1.00  0.00    -0.294 N 
ATOM     11  H8  UNL     1      43.238  21.835  49.099  1.00  0.00     0.187 HD
BRANCH   9  12
HETATM   12  C9  UNL     1      42.016  24.204  50.065  1.00  0.00     0.270 C 
HETATM   13  O1  UNL     1      40.792  23.963  49.976  1.00  0.00    -0.266 OA
HETATM   14  N2  UNL     1      42.527  25.400  49.586  1.00  0.00    -0.341 N 
ATOM     15  H2  UNL     1      43.527  25.583  49.665  1.00  0.00     0.164 HD
BRANCH  14  16
HETATM   16  C10 UNL     1      41.644  26.425  48.958  1.00  0.00     0.165 C 
BRANCH  16  17
HETATM   17  C11 UNL     1      40.857  26.906  50.147  1.00  0.00    -0.071 C 
HETATM   18  C12 UNL     1      40.196  27.254  51.126  1.00  0.00    -0.003 C 
BRANCH  18  19
HETATM   19  C13 UNL     1      39.409  27.646  52.254  1.00  0.00     0.303 C 
HETATM   20  O2  UNL     1      38.524  28.525  52.118  1.00  0.00    -0.258 OA
HETATM   21  N3  UNL     1      39.580  27.082  53.551  1.00  0.00    -0.285 N 
HETATM   22  C14 UNL     1      38.818  27.458  54.654  1.00  0.00     0.251 C 
ATOM     23  H3  UNL     1      40.295  26.366  53.677  1.00  0.00     0.172 HD
HETATM   24  O3  UNL     1      37.929  28.330  54.549  1.00  0.00    -0.271 OA
BRANCH  22  25
HETATM   25  C15 UNL     1      39.047  26.831  55.972  1.00  0.00     0.338 C 
BRANCH  25  26
HETATM   26  N4  UNL     1      38.607  25.446  55.998  1.00  0.00    -0.070 N 
HETATM   27  C16 UNL     1      39.636  24.582  55.473  1.00  0.00     0.272 C 
HETATM   28  C17 UNL     1      38.416  25.106  57.411  1.00  0.00     0.272 C 
HETATM   29  C18 UNL     1      37.369  25.372  55.272  1.00  0.00     0.272 C 
ENDBRANCH  25  26
ENDBRANCH  22  25
ENDBRANCH  18  19
ENDBRANCH  16  17
BRANCH  16  30
HETATM   30  C19 UNL     1      42.454  27.538  48.441  1.00  0.00     0.039 C 
BRANCH  30  31
HETATM   31  C20 UNL     1      43.919  27.344  48.498  1.00  0.00     0.023 C 
BRANCH  31  32
HETATM   32  C21 UNL     1      44.577  26.818  47.291  1.00  0.00     0.122 C 
BRANCH  32  33
HETATM   33  N5  UNL     1      45.381  25.654  47.747  1.00  0.00    -0.367 N 
HETATM   34  C22 UNL     1      44.966  24.479  47.463  1.00  0.00     0.196 C 
HETATM   35  N6  UNL     1      43.772  24.310  46.733  1.00  0.00    -0.067 NA
HETATM   36  N7  UNL     1      45.721  23.340  47.892  1.00  0.00    -0.067 NA
ATOM     37  H5  UNL     1      46.243  25.790  48.274  1.00  0.00     0.161 HD
ENDBRANCH  32  33
ENDBRANCH  31  32
ENDBRANCH  30  31
ENDBRANCH  16  30
ENDBRANCH  14  16
ENDBRANCH   9  12
ENDBRANCH   5   6
ENDBRANCH   4   5
ENDBRANCH   3   4
TORSDOF 13
ENDMDL
MODEL 2
REMARK VINA RESULT: -6.242598124      3.081      7.569
REMARK  13 active torsions:
REMARK  status: ('A' for Active; 'I' for Inactive)
REMARK    1  A    between atoms: C3_3  and  C4_4 
REMARK    2  A    between atoms: C4_4  and  C5_5 
REMARK    3  A    between atoms: C5_5  and  N1_6 
REMARK    4  A    between atoms: C8_9  and  C9_10 
REMARK       I    between atoms: C9_10  and  N2_12 
REMARK    5  A    between atoms: N2_12  and  C10_14 
REMARK    6  A    between atoms: C10_14  and  C11_15 
REMARK    7  A    between atoms: C10_14  and  C19_28 
REMARK    8  A    between atoms: C12_16  and  C13_17 
REMARK       I    between atoms: C13_17  and  N3_19 
REMARK       I    between atoms: N3_19  and  C14_21 
REMARK    9  A    between atoms: C14_21  and  C15_23 
REMARK   10  A    between atoms: C15_23  and  N4_24 
REMARK   11  A    between atoms: C19_28  and  C20_29 
REMARK   12  A    between atoms: C20_29  and  C21_30 
REMARK   13  A    between atoms: C21_30  and  N5_31 
ROOT
HETATM    1  C1  UNL     1      45.670  18.112  54.115  1.00  0.00     0.012 C 
HETATM    2  C2  UNL     1      45.603  18.632  53.031  1.00  0.00    -0.117 C 
HETATM    3  C3  UNL     1      45.497  19.264  51.697  1.00  0.00     0.095 C 
ENDROOT
BRANCH   3   4
HETATM    4  C4  UNL     1      44.565  20.419  51.722  1.00  0.00     0.034 C 
BRANCH   4   5
HETATM    5  C5  UNL     1      44.913  21.498  52.710  1.00  0.00     0.149 C 
BRANCH   5   6
HETATM    6  N1  UNL     1      43.923  22.558  52.641  1.00  0.00    -0.303 N 
HETATM    7  C6  UNL     1      43.422  23.090  51.501  1.00  0.00     0.112 A 
HETATM    8  C7  UNL     1      42.539  24.054  51.883  1.00  0.00     0.055 A 
HETATM    9  C8  UNL     1      42.494  24.118  53.260  1.00  0.00     0.117 A 
HETATM   10  N8  UNL     1      43.380  23.159  53.674  1.00  0.00    -0.294 N 
ATOM     11  H8  UNL     1      43.589  22.943  54.649  1.00  0.00     0.187 HD
BRANCH   9  12
HETATM   12  C9  UNL     1      41.702  24.988  54.111  1.00  0.00     0.270 C 
HETATM   13  O1  UNL     1      42.279  25.814  54.851  1.00  0.00    -0.266 OA
HETATM   14  N2  UNL     1      40.318  24.906  54.104  1.00  0.00    -0.341 N 
ATOM     15  H2  UNL     1      39.860  24.227  53.496  1.00  0.00     0.164 HD
BRANCH  14  16
HETATM   16  C10 UNL     1      39.484  25.789  54.970  1.00  0.00     0.165 C 
BRANCH  16  17
HETATM   17  C11 UNL     1      39.059  26.848  53.990  1.00  0.00    -0.071 C 
HETATM   18  C12 UNL     1      38.750  27.704  53.160  1.00  0.00    -0.003 C 
BRANCH  18  19
HETATM   19  C13 UNL     1      38.414  28.705  52.196  1.00  0.00     0.303 C 
HETATM   20  O2  UNL     1      38.586  29.917  52.475  1.00  0.00    -0.258 OA
HETATM   21  N3  UNL     1      37.884  28.397  50.911  1.00  0.00    -0.285 N 
HETATM   22  C14 UNL     1      37.554  29.366  49.967  1.00  0.00     0.251 C 
ATOM     23  H3  UNL     1      37.738  27.416  50.669  1.00  0.00     0.172 HD
HETATM   24  O3  UNL     1      37.715  30.580  50.215  1.00  0.00    -0.271 OA
BRANCH  22  25
HETATM   25  C15 UNL     1      37.007  28.976  48.651  1.00  0.00     0.338 C 
BRANCH  25  26
HETATM   26  N4  UNL     1      38.018  29.024  47.607  1.00  0.00    -0.070 N 
HETATM   27  C16 UNL     1      39.164  28.231  47.981  1.00  0.00     0.272 C 
HETATM   28  C17 UNL     1      37.412  28.406  46.425  1.00  0.00     0.272 C 
HETATM   29  C18 UNL     1      38.330  30.407  47.371  1.00  0.00     0.272 C 
ENDBRANCH  25  26
ENDBRANCH  22  25
ENDBRANCH  18  19
ENDBRANCH  16  17
BRANCH  16  30
HETATM   30  C19 UNL     1      38.293  25.061  55.432  1.00  0.00     0.039 C 
BRANCH  30  31
HETATM   31  C20 UNL     1      38.438  24.349  56.721  1.00  0.00     0.023 C 
BRANCH  31  32
HETATM   32  C21 UNL     1      37.202  23.918  57.394  1.00  0.00     0.122 C 
BRANCH  32  33
HETATM   33  N5  UNL     1      36.609  25.152  57.972  1.00  0.00    -0.367 N 
HETATM   34  C22 UNL     1      35.442  25.083  58.487  1.00  0.00     0.196 C 
HETATM   35  N6  UNL     1      34.747  23.856  58.498  1.00  0.00    -0.067 NA
HETATM   36  N7  UNL     1      34.846  26.258  59.049  1.00  0.00    -0.067 NA
ATOM     37  H5  UNL     1      37.122  26.033  57.957  1.00  0.00     0.161 HD
ENDBRANCH  32  33
ENDBRANCH  31  32
ENDBRANCH  30  31
ENDBRANCH  16  30
ENDBRANCH  14  16
ENDBRANCH   9  12
ENDBRANCH   5   6
ENDBRANCH   4   5
ENDBRANCH   3   4
TORSDOF 13
ENDMDL
MODEL 3
REMARK VINA RESULT: -6.160967447      0.892      1.160
REMARK  13 active torsions:
REMARK  status: ('A' for Active; 'I' for Inactive)
REMARK    1  A    between atoms: C3_3  and  C4_4 
REMARK    2  A    between atoms: C4_4  and  C5_5 
REMARK    3  A    between atoms: C5_5  and  N1_6 
REMARK    4  A    between atoms: C8_9  and  C9_10 
REMARK       I    between atoms: C9_10  and  N2_12 
REMARK    5  A    between atoms: N2_12  and  C10_14 
REMARK    6  A    between atoms: C10_14  and  C11_15 
REMARK    7  A    between atoms: C10_14  and  C19_28 
REMARK    8  A    between atoms: C12_16  and  C13_17 
REMARK       I    between atoms: C13_17  and  N3_19 
REMARK       I    between atoms: N3_19  and  C14_21 
REMARK    9  A    between atoms: C14_21  and  C15_23 
REMARK   10  A    between atoms: C15_23  and  N4_24 
REMARK   11  A    between atoms: C19_28  and  C20_29 
REMARK   12  A    between atoms: C20_29  and  C21_30 
REMARK   13  A    between atoms: C21_30  and  N5_31 
ROOT
HETATM    1  C1  UNL     1      45.660  17.933  54.403  1.00  0.00     0.012 C 
HETATM    2  C2  UNL     1      45.496  18.274  53.261  1.00  0.00    -0.117 C 
HETATM    3  C3  UNL     1      45.276  18.708  51.863  1.00  0.00     0.095 C 
ENDROOT
BRANCH   3   4
HETATM    4  C4  UNL     1      45.647  20.134  51.678  1.00  0.00     0.034 C 
BRANCH   4   5
HETATM    5  C5  UNL     1      45.110  20.776  50.429  1.00  0.00     0.149 C 
BRANCH   5   6
HETATM    6  N1  UNL     1      44.238  21.881  50.786  1.00  0.00    -0.303 N 
HETATM    7  C6  UNL     1      44.122  22.419  52.024  1.00  0.00     0.112 A 
HETATM    8  C7  UNL     1      43.199  23.415  51.925  1.00  0.00     0.055 A 
HETATM    9  C8  UNL     1      42.742  23.491  50.625  1.00  0.00     0.117 A 
HETATM   10  N8  UNL     1      43.429  22.507  49.965  1.00  0.00    -0.294 N 
ATOM     11  H8  UNL     1      43.326  22.292  48.973  1.00  0.00     0.187 HD
BRANCH   9  12
HETATM   12  C9  UNL     1      41.759  24.393  50.051  1.00  0.00     0.270 C 
HETATM   13  O1  UNL     1      40.558  24.048  50.011  1.00  0.00    -0.266 OA
HETATM   14  N2  UNL     1      42.147  25.627  49.552  1.00  0.00    -0.341 N 
ATOM     15  H2  UNL     1      43.130  25.896  49.591  1.00  0.00     0.164 HD
BRANCH  14  16
HETATM   16  C10 UNL     1      41.155  26.570  48.958  1.00  0.00     0.165 C 
BRANCH  16  17
HETATM   17  C11 UNL     1      40.415  27.031  50.184  1.00  0.00    -0.071 C 
HETATM   18  C12 UNL     1      39.819  27.365  51.209  1.00  0.00    -0.003 C 
BRANCH  18  19
HETATM   19  C13 UNL     1      39.117  27.732  52.399  1.00  0.00     0.303 C 
HETATM   20  O2  UNL     1      38.212  28.600  52.344  1.00  0.00    -0.258 OA
HETATM   21  N3  UNL     1      39.396  27.155  53.672  1.00  0.00    -0.285 N 
HETATM   22  C14 UNL     1      38.717  27.506  54.836  1.00  0.00     0.251 C 
ATOM     23  H3  UNL     1      40.129  26.448  53.733  1.00  0.00     0.172 HD
HETATM   24  O3  UNL     1      37.811  28.366  54.811  1.00  0.00    -0.271 OA
BRANCH  22  25
HETATM   25  C15 UNL     1      39.057  26.867  56.124  1.00  0.00     0.338 C 
BRANCH  25  26
HETATM   26  N4  UNL     1      38.145  25.783  56.449  1.00  0.00    -0.070 N 
HETATM   27  C16 UNL     1      37.406  25.380  55.278  1.00  0.00     0.272 C 
HETATM   28  C17 UNL     1      38.985  24.654  56.859  1.00  0.00     0.272 C 
HETATM   29  C18 UNL     1      37.309  26.231  57.530  1.00  0.00     0.272 C 
ENDBRANCH  25  26
ENDBRANCH  22  25
ENDBRANCH  18  19
ENDBRANCH  16  17
BRANCH  16  30
HETATM   30  C19 UNL     1      41.850  27.720  48.361  1.00  0.00     0.039 C 
BRANCH  30  31
HETATM   31  C20 UNL     1      41.935  27.720  46.884  1.00  0.00     0.023 C 
BRANCH  31  32
HETATM   32  C21 UNL     1      42.409  26.485  46.237  1.00  0.00     0.122 C 
BRANCH  32  33
HETATM   33  N5  UNL     1      43.891  26.526  46.334  1.00  0.00    -0.367 N 
HETATM   34  C22 UNL     1      44.501  25.497  46.784  1.00  0.00     0.196 C 
HETATM   35  N6  UNL     1      43.767  24.358  47.173  1.00  0.00    -0.067 NA
HETATM   36  N7  UNL     1      45.929  25.511  46.889  1.00  0.00    -0.067 NA
ATOM     37  H5  UNL     1      44.410  27.357  46.048  1.00  0.00     0.161 HD
ENDBRANCH  32  33
ENDBRANCH  31  32
ENDBRANCH  30  31
ENDBRANCH  16  30
ENDBRANCH  14  16
ENDBRANCH   9  12
ENDBRANCH   5   6
ENDBRANCH   4   5
ENDBRANCH   3   4
TORSDOF 13
ENDMDL
MODEL 4
REMARK VINA RESULT: -6.115310075      2.270      3.266
REMARK  13 active torsions:
REMARK  status: ('A' for Active; 'I' for Inactive)
REMARK    1  A    between atoms: C3_3  and  C4_4 
REMARK    2  A    between atoms: C4_4  and  C5_5 
REMARK    3  A    between atoms: C5_5  and  N1_6 
REMARK    4  A    between atoms: C8_9  and  C9_10 
REMARK       I    between atoms: C9_10  and  N2_12 
REMARK    5  A    between atoms: N2_12  and  C10_14 
REMARK    6  A    between atoms: C10_14  and  C11_15 
REMARK    7  A    between atoms: C10_14  and  C19_28 
REMARK    8  A    between atoms: C12_16  and  C13_17 
REMARK       I    between atoms: C13_17  and  N3_19 
REMARK       I    between atoms: N3_19  and  C14_21 
REMARK    9  A    between atoms: C14_21  and  C15_23 
REMARK   10  A    between atoms: C15_23  and  N4_24 
REMARK   11  A    between atoms: C19_28  and  C20_29 
REMARK   12  A    between atoms: C20_29  and  C21_30 
REMARK   13  A    between atoms: C21_30  and  N5_31 
ROOT
HETATM    1  C1  UNL     1      45.666  18.085  54.414  1.00  0.00     0.012 C 
HETATM    2  C2  UNL     1      45.679  18.346  53.239  1.00  0.00    -0.117 C 
HETATM    3  C3  UNL     1      45.675  18.656  51.792  1.00  0.00     0.095 C 
ENDROOT
BRANCH   3   4
HETATM    4  C4  UNL     1      44.561  19.573  51.441  1.00  0.00     0.034 C 
BRANCH   4   5
HETATM    5  C5  UNL     1      44.942  20.732  50.563  1.00  0.00     0.149 C 
BRANCH   5   6
HETATM    6  N1  UNL     1      44.119  21.882  50.892  1.00  0.00    -0.303 N 
HETATM    7  C6  UNL     1      44.167  22.573  52.056  1.00  0.00     0.112 A 
HETATM    8  C7  UNL     1      43.232  23.558  51.958  1.00  0.00     0.055 A 
HETATM    9  C8  UNL     1      42.604  23.476  50.732  1.00  0.00     0.117 A 
HETATM   10  N8  UNL     1      43.203  22.410  50.115  1.00  0.00    -0.294 N 
ATOM     11  H8  UNL     1      42.969  22.073  49.180  1.00  0.00     0.187 HD
BRANCH   9  12
HETATM   12  C9  UNL     1      41.549  24.310  50.187  1.00  0.00     0.270 C 
HETATM   13  O1  UNL     1      40.368  23.899  50.209  1.00  0.00    -0.266 OA
HETATM   14  N2  UNL     1      41.844  25.551  49.645  1.00  0.00    -0.341 N 
ATOM     15  H2  UNL     1      42.811  25.874  49.632  1.00  0.00     0.164 HD
BRANCH  14  16
HETATM   16  C10 UNL     1      40.775  26.425  49.079  1.00  0.00     0.165 C 
BRANCH  16  17
HETATM   17  C11 UNL     1      40.142  26.966  50.331  1.00  0.00    -0.071 C 
HETATM   18  C12 UNL     1      39.616  27.363  51.372  1.00  0.00    -0.003 C 
BRANCH  18  19
HETATM   19  C13 UNL     1      38.990  27.807  52.578  1.00  0.00     0.303 C 
HETATM   20  O2  UNL     1      38.200  28.782  52.545  1.00  0.00    -0.258 OA
HETATM   21  N3  UNL     1      39.219  27.191  53.842  1.00  0.00    -0.285 N 
HETATM   22  C14 UNL     1      38.614  27.618  55.021  1.00  0.00     0.251 C 
ATOM     23  H3  UNL     1      39.859  26.398  53.886  1.00  0.00     0.172 HD
HETATM   24  O3  UNL     1      37.822  28.585  55.019  1.00  0.00    -0.271 OA
BRANCH  22  25
HETATM   25  C15 UNL     1      38.896  26.933  56.300  1.00  0.00     0.338 C 
BRANCH  25  26
HETATM   26  N4  UNL     1      38.001  25.810  56.523  1.00  0.00    -0.070 N 
HETATM   27  C16 UNL     1      37.403  25.389  55.279  1.00  0.00     0.272 C 
HETATM   28  C17 UNL     1      38.839  24.711  57.010  1.00  0.00     0.272 C 
HETATM   29  C18 UNL     1      37.041  26.213  57.514  1.00  0.00     0.272 C 
ENDBRANCH  25  26
ENDBRANCH  22  25
ENDBRANCH  18  19
ENDBRANCH  16  17
BRANCH  16  30
HETATM   30  C19 UNL     1      41.380  27.537  48.331  1.00  0.00     0.039 C 
BRANCH  30  31
HETATM   31  C20 UNL     1      40.867  27.740  46.958  1.00  0.00     0.023 C 
BRANCH  31  32
HETATM   32  C21 UNL     1      40.025  28.924  46.722  1.00  0.00     0.122 C 
BRANCH  32  33
HETATM   33  N5  UNL     1      38.694  28.396  46.325  1.00  0.00    -0.367 N 
HETATM   34  C22 UNL     1      37.717  28.532  47.137  1.00  0.00     0.196 C 
HETATM   35  N6  UNL     1      37.916  29.173  48.377  1.00  0.00    -0.067 NA
HETATM   36  N7  UNL     1      36.424  28.031  46.780  1.00  0.00    -0.067 NA
ATOM     37  H5  UNL     1      38.563  27.934  45.425  1.00  0.00     0.161 HD
ENDBRANCH  32  33
ENDBRANCH  31  32
ENDBRANCH  30  31
ENDBRANCH  16  30
ENDBRANCH  14  16
ENDBRANCH   9  12
ENDBRANCH   5   6
ENDBRANCH   4   5
ENDBRANCH   3   4
TORSDOF 13
ENDMDL
MODEL 5
REMARK VINA RESULT: -6.096271233      1.613      2.123
REMARK  13 active torsions:
REMARK  status: ('A' for Active; 'I' for Inactive)
REMARK    1  A    between atoms: C3_3  and  C4_4 
REMARK    2  A    between atoms: C4_4  and  C5_5 
REMARK    3  A    between atoms: C5_5  and  N1_6 
REMARK    4  A    between atoms: C8_9  and  C9_10 
REMARK       I    between atoms: C9_10  and  N2_12 
REMARK    5  A    between atoms: N2_12  and  C10_14 
REMARK    6  A    between atoms: C10_14  and  C11_15 
REMARK    7  A    between atoms: C10_14  and  C19_28 
REMARK    8  A    between atoms: C12_16  and  C13_17 
REMARK       I    between atoms: C13_17  and  N3_19 
REMARK       I    between atoms: N3_19  and  C14_21 
REMARK    9  A    between atoms: C14_21  and  C15_23 
REMARK   10  A    between atoms: C15_23  and  N4_24 
REMARK   11  A    between atoms: C19_28  and  C20_29 
REMARK   12  A    between atoms: C20_29  and  C21_30 
REMARK   13  A    between atoms: C21_30  and  N5_31 
ROOT
HETATM    1  C1  UNL     1      45.984  18.629  54.036  1.00  0.00     0.012 C 
HETATM    2  C2  UNL     1      45.514  18.663  52.928  1.00  0.00    -0.117 C 
HETATM    3  C3  UNL     1      44.913  18.709  51.576  1.00  0.00     0.095 C 
ENDROOT
BRANCH   3   4
HETATM    4  C4  UNL     1      44.411  20.069  51.256  1.00  0.00     0.034 C 
BRANCH   4   5
HETATM    5  C5  UNL     1      45.288  20.873  50.339  1.00  0.00     0.149 C 
BRANCH   5   6
HETATM    6  N1  UNL     1      44.662  22.155  50.068  1.00  0.00    -0.303 N 
HETATM    7  C6  UNL     1      45.310  23.274  49.663  1.00  0.00     0.112 A 
HETATM    8  C7  UNL     1      44.362  24.243  49.537  1.00  0.00     0.055 A 
HETATM    9  C8  UNL     1      43.126  23.723  49.865  1.00  0.00     0.117 A 
HETATM   10  N8  UNL     1      43.382  22.417  50.187  1.00  0.00    -0.294 N 
ATOM     11  H8  UNL     1      42.675  21.741  50.480  1.00  0.00     0.187 HD
BRANCH   9  12
HETATM   12  C9  UNL     1      41.831  24.379  49.878  1.00  0.00     0.270 C 
HETATM   13  O1  UNL     1      40.821  23.737  50.239  1.00  0.00    -0.266 OA
HETATM   14  N2  UNL     1      41.713  25.706  49.492  1.00  0.00    -0.341 N 
ATOM     15  H2  UNL     1      42.545  26.217  49.200  1.00  0.00     0.164 HD
BRANCH  14  16
HETATM   16  C10 UNL     1      40.392  26.400  49.497  1.00  0.00     0.165 C 
BRANCH  16  17
HETATM   17  C11 UNL     1      40.212  26.683  50.963  1.00  0.00    -0.071 C 
HETATM   18  C12 UNL     1      40.097  26.880  52.173  1.00  0.00    -0.003 C 
BRANCH  18  19
HETATM   19  C13 UNL     1      39.964  27.085  53.582  1.00  0.00     0.303 C 
HETATM   20  O2  UNL     1      40.848  27.726  54.202  1.00  0.00    -0.258 OA
HETATM   21  N3  UNL     1      38.862  26.590  54.337  1.00  0.00    -0.285 N 
HETATM   22  C14 UNL     1      38.725  26.785  55.709  1.00  0.00     0.251 C 
ATOM     23  H3  UNL     1      38.136  26.067  53.847  1.00  0.00     0.172 HD
HETATM   24  O3  UNL     1      39.588  27.420  56.352  1.00  0.00    -0.271 OA
BRANCH  22  25
HETATM   25  C15 UNL     1      37.555  26.244  56.430  1.00  0.00     0.338 C 
BRANCH  25  26
HETATM   26  N4  UNL     1      37.751  24.858  56.820  1.00  0.00    -0.070 N 
HETATM   27  C16 UNL     1      38.922  24.730  57.652  1.00  0.00     0.272 C 
HETATM   28  C17 UNL     1      36.585  24.494  57.630  1.00  0.00     0.272 C 
HETATM   29  C18 UNL     1      37.814  24.075  55.615  1.00  0.00     0.272 C 
ENDBRANCH  25  26
ENDBRANCH  22  25
ENDBRANCH  18  19
ENDBRANCH  16  17
BRANCH  16  30
HETATM   30  C19 UNL     1      40.493  27.676  48.773  1.00  0.00     0.039 C 
BRANCH  30  31
HETATM   31  C20 UNL     1      40.273  27.604  47.313  1.00  0.00     0.023 C 
BRANCH  31  32
HETATM   32  C21 UNL     1      41.368  28.062  46.442  1.00  0.00     0.122 C 
BRANCH  32  33
HETATM   33  N5  UNL     1      41.844  26.850  45.726  1.00  0.00    -0.367 N 
HETATM   34  C22 UNL     1      42.935  26.306  46.108  1.00  0.00     0.196 C 
HETATM   35  N6  UNL     1      43.658  26.857  47.186  1.00  0.00    -0.067 NA
HETATM   36  N7  UNL     1      43.417  25.138  45.434  1.00  0.00    -0.067 NA
ATOM     37  H5  UNL     1      41.312  26.462  44.948  1.00  0.00     0.161 HD
ENDBRANCH  32  33
ENDBRANCH  31  32
ENDBRANCH  30  31
ENDBRANCH  16  30
ENDBRANCH  14  16
ENDBRANCH   9  12
ENDBRANCH   5   6
ENDBRANCH   4   5
ENDBRANCH   3   4
TORSDOF 13
ENDMDL
