MODEL 1
REMARK VINA RESULT: -7.342053200      0.000      0.000
REMARK  13 active torsions:
REMARK  status: ('A' for Active; 'I' for Inactive)
REMARK    1  A    between atoms: N1_3  and  C3_5 
REMARK    2  A    between atoms: C3_5  and  N2_6 
REMARK    3  A    between atoms: N2_6  and  N3_7 
REMARK    4  A    between atoms: N2_6  and  C4_10 
REMARK    5  A    between atoms: C4_10  and  C5_11 
REMARK    6  A    between atoms: C6_12  and  C7_13 
REMARK    7  A    between atoms: C7_13  and  C8_14 
REMARK    8  A    between atoms: C14_23  and  C15_24 
REMARK    9  A    between atoms: N5_26  and  C17_27 
REMARK   10  A    between atoms: C17_27  and  C18_28 
REMARK   11  A    between atoms: C18_28  and  C19_29 
REMARK   12  A    between atoms: C19_29  and  C20_30 
REMARK   13  A    between atoms: C20_30  and  N6_31 
ROOT
HETATM    1  C1  UNL     1      13.052 -14.184  21.279  1.00  0.00     0.037 C 
HETATM    2  C2  UNL     1      12.468 -13.326  21.915  1.00  0.00    -0.004 C 
HETATM    3  N1  UNL     1      11.802 -12.328  22.629  1.00  0.00    -0.337 N 
ATOM      4  H1  UNL     1      11.355 -12.560  23.516  1.00  0.00     0.171 HD
ENDROOT
BRANCH   3   5
HETATM    5  C3  UNL     1      11.734 -10.952  22.128  1.00  0.00     0.243 C 
BRANCH   5   6
HETATM    6  N2  UNL     1      12.851 -10.177  22.628  1.00  0.00    -0.209 NA
BRANCH   6   7
HETATM    7  N3  UNL     1      12.361  -9.194  23.467  1.00  0.00    -0.361 NA
ATOM      8  H32 UNL     1      12.163  -9.579  24.390  1.00  0.00     0.171 HD
ATOM      9  H31 UNL     1      13.039  -8.432  23.502  1.00  0.00     0.171 HD
ENDBRANCH   6   7
BRANCH   6  10
HETATM   10  C4  UNL     1      13.625  -9.595  21.573  1.00  0.00     0.208 C 
BRANCH  10  11
HETATM   11  C5  UNL     1      14.615 -10.543  21.041  1.00  0.00    -0.090 C 
HETATM   12  C6  UNL     1      15.409 -11.330  20.598  1.00  0.00    -0.103 C 
BRANCH  12  13
HETATM   13  C7  UNL     1      16.393 -12.326  20.066  1.00  0.00     0.124 C 
BRANCH  13  14
HETATM   14  C8  UNL     1      17.772 -11.781  20.167  1.00  0.00     0.135 C 
HETATM   15  N4  UNL     1      18.579 -12.057  18.949  1.00  0.00    -0.347 N 
HETATM   16  C9  UNL     1      19.702 -11.894  19.807  1.00  0.00     0.251 C 
ATOM     17  H4  UNL     1      18.409 -12.264  17.965  1.00  0.00     0.163 HD
HETATM   18  O1  UNL     1      20.862 -11.462  19.793  1.00  0.00    -0.268 OA
HETATM   19  C10 UNL     1      18.822 -12.526  20.857  1.00  0.00     0.045 C 
HETATM   20  C11 UNL     1      19.214 -13.323  21.798  1.00  0.00     0.024 C 
HETATM   21  C12 UNL     1      20.661 -13.768  21.980  1.00  0.00     0.047 C 
HETATM   22  C24 UNL     1      18.319 -13.884  22.813  1.00  0.00     0.254 C 
HETATM   23  C13 UNL     1      20.998 -13.353  23.378  1.00  0.00     0.030 C 
HETATM   24  C14 UNL     1      20.143 -14.005  24.451  1.00  0.00     0.092 C 
HETATM   25  N5  UNL     1      18.925 -14.553  23.965  1.00  0.00    -0.323 N 
HETATM   26  O2  UNL     1      17.103 -13.786  22.680  1.00  0.00    -0.267 OA
BRANCH  24  27
HETATM   27  C15 UNL     1      20.060 -12.977  25.540  1.00  0.00     0.021 C 
HETATM   28  C16 UNL     1      21.204 -13.044  26.521  1.00  0.00     0.007 C 
ENDBRANCH  24  27
BRANCH  25  29
HETATM   29  C17 UNL     1      18.311 -15.719  24.436  1.00  0.00     0.068 C 
BRANCH  29  30
HETATM   30  C18 UNL     1      18.463 -17.028  23.808  1.00  0.00     0.046 C 
BRANCH  30  31
HETATM   31  C19 UNL     1      19.698 -17.394  23.079  1.00  0.00     0.025 C 
BRANCH  31  32
HETATM   32  C20 UNL     1      20.736 -18.044  23.971  1.00  0.00     0.129 C 
BRANCH  32  33
HETATM   33  N6  UNL     1      21.830 -17.193  24.321  1.00  0.00    -0.352 N 
HETATM   34  C21 UNL     1      22.768 -16.642  23.536  1.00  0.00     0.108 A 
HETATM   35  C22 UNL     1      23.603 -15.899  24.337  1.00  0.00     0.106 A 
HETATM   36  N7  UNL     1      23.134 -16.027  25.602  1.00  0.00    -0.361 N 
HETATM   37  C23 UNL     1      22.049 -16.816  25.604  1.00  0.00     0.182 A 
ATOM     38  H7  UNL     1      23.544 -15.590  26.428  1.00  0.00     0.166 HD
ENDBRANCH  32  33
ENDBRANCH  31  32
ENDBRANCH  30  31
ENDBRANCH  29  30
ENDBRANCH  25  29
ENDBRANCH  13  14
ENDBRANCH  12  13
ENDBRANCH  10  11
ENDBRANCH   6  10
ENDBRANCH   5   6
ENDBRANCH   3   5
TORSDOF 13
ENDMDL
MODEL 2
REMARK VINA RESULT: -7.323540129      1.559      2.203
REMARK  13 active torsions:
REMARK  status: ('A' for Active; 'I' for Inactive)
REMARK    1  A    between atoms: N1_3  and  C3_5 
REMARK    2  A    between atoms: C3_5  and  N2_6 
REMARK    3  A    between atoms: N2_6  and  N3_7 
REMARK    4  A    between atoms: N2_6  and  C4_10 
REMARK    5  A    between atoms: C4_10  and  C5_11 
REMARK    6  A    between atoms: C6_12  and  C7_13 
REMARK    7  A    between atoms: C7_13  and  C8_14 
REMARK    8  A    between atoms: C14_23  and  C15_24 
REMARK    9  A    between atoms: N5_26  and  C17_27 
REMARK   10  A    between atoms: C17_27  and  C18_28 
REMARK   11  A    between atoms: C18_28  and  C19_29 
REMARK   12  A    between atoms: C19_29  and  C20_30 
REMARK   13  A    between atoms: C20_30  and  N6_31 
ROOT
HETATM    1  C1  UNL     1      11.332  -9.473  24.049  1.00  0.00     0.037 C 
HETATM    2  C2  UNL     1      11.860  -9.936  23.055  1.00  0.00    -0.004 C 
HETATM    3  N1  UNL     1      12.482 -10.452  21.917  1.00  0.00    -0.337 N 
ATOM      4  H1  UNL     1      12.067 -11.253  21.440  1.00  0.00     0.171 HD
ENDROOT
BRANCH   3   5
HETATM    5  C3  UNL     1      13.719  -9.865  21.394  1.00  0.00     0.243 C 
BRANCH   5   6
HETATM    6  N2  UNL     1      13.781 -10.020  19.955  1.00  0.00    -0.209 NA
BRANCH   6   7
HETATM    7  N3  UNL     1      12.826  -9.199  19.385  1.00  0.00    -0.361 NA
ATOM      8  H32 UNL     1      13.269  -8.489  18.801  1.00  0.00     0.171 HD
ATOM      9  H31 UNL     1      12.173  -9.780  18.859  1.00  0.00     0.171 HD
ENDBRANCH   6   7
BRANCH   6  10
HETATM   10  C4  UNL     1      13.583 -11.377  19.545  1.00  0.00     0.208 C 
BRANCH  10  11
HETATM   11  C5  UNL     1      14.831 -12.151  19.612  1.00  0.00    -0.090 C 
HETATM   12  C6  UNL     1      15.857 -12.773  19.684  1.00  0.00    -0.103 C 
BRANCH  12  13
HETATM   13  C7  UNL     1      17.149 -13.528  19.763  1.00  0.00     0.124 C 
BRANCH  13  14
HETATM   14  C8  UNL     1      18.263 -12.597  20.080  1.00  0.00     0.135 C 
HETATM   15  N4  UNL     1      19.289 -12.556  19.006  1.00  0.00    -0.347 N 
HETATM   16  C9  UNL     1      20.165 -12.102  20.030  1.00  0.00     0.251 C 
ATOM     17  H4  UNL     1      19.340 -12.757  18.007  1.00  0.00     0.163 HD
HETATM   18  O1  UNL     1      21.125 -11.339  20.199  1.00  0.00    -0.268 OA
HETATM   19  C10 UNL     1      19.375 -13.021  20.928  1.00  0.00     0.045 C 
HETATM   20  C11 UNL     1      19.846 -13.705  21.919  1.00  0.00     0.024 C 
HETATM   21  C12 UNL     1      21.315 -13.699  22.327  1.00  0.00     0.047 C 
HETATM   22  C24 UNL     1      19.024 -14.559  22.780  1.00  0.00     0.254 C 
HETATM   23  C13 UNL     1      21.295 -13.270  23.761  1.00  0.00     0.030 C 
HETATM   24  C14 UNL     1      20.529 -14.200  24.686  1.00  0.00     0.092 C 
HETATM   25  N5  UNL     1      19.626 -15.068  24.014  1.00  0.00    -0.323 N 
HETATM   26  O2  UNL     1      17.871 -14.828  22.457  1.00  0.00    -0.267 OA
BRANCH  24  27
HETATM   27  C15 UNL     1      19.972 -13.299  25.748  1.00  0.00     0.021 C 
HETATM   28  C16 UNL     1      21.033 -12.592  26.556  1.00  0.00     0.007 C 
ENDBRANCH  24  27
BRANCH  25  29
HETATM   29  C17 UNL     1      19.335 -16.386  24.383  1.00  0.00     0.068 C 
BRANCH  29  30
HETATM   30  C18 UNL     1      20.253 -17.504  24.190  1.00  0.00     0.046 C 
BRANCH  30  31
HETATM   31  C19 UNL     1      21.518 -17.342  23.438  1.00  0.00     0.025 C 
BRANCH  31  32
HETATM   32  C20 UNL     1      22.709 -17.090  24.341  1.00  0.00     0.129 C 
BRANCH  32  33
HETATM   33  N6  UNL     1      23.873 -16.614  23.662  1.00  0.00    -0.352 N 
HETATM   34  C21 UNL     1      24.658 -17.239  22.771  1.00  0.00     0.108 A 
HETATM   35  C22 UNL     1      25.653 -16.364  22.400  1.00  0.00     0.106 A 
HETATM   36  N7  UNL     1      25.432 -15.219  23.092  1.00  0.00    -0.361 N 
HETATM   37  C23 UNL     1      24.346 -15.360  23.866  1.00  0.00     0.182 A 
ATOM     38  H7  UNL     1      26.006 -14.377  23.032  1.00  0.00     0.166 HD
ENDBRANCH  32  33
ENDBRANCH  31  32
ENDBRANCH  30  31
ENDBRANCH  29  30
ENDBRANCH  25  29
ENDBRANCH  13  14
ENDBRANCH  12  13
ENDBRANCH  10  11
ENDBRANCH   6  10
ENDBRANCH   5   6
ENDBRANCH   3   5
TORSDOF 13
ENDMDL
MODEL 3
REMARK VINA RESULT: -7.238330917      2.321      3.773
REMARK  13 active torsions:
REMARK  status: ('A' for Active; 'I' for Inactive)
REMARK    1  A    between atoms: N1_3  and  C3_5 
REMARK    2  A    between atoms: C3_5  and  N2_6 
REMARK    3  A    between atoms: N2_6  and  N3_7 
REMARK    4  A    between atoms: N2_6  and  C4_10 
REMARK    5  A    between atoms: C4_10  and  C5_11 
REMARK    6  A    between atoms: C6_12  and  C7_13 
REMARK    7  A    between atoms: C7_13  and  C8_14 
REMARK    8  A    between atoms: C14_23  and  C15_24 
REMARK    9  A    between atoms: N5_26  and  C17_27 
REMARK   10  A    between atoms: C17_27  and  C18_28 
REMARK   11  A    between atoms: C18_28  and  C19_29 
REMARK   12  A    between atoms: C19_29  and  C20_30 
REMARK   13  A    between atoms: C20_30  and  N6_31 
ROOT
HETATM    1  C1  UNL     1      12.082  -7.293  24.628  1.00  0.00     0.037 C 
HETATM    2  C2  UNL     1      11.657  -8.375  24.266  1.00  0.00    -0.004 C 
HETATM    3  N1  UNL     1      11.187  -9.617  23.837  1.00  0.00    -0.337 N 
ATOM      4  H1  UNL     1      10.345 -10.007  24.261  1.00  0.00     0.171 HD
ENDROOT
BRANCH   3   5
HETATM    5  C3  UNL     1      11.881 -10.372  22.791  1.00  0.00     0.243 C 
BRANCH   5   6
HETATM    6  N2  UNL     1      11.205 -11.630  22.545  1.00  0.00    -0.209 NA
BRANCH   6   7
HETATM    7  N3  UNL     1      10.300 -11.848  23.566  1.00  0.00    -0.361 NA
ATOM      8  H32 UNL     1       9.373 -12.038  23.186  1.00  0.00     0.171 HD
ATOM      9  H31 UNL     1      10.645 -12.613  24.146  1.00  0.00     0.171 HD
ENDBRANCH   6   7
BRANCH   6  10
HETATM   10  C4  UNL     1      12.120 -12.728  22.444  1.00  0.00     0.208 C 
BRANCH  10  11
HETATM   11  C5  UNL     1      13.119 -12.506  21.390  1.00  0.00    -0.090 C 
HETATM   12  C6  UNL     1      13.946 -12.310  20.539  1.00  0.00    -0.103 C 
BRANCH  12  13
HETATM   13  C7  UNL     1      14.964 -12.043  19.473  1.00  0.00     0.124 C 
BRANCH  13  14
HETATM   14  C8  UNL     1      15.471 -13.328  18.922  1.00  0.00     0.135 C 
HETATM   15  N4  UNL     1      14.374 -14.283  18.615  1.00  0.00    -0.347 N 
HETATM   16  C9  UNL     1      15.377 -15.283  18.741  1.00  0.00     0.251 C 
ATOM     17  H4  UNL     1      13.376 -14.241  18.410  1.00  0.00     0.163 HD
HETATM   18  O1  UNL     1      15.704 -16.377  18.262  1.00  0.00    -0.268 OA
HETATM   19  C10 UNL     1      15.949 -14.385  19.810  1.00  0.00     0.045 C 
HETATM   20  C11 UNL     1      16.539 -14.774  20.894  1.00  0.00     0.024 C 
HETATM   21  C12 UNL     1      16.734 -16.238  21.271  1.00  0.00     0.047 C 
HETATM   22  C24 UNL     1      17.105 -13.854  21.884  1.00  0.00     0.254 C 
HETATM   23  C13 UNL     1      18.214 -16.376  21.447  1.00  0.00     0.030 C 
HETATM   24  C14 UNL     1      18.803 -15.502  22.541  1.00  0.00     0.092 C 
HETATM   25  N5  UNL     1      17.969 -14.417  22.924  1.00  0.00    -0.323 N 
HETATM   26  O2  UNL     1      16.850 -12.656  21.826  1.00  0.00    -0.267 OA
BRANCH  24  27
HETATM   27  C15 UNL     1      20.188 -15.182  22.061  1.00  0.00     0.021 C 
HETATM   28  C16 UNL     1      20.349 -13.756  21.593  1.00  0.00     0.007 C 
ENDBRANCH  24  27
BRANCH  25  29
HETATM   29  C17 UNL     1      17.842 -13.905  24.220  1.00  0.00     0.068 C 
BRANCH  29  30
HETATM   30  C18 UNL     1      17.871 -14.730  25.425  1.00  0.00     0.046 C 
BRANCH  30  31
HETATM   31  C19 UNL     1      19.125 -14.944  26.181  1.00  0.00     0.025 C 
BRANCH  31  32
HETATM   32  C20 UNL     1      20.025 -13.725  26.185  1.00  0.00     0.129 C 
BRANCH  32  33
HETATM   33  N6  UNL     1      21.261 -13.901  25.488  1.00  0.00    -0.352 N 
HETATM   34  C21 UNL     1      21.995 -13.005  24.812  1.00  0.00     0.108 A 
HETATM   35  C22 UNL     1      23.104 -13.654  24.322  1.00  0.00     0.106 A 
HETATM   36  N7  UNL     1      23.002 -14.945  24.724  1.00  0.00    -0.361 N 
HETATM   37  C23 UNL     1      21.878 -15.107  25.440  1.00  0.00     0.182 A 
ATOM     38  H7  UNL     1      23.676 -15.680  24.516  1.00  0.00     0.166 HD
ENDBRANCH  32  33
ENDBRANCH  31  32
ENDBRANCH  30  31
ENDBRANCH  29  30
ENDBRANCH  25  29
ENDBRANCH  13  14
ENDBRANCH  12  13
ENDBRANCH  10  11
ENDBRANCH   6  10
ENDBRANCH   5   6
ENDBRANCH   3   5
TORSDOF 13
ENDMDL
MODEL 4
REMARK VINA RESULT: -7.234287152      1.883      3.906
REMARK  13 active torsions:
REMARK  status: ('A' for Active; 'I' for Inactive)
REMARK    1  A    between atoms: N1_3  and  C3_5 
REMARK    2  A    between atoms: C3_5  and  N2_6 
REMARK    3  A    between atoms: N2_6  and  N3_7 
REMARK    4  A    between atoms: N2_6  and  C4_10 
REMARK    5  A    between atoms: C4_10  and  C5_11 
REMARK    6  A    between atoms: C6_12  and  C7_13 
REMARK    7  A    between atoms: C7_13  and  C8_14 
REMARK    8  A    between atoms: C14_23  and  C15_24 
REMARK    9  A    between atoms: N5_26  and  C17_27 
REMARK   10  A    between atoms: C17_27  and  C18_28 
REMARK   11  A    between atoms: C18_28  and  C19_29 
REMARK   12  A    between atoms: C19_29  and  C20_30 
REMARK   13  A    between atoms: C20_30  and  N6_31 
ROOT
HETATM    1  C1  UNL     1      12.045  -7.418  24.553  1.00  0.00     0.037 C 
HETATM    2  C2  UNL     1      11.591  -8.469  24.140  1.00  0.00    -0.004 C 
HETATM    3  N1  UNL     1      11.089  -9.680  23.660  1.00  0.00    -0.337 N 
ATOM      4  H1  UNL     1      10.101  -9.900  23.789  1.00  0.00     0.171 HD
ENDROOT
BRANCH   3   5
HETATM    5  C3  UNL     1      11.955 -10.642  22.972  1.00  0.00     0.243 C 
BRANCH   5   6
HETATM    6  N2  UNL     1      12.294 -10.160  21.649  1.00  0.00    -0.209 NA
BRANCH   6   7
HETATM    7  N3  UNL     1      12.185 -11.212  20.758  1.00  0.00    -0.361 NA
ATOM      8  H32 UNL     1      12.902 -11.913  20.945  1.00  0.00     0.171 HD
ATOM      9  H31 UNL     1      11.242 -11.595  20.826  1.00  0.00     0.171 HD
ENDBRANCH   6   7
BRANCH   6  10
HETATM   10  C4  UNL     1      13.609  -9.595  21.596  1.00  0.00     0.208 C 
BRANCH  10  11
HETATM   11  C5  UNL     1      14.586 -10.546  21.050  1.00  0.00    -0.090 C 
HETATM   12  C6  UNL     1      15.385 -11.315  20.584  1.00  0.00    -0.103 C 
BRANCH  12  13
HETATM   13  C7  UNL     1      16.361 -12.285  19.991  1.00  0.00     0.124 C 
BRANCH  13  14
HETATM   14  C8  UNL     1      17.747 -11.771  20.151  1.00  0.00     0.135 C 
HETATM   15  N4  UNL     1      18.581 -12.007  18.943  1.00  0.00    -0.347 N 
HETATM   16  C9  UNL     1      19.683 -11.905  19.836  1.00  0.00     0.251 C 
ATOM     17  H4  UNL     1      18.432 -12.167  17.947  1.00  0.00     0.163 HD
HETATM   18  O1  UNL     1      20.851 -11.495  19.870  1.00  0.00    -0.268 OA
HETATM   19  C10 UNL     1      18.765 -12.566  20.834  1.00  0.00     0.045 C 
HETATM   20  C11 UNL     1      19.118 -13.411  21.747  1.00  0.00     0.024 C 
HETATM   21  C12 UNL     1      20.552 -13.892  21.945  1.00  0.00     0.047 C 
HETATM   22  C24 UNL     1      18.187 -14.000  22.713  1.00  0.00     0.254 C 
HETATM   23  C13 UNL     1      20.860 -13.546  23.369  1.00  0.00     0.030 C 
HETATM   24  C14 UNL     1      19.965 -14.229  24.390  1.00  0.00     0.092 C 
HETATM   25  N5  UNL     1      18.751 -14.731  23.848  1.00  0.00    -0.323 N 
HETATM   26  O2  UNL     1      16.977 -13.873  22.554  1.00  0.00    -0.267 OA
BRANCH  24  27
HETATM   27  C15 UNL     1      19.872 -13.249  25.521  1.00  0.00     0.021 C 
HETATM   28  C16 UNL     1      21.060 -12.322  25.614  1.00  0.00     0.007 C 
ENDBRANCH  24  27
BRANCH  25  29
HETATM   29  C17 UNL     1      18.104 -15.905  24.251  1.00  0.00     0.068 C 
BRANCH  29  30
HETATM   30  C18 UNL     1      18.264 -17.191  23.581  1.00  0.00     0.046 C 
BRANCH  30  31
HETATM   31  C19 UNL     1      18.130 -17.317  22.112  1.00  0.00     0.025 C 
BRANCH  31  32
HETATM   32  C20 UNL     1      16.841 -17.997  21.696  1.00  0.00     0.129 C 
BRANCH  32  33
HETATM   33  N6  UNL     1      15.728 -17.114  21.549  1.00  0.00    -0.352 N 
HETATM   34  C21 UNL     1      15.443 -16.255  20.558  1.00  0.00     0.108 A 
HETATM   35  C22 UNL     1      14.258 -15.631  20.869  1.00  0.00     0.106 A 
HETATM   36  N7  UNL     1      13.857 -16.142  22.059  1.00  0.00    -0.361 N 
HETATM   37  C23 UNL     1      14.748 -17.051  22.484  1.00  0.00     0.182 A 
ATOM     38  H7  UNL     1      13.007 -15.877  22.556  1.00  0.00     0.166 HD
ENDBRANCH  32  33
ENDBRANCH  31  32
ENDBRANCH  30  31
ENDBRANCH  29  30
ENDBRANCH  25  29
ENDBRANCH  13  14
ENDBRANCH  12  13
ENDBRANCH  10  11
ENDBRANCH   6  10
ENDBRANCH   5   6
ENDBRANCH   3   5
TORSDOF 13
ENDMDL
MODEL 5
REMARK VINA RESULT: -7.191617779      1.117      1.912
REMARK  13 active torsions:
REMARK  status: ('A' for Active; 'I' for Inactive)
REMARK    1  A    between atoms: N1_3  and  C3_5 
REMARK    2  A    between atoms: C3_5  and  N2_6 
REMARK    3  A    between atoms: N2_6  and  N3_7 
REMARK    4  A    between atoms: N2_6  and  C4_10 
REMARK    5  A    between atoms: C4_10  and  C5_11 
REMARK    6  A    between atoms: C6_12  and  C7_13 
REMARK    7  A    between atoms: C7_13  and  C8_14 
REMARK    8  A    between atoms: C14_23  and  C15_24 
REMARK    9  A    between atoms: N5_26  and  C17_27 
REMARK   10  A    between atoms: C17_27  and  C18_28 
REMARK   11  A    between atoms: C18_28  and  C19_29 
REMARK   12  A    between atoms: C19_29  and  C20_30 
REMARK   13  A    between atoms: C20_30  and  N6_31 
ROOT
HETATM    1  C1  UNL     1      12.075  -7.322  24.612  1.00  0.00     0.037 C 
HETATM    2  C2  UNL     1      11.547  -8.357  24.248  1.00  0.00    -0.004 C 
HETATM    3  N1  UNL     1      10.961  -9.552  23.827  1.00  0.00    -0.337 N 
ATOM      4  H1  UNL     1       9.950  -9.668  23.904  1.00  0.00     0.171 HD
ENDROOT
BRANCH   3   5
HETATM    5  C3  UNL     1      11.770 -10.642  23.274  1.00  0.00     0.243 C 
BRANCH   5   6
HETATM    6  N2  UNL     1      12.144 -10.348  21.905  1.00  0.00    -0.209 NA
BRANCH   6   7
HETATM    7  N3  UNL     1      12.107 -11.524  21.180  1.00  0.00    -0.361 NA
ATOM      8  H32 UNL     1      12.079 -11.325  20.180  1.00  0.00     0.171 HD
ATOM      9  H31 UNL     1      12.916 -12.089  21.440  1.00  0.00     0.171 HD
ENDBRANCH   6   7
BRANCH   6  10
HETATM   10  C4  UNL     1      13.438  -9.743  21.813  1.00  0.00     0.208 C 
BRANCH  10  11
HETATM   11  C5  UNL     1      14.424 -10.659  21.222  1.00  0.00    -0.090 C 
HETATM   12  C6  UNL     1      15.232 -11.395  20.722  1.00  0.00    -0.103 C 
BRANCH  12  13
HETATM   13  C7  UNL     1      16.223 -12.320  20.082  1.00  0.00     0.124 C 
BRANCH  13  14
HETATM   14  C8  UNL     1      17.596 -11.767  20.221  1.00  0.00     0.135 C 
HETATM   15  N4  UNL     1      18.409 -11.957  18.992  1.00  0.00    -0.347 N 
HETATM   16  C9  UNL     1      19.528 -11.837  19.862  1.00  0.00     0.251 C 
ATOM     17  H4  UNL     1      18.244 -12.104  17.996  1.00  0.00     0.163 HD
HETATM   18  O1  UNL     1      20.683 -11.392  19.879  1.00  0.00    -0.268 OA
HETATM   19  C10 UNL     1      18.652 -12.543  20.868  1.00  0.00     0.045 C 
HETATM   20  C11 UNL     1      19.050 -13.393  21.757  1.00  0.00     0.024 C 
HETATM   21  C12 UNL     1      20.502 -13.833  21.916  1.00  0.00     0.047 C 
HETATM   22  C24 UNL     1      18.158 -14.025  22.732  1.00  0.00     0.254 C 
HETATM   23  C13 UNL     1      20.831 -13.503  23.339  1.00  0.00     0.030 C 
HETATM   24  C14 UNL     1      19.979 -14.229  24.366  1.00  0.00     0.092 C 
HETATM   25  N5  UNL     1      18.769 -14.759  23.842  1.00  0.00    -0.323 N 
HETATM   26  O2  UNL     1      16.942 -13.933  22.602  1.00  0.00    -0.267 OA
BRANCH  24  27
HETATM   27  C15 UNL     1      19.882 -13.272  25.517  1.00  0.00     0.021 C 
HETATM   28  C16 UNL     1      21.013 -12.274  25.568  1.00  0.00     0.007 C 
ENDBRANCH  24  27
BRANCH  25  29
HETATM   29  C17 UNL     1      18.166 -15.958  24.238  1.00  0.00     0.068 C 
BRANCH  29  30
HETATM   30  C18 UNL     1      18.763 -17.274  24.029  1.00  0.00     0.046 C 
BRANCH  30  31
HETATM   31  C19 UNL     1      19.712 -17.854  25.006  1.00  0.00     0.025 C 
BRANCH  31  32
HETATM   32  C20 UNL     1      21.040 -18.232  24.380  1.00  0.00     0.129 C 
BRANCH  32  33
HETATM   33  N6  UNL     1      22.043 -17.216  24.465  1.00  0.00    -0.352 N 
HETATM   34  C21 UNL     1      22.844 -16.726  23.507  1.00  0.00     0.108 A 
HETATM   35  C22 UNL     1      23.638 -15.758  24.077  1.00  0.00     0.106 A 
HETATM   36  N7  UNL     1      23.284 -15.694  25.384  1.00  0.00    -0.361 N 
HETATM   37  C23 UNL     1      22.308 -16.582  25.633  1.00  0.00     0.182 A 
ATOM     38  H7  UNL     1      23.696 -15.067  26.074  1.00  0.00     0.166 HD
ENDBRANCH  32  33
ENDBRANCH  31  32
ENDBRANCH  30  31
ENDBRANCH  29  30
ENDBRANCH  25  29
ENDBRANCH  13  14
ENDBRANCH  12  13
ENDBRANCH  10  11
ENDBRANCH   6  10
ENDBRANCH   5   6
ENDBRANCH   3   5
TORSDOF 13
ENDMDL
