MODEL 1
REMARK VINA RESULT: -8.167585822      0.000      0.000
REMARK  10 active torsions:
REMARK  status: ('A' for Active; 'I' for Inactive)
REMARK    1  A    between atoms: C5_6  and  C6_7 
REMARK    2  A    between atoms: C6_7  and  C7_8 
REMARK       I    between atoms: C7_8  and  N2_10 
REMARK    3  A    between atoms: N2_10  and  S1_12 
REMARK    4  A    between atoms: S1_12  and  C9_14 
REMARK    5  A    between atoms: C9_14  and  C10_15 
REMARK    6  A    between atoms: C10_15  and  C11_16 
REMARK    7  A    between atoms: C11_16  and  C12_17 
REMARK    8  A    between atoms: C12_17  and  C13_18 
REMARK    9  A    between atoms: N3_19  and  C14_21 
REMARK   10  A    between atoms: C16_23  and  N4_24 
REMARK       I    between atoms: N4_24  and  C17_26 
ROOT
HETATM    1  C13 UNL     1      13.476 -15.480  21.418  1.00  0.00     0.057 C 
HETATM    2  N3  UNL     1      12.819 -14.593  22.036  1.00  0.00    -0.382 N 
ATOM      3  H3  UNL     1      12.654 -14.687  23.038  1.00  0.00     0.160 HD
ENDROOT
BRANCH   1   4
HETATM    4  C12 UNL     1      14.063 -16.700  22.006  1.00  0.00     0.044 C 
BRANCH   4   5
HETATM    5  C11 UNL     1      15.539 -16.754  21.752  1.00  0.00     0.006 C 
BRANCH   5   6
HETATM    6  C10 UNL     1      15.849 -15.869  20.591  1.00  0.00     0.011 C 
BRANCH   6   7
HETATM    7  C9  UNL     1      17.315 -15.853  20.203  1.00  0.00     0.084 C 
BRANCH   7   8
HETATM    8  S1  UNL     1      18.163 -14.499  20.918  1.00  0.00    -0.129 SA
HETATM    9  C8  UNL     1      19.585 -13.962  20.048  1.00  0.00     0.101 C 
BRANCH   8  10
HETATM   10  N2  UNL     1      18.540 -14.839  22.556  1.00  0.00    -0.310 N 
HETATM   11  C7  UNL     1      17.820 -14.184  23.584  1.00  0.00     0.231 C 
HETATM   12  O1  UNL     1      16.911 -13.366  23.274  1.00  0.00    -0.272 OA
ATOM     13  H2  UNL     1      19.277 -15.506  22.787  1.00  0.00     0.176 HD
BRANCH  11  14
HETATM   14  C6  UNL     1      18.120 -14.452  25.017  1.00  0.00     0.143 C 
BRANCH  14  15
HETATM   15  C5  UNL     1      19.581 -14.284  25.217  1.00  0.00    -0.034 A 
HETATM   16  C4  UNL     1      20.069 -12.995  25.251  1.00  0.00     0.010 A 
HETATM   17  C3  UNL     1      21.426 -12.806  25.439  1.00  0.00     0.018 A 
HETATM   18  C2  UNL     1      22.261 -13.880  25.588  1.00  0.00     0.090 A 
HETATM   19  N1  UNL     1      21.783 -15.126  25.553  1.00  0.00    -0.370 N 
HETATM   20  C1  UNL     1      22.715 -16.255  25.712  1.00  0.00     0.154 C 
HETATM   21  C22 UNL     1      20.472 -15.324  25.372  1.00  0.00     0.097 A 
ENDBRANCH  14  15
ENDBRANCH  11  14
ENDBRANCH   8  10
ENDBRANCH   7   8
ENDBRANCH   6   7
ENDBRANCH   5   6
ENDBRANCH   4   5
ENDBRANCH   1   4
BRANCH   2  22
HETATM   22  C14 UNL     1      12.307 -13.459  21.333  1.00  0.00     0.178 C 
HETATM   23  C15 UNL     1      13.337 -12.925  20.434  1.00  0.00     0.072 C 
HETATM   24  C16 UNL     1      13.354 -11.400  20.261  1.00  0.00     0.096 C 
HETATM   25  C18 UNL     1      13.232 -10.878  21.625  1.00  0.00     0.057 C 
HETATM   26  C19 UNL     1      13.159  -9.407  21.863  1.00  0.00     0.176 C 
HETATM   27  C21 UNL     1      11.789 -11.204  22.063  1.00  0.00     0.110 C 
HETATM   28  O2  UNL     1      12.644  -9.325  23.184  1.00  0.00    -0.389 OA
HETATM   29  C20 UNL     1      11.741 -10.359  23.308  1.00  0.00     0.193 C 
HETATM   30  N7  UNL     1      11.737 -12.591  22.292  1.00  0.00    -0.395 N 
ATOM     31  H7  UNL     1      11.297 -12.963  23.134  1.00  0.00     0.155 HD
BRANCH  24  32
HETATM   32  N4  UNL     1      14.540 -11.051  19.547  1.00  0.00    -0.360 N 
HETATM   33  C17 UNL     1      15.877 -11.191  19.942  1.00  0.00     0.182 C 
HETATM   34  N5  UNL     1      16.208 -11.401  21.158  1.00  0.00    -0.374 N 
HETATM   35  N6  UNL     1      16.967 -11.087  18.994  1.00  0.00    -0.064 NA
ATOM     36  H52 UNL     1      15.440 -11.474  21.826  1.00  0.00     0.158 HD
ATOM     37  H51 UNL     1      17.181 -11.504  21.446  1.00  0.00     0.158 HD
ATOM     38  H4  UNL     1      14.394 -10.645  18.623  1.00  0.00     0.162 HD
ENDBRANCH  24  32
ENDBRANCH   2  22
TORSDOF 10
ENDMDL
MODEL 2
REMARK VINA RESULT: -7.867690135      2.138      3.848
REMARK  10 active torsions:
REMARK  status: ('A' for Active; 'I' for Inactive)
REMARK    1  A    between atoms: C5_6  and  C6_7 
REMARK    2  A    between atoms: C6_7  and  C7_8 
REMARK       I    between atoms: C7_8  and  N2_10 
REMARK    3  A    between atoms: N2_10  and  S1_12 
REMARK    4  A    between atoms: S1_12  and  C9_14 
REMARK    5  A    between atoms: C9_14  and  C10_15 
REMARK    6  A    between atoms: C10_15  and  C11_16 
REMARK    7  A    between atoms: C11_16  and  C12_17 
REMARK    8  A    between atoms: C12_17  and  C13_18 
REMARK    9  A    between atoms: N3_19  and  C14_21 
REMARK   10  A    between atoms: C16_23  and  N4_24 
REMARK       I    between atoms: N4_24  and  C17_26 
ROOT
HETATM    1  C13 UNL     1      18.003 -12.487  20.856  1.00  0.00     0.057 C 
HETATM    2  N3  UNL     1      17.519 -12.841  19.741  1.00  0.00    -0.382 N 
ATOM      3  H3  UNL     1      18.020 -13.510  19.158  1.00  0.00     0.160 HD
ENDROOT
BRANCH   1   4
HETATM    4  C12 UNL     1      19.276 -12.953  21.442  1.00  0.00     0.044 C 
BRANCH   4   5
HETATM    5  C11 UNL     1      19.878 -14.040  20.603  1.00  0.00     0.006 C 
BRANCH   5   6
HETATM    6  C10 UNL     1      19.819 -15.316  21.375  1.00  0.00     0.011 C 
BRANCH   6   7
HETATM    7  C9  UNL     1      18.683 -16.233  20.962  1.00  0.00     0.084 C 
BRANCH   7   8
HETATM    8  S1  UNL     1      17.415 -16.281  22.167  1.00  0.00    -0.129 SA
HETATM    9  C8  UNL     1      15.846 -15.720  21.626  1.00  0.00     0.101 C 
BRANCH   8  10
HETATM   10  N2  UNL     1      17.910 -15.442  23.578  1.00  0.00    -0.310 N 
HETATM   11  C7  UNL     1      18.406 -16.176  24.684  1.00  0.00     0.231 C 
HETATM   12  O1  UNL     1      18.476 -17.433  24.607  1.00  0.00    -0.272 OA
ATOM     13  H2  UNL     1      17.849 -14.425  23.621  1.00  0.00     0.176 HD
BRANCH  11  14
HETATM   14  C6  UNL     1      18.844 -15.482  25.925  1.00  0.00     0.143 C 
BRANCH  14  15
HETATM   15  C5  UNL     1      20.031 -14.656  25.594  1.00  0.00    -0.034 A 
HETATM   16  C4  UNL     1      19.974 -13.315  25.910  1.00  0.00     0.010 A 
HETATM   17  C3  UNL     1      21.067 -12.519  25.616  1.00  0.00     0.018 A 
HETATM   18  C2  UNL     1      22.177 -13.058  25.024  1.00  0.00     0.090 A 
HETATM   19  N1  UNL     1      22.226 -14.357  24.720  1.00  0.00    -0.370 N 
HETATM   20  C1  UNL     1      23.438 -14.896  24.080  1.00  0.00     0.154 C 
HETATM   21  C22 UNL     1      21.177 -15.138  24.999  1.00  0.00     0.097 A 
ENDBRANCH  14  15
ENDBRANCH  11  14
ENDBRANCH   8  10
ENDBRANCH   7   8
ENDBRANCH   6   7
ENDBRANCH   5   6
ENDBRANCH   4   5
ENDBRANCH   1   4
BRANCH   2  22
HETATM   22  C14 UNL     1      16.271 -12.303  19.298  1.00  0.00     0.178 C 
HETATM   23  C15 UNL     1      15.707 -11.434  20.338  1.00  0.00     0.072 C 
HETATM   24  C16 UNL     1      14.178 -11.449  20.471  1.00  0.00     0.096 C 
HETATM   25  C18 UNL     1      13.823 -12.871  20.434  1.00  0.00     0.057 C 
HETATM   26  C19 UNL     1      12.392 -13.290  20.486  1.00  0.00     0.176 C 
HETATM   27  C21 UNL     1      14.093 -13.325  18.984  1.00  0.00     0.110 C 
HETATM   28  O2  UNL     1      12.438 -14.631  20.022  1.00  0.00    -0.389 OA
HETATM   29  C20 UNL     1      13.409 -14.665  19.043  1.00  0.00     0.193 C 
HETATM   30  N7  UNL     1      15.489 -13.384  18.830  1.00  0.00    -0.395 N 
ATOM     31  H7  UNL     1      15.930 -14.192  18.389  1.00  0.00     0.155 HD
BRANCH  24  32
HETATM   32  N4  UNL     1      13.832 -10.734  21.657  1.00  0.00    -0.360 N 
HETATM   33  C17 UNL     1      12.728  -9.904  21.892  1.00  0.00     0.182 C 
HETATM   34  N5  UNL     1      12.010  -9.442  20.941  1.00  0.00    -0.374 N 
HETATM   35  N6  UNL     1      12.346  -9.504  23.231  1.00  0.00    -0.064 NA
ATOM     36  H52 UNL     1      12.279  -9.724  19.998  1.00  0.00     0.158 HD
ATOM     37  H51 UNL     1      11.206  -8.838  21.112  1.00  0.00     0.158 HD
ATOM     38  H4  UNL     1      14.476 -10.843  22.440  1.00  0.00     0.162 HD
ENDBRANCH  24  32
ENDBRANCH   2  22
TORSDOF 10
ENDMDL
MODEL 3
REMARK VINA RESULT: -7.822436810      1.688      2.309
REMARK  10 active torsions:
REMARK  status: ('A' for Active; 'I' for Inactive)
REMARK    1  A    between atoms: C5_6  and  C6_7 
REMARK    2  A    between atoms: C6_7  and  C7_8 
REMARK       I    between atoms: C7_8  and  N2_10 
REMARK    3  A    between atoms: N2_10  and  S1_12 
REMARK    4  A    between atoms: S1_12  and  C9_14 
REMARK    5  A    between atoms: C9_14  and  C10_15 
REMARK    6  A    between atoms: C10_15  and  C11_16 
REMARK    7  A    between atoms: C11_16  and  C12_17 
REMARK    8  A    between atoms: C12_17  and  C13_18 
REMARK    9  A    between atoms: N3_19  and  C14_21 
REMARK   10  A    between atoms: C16_23  and  N4_24 
REMARK       I    between atoms: N4_24  and  C17_26 
ROOT
HETATM    1  C13 UNL     1      14.856 -16.726  22.218  1.00  0.00     0.057 C 
HETATM    2  N3  UNL     1      13.741 -16.146  22.358  1.00  0.00    -0.382 N 
ATOM      3  H3  UNL     1      13.147 -16.370  23.156  1.00  0.00     0.160 HD
ENDROOT
BRANCH   1   4
HETATM    4  C12 UNL     1      15.431 -17.743  23.121  1.00  0.00     0.044 C 
BRANCH   4   5
HETATM    5  C11 UNL     1      16.121 -18.818  22.338  1.00  0.00     0.006 C 
BRANCH   5   6
HETATM    6  C10 UNL     1      16.600 -18.229  21.053  1.00  0.00     0.011 C 
BRANCH   6   7
HETATM    7  C9  UNL     1      18.046 -18.555  20.729  1.00  0.00     0.084 C 
BRANCH   7   8
HETATM    8  S1  UNL     1      19.077 -17.147  20.864  1.00  0.00    -0.129 SA
HETATM    9  C8  UNL     1      20.783 -17.484  21.067  1.00  0.00     0.101 C 
BRANCH   8  10
HETATM   10  N2  UNL     1      18.505 -16.115  22.108  1.00  0.00    -0.310 N 
HETATM   11  C7  UNL     1      18.024 -14.826  21.775  1.00  0.00     0.231 C 
HETATM   12  O1  UNL     1      18.023 -14.462  20.567  1.00  0.00    -0.272 OA
ATOM     13  H2  UNL     1      18.511 -16.428  23.079  1.00  0.00     0.176 HD
BRANCH  11  14
HETATM   14  C6  UNL     1      17.522 -13.902  22.828  1.00  0.00     0.143 C 
BRANCH  14  15
HETATM   15  C5  UNL     1      18.474 -13.943  23.965  1.00  0.00    -0.034 A 
HETATM   16  C4  UNL     1      18.054 -14.575  25.117  1.00  0.00     0.010 A 
HETATM   17  C3  UNL     1      18.921 -14.632  26.193  1.00  0.00     0.018 A 
HETATM   18  C2  UNL     1      20.167 -14.072  26.111  1.00  0.00     0.090 A 
HETATM   19  N1  UNL     1      20.567 -13.461  24.993  1.00  0.00    -0.370 N 
HETATM   20  C1  UNL     1      21.914 -12.867  24.946  1.00  0.00     0.154 C 
HETATM   21  C22 UNL     1      19.740 -13.398  23.944  1.00  0.00     0.097 A 
ENDBRANCH  14  15
ENDBRANCH  11  14
ENDBRANCH   8  10
ENDBRANCH   7   8
ENDBRANCH   6   7
ENDBRANCH   5   6
ENDBRANCH   4   5
ENDBRANCH   1   4
BRANCH   2  22
HETATM   22  C14 UNL     1      13.310 -15.178  21.399  1.00  0.00     0.178 C 
HETATM   23  C15 UNL     1      14.476 -14.596  20.722  1.00  0.00     0.072 C 
HETATM   24  C16 UNL     1      14.366 -13.111  20.351  1.00  0.00     0.096 C 
HETATM   25  C18 UNL     1      13.825 -12.473  21.554  1.00  0.00     0.057 C 
HETATM   26  C19 UNL     1      13.525 -11.012  21.560  1.00  0.00     0.176 C 
HETATM   27  C21 UNL     1      12.364 -12.959  21.656  1.00  0.00     0.110 C 
HETATM   28  O2  UNL     1      12.671 -10.869  22.685  1.00  0.00    -0.389 OA
HETATM   29  C20 UNL     1      11.890 -12.004  22.720  1.00  0.00     0.193 C 
HETATM   30  N7  UNL     1      12.410 -14.307  22.054  1.00  0.00    -0.395 N 
ATOM     31  H7  UNL     1      11.806 -14.649  22.802  1.00  0.00     0.155 HD
BRANCH  24  32
HETATM   32  N4  UNL     1      15.652 -12.670  19.916  1.00  0.00    -0.360 N 
HETATM   33  C17 UNL     1      15.977 -11.839  18.836  1.00  0.00     0.182 C 
HETATM   34  N5  UNL     1      15.146 -11.585  17.899  1.00  0.00    -0.374 N 
HETATM   35  N6  UNL     1      17.285 -11.229  18.710  1.00  0.00    -0.064 NA
ATOM     36  H52 UNL     1      14.225 -12.015  17.988  1.00  0.00     0.158 HD
ATOM     37  H51 UNL     1      15.382 -10.980  17.112  1.00  0.00     0.158 HD
ATOM     38  H4  UNL     1      16.442 -13.006  20.467  1.00  0.00     0.162 HD
ENDBRANCH  24  32
ENDBRANCH   2  22
TORSDOF 10
ENDMDL
MODEL 4
REMARK VINA RESULT: -7.798061897      2.300      4.401
REMARK  10 active torsions:
REMARK  status: ('A' for Active; 'I' for Inactive)
REMARK    1  A    between atoms: C5_6  and  C6_7 
REMARK    2  A    between atoms: C6_7  and  C7_8 
REMARK       I    between atoms: C7_8  and  N2_10 
REMARK    3  A    between atoms: N2_10  and  S1_12 
REMARK    4  A    between atoms: S1_12  and  C9_14 
REMARK    5  A    between atoms: C9_14  and  C10_15 
REMARK    6  A    between atoms: C10_15  and  C11_16 
REMARK    7  A    between atoms: C11_16  and  C12_17 
REMARK    8  A    between atoms: C12_17  and  C13_18 
REMARK    9  A    between atoms: N3_19  and  C14_21 
REMARK   10  A    between atoms: C16_23  and  N4_24 
REMARK       I    between atoms: N4_24  and  C17_26 
ROOT
HETATM    1  C13 UNL     1      16.425 -11.795  19.852  1.00  0.00     0.057 C 
HETATM    2  N3  UNL     1      15.596 -11.497  18.943  1.00  0.00    -0.382 N 
ATOM      3  H3  UNL     1      15.905 -10.976  18.123  1.00  0.00     0.160 HD
ENDROOT
BRANCH   1   4
HETATM    4  C12 UNL     1      17.863 -11.460  19.865  1.00  0.00     0.044 C 
BRANCH   4   5
HETATM    5  C11 UNL     1      18.515 -11.877  18.581  1.00  0.00     0.006 C 
BRANCH   5   6
HETATM    6  C10 UNL     1      19.884 -12.384  18.893  1.00  0.00     0.011 C 
BRANCH   6   7
HETATM    7  C9  UNL     1      20.237 -12.333  20.367  1.00  0.00     0.084 C 
BRANCH   7   8
HETATM    8  S1  UNL     1      20.176 -13.919  21.105  1.00  0.00    -0.129 SA
HETATM    9  C8  UNL     1      18.919 -14.979  20.500  1.00  0.00     0.101 C 
BRANCH   8  10
HETATM   10  N2  UNL     1      20.082 -13.772  22.811  1.00  0.00    -0.310 N 
HETATM   11  C7  UNL     1      21.275 -13.766  23.574  1.00  0.00     0.231 C 
HETATM   12  O1  UNL     1      22.384 -13.866  22.982  1.00  0.00    -0.272 OA
ATOM     13  H2  UNL     1      19.175 -13.689  23.272  1.00  0.00     0.176 HD
BRANCH  11  14
HETATM   14  C6  UNL     1      21.233 -13.642  25.056  1.00  0.00     0.143 C 
BRANCH  14  15
HETATM   15  C5  UNL     1      20.351 -14.714  25.580  1.00  0.00    -0.034 A 
HETATM   16  C4  UNL     1      19.161 -14.326  26.159  1.00  0.00     0.010 A 
HETATM   17  C3  UNL     1      18.317 -15.303  26.654  1.00  0.00     0.018 A 
HETATM   18  C2  UNL     1      18.661 -16.625  26.569  1.00  0.00     0.090 A 
HETATM   19  N1  UNL     1      19.815 -16.995  26.009  1.00  0.00    -0.370 N 
HETATM   20  C1  UNL     1      20.151 -18.427  25.941  1.00  0.00     0.154 C 
HETATM   21  C22 UNL     1      20.642 -16.061  25.525  1.00  0.00     0.097 A 
ENDBRANCH  14  15
ENDBRANCH  11  14
ENDBRANCH   8  10
ENDBRANCH   7   8
ENDBRANCH   6   7
ENDBRANCH   5   6
ENDBRANCH   4   5
ENDBRANCH   1   4
BRANCH   2  22
HETATM   22  C14 UNL     1      14.227 -11.887  19.065  1.00  0.00     0.178 C 
HETATM   23  C15 UNL     1      13.685 -11.410  20.343  1.00  0.00     0.072 C 
HETATM   24  C16 UNL     1      12.663 -12.329  21.027  1.00  0.00     0.096 C 
HETATM   25  C18 UNL     1      13.260 -13.665  20.939  1.00  0.00     0.057 C 
HETATM   26  C19 UNL     1      12.522 -14.853  21.459  1.00  0.00     0.176 C 
HETATM   27  C21 UNL     1      13.191 -14.048  19.446  1.00  0.00     0.110 C 
HETATM   28  O2  UNL     1      13.195 -15.939  20.840  1.00  0.00    -0.389 OA
HETATM   29  C20 UNL     1      13.541 -15.507  19.578  1.00  0.00     0.193 C 
HETATM   30  N7  UNL     1      14.156 -13.271  18.782  1.00  0.00    -0.395 N 
ATOM     31  H7  UNL     1      14.794 -13.696  18.109  1.00  0.00     0.155 HD
BRANCH  24  32
HETATM   32  N4  UNL     1      12.423 -11.821  22.339  1.00  0.00    -0.360 N 
HETATM   33  C17 UNL     1      11.841 -10.604  22.717  1.00  0.00     0.182 C 
HETATM   34  N5  UNL     1      11.700  -9.634  21.896  1.00  0.00    -0.374 N 
HETATM   35  N6  UNL     1      11.380 -10.367  24.069  1.00  0.00    -0.064 NA
ATOM     36  H52 UNL     1      12.025  -9.801  20.944  1.00  0.00     0.158 HD
ATOM     37  H51 UNL     1      11.276  -8.748  22.171  1.00  0.00     0.158 HD
ATOM     38  H4  UNL     1      12.715 -12.427  23.106  1.00  0.00     0.162 HD
ENDBRANCH  24  32
ENDBRANCH   2  22
TORSDOF 10
ENDMDL
MODEL 5
REMARK VINA RESULT: -7.721620073      2.230      4.135
REMARK  10 active torsions:
REMARK  status: ('A' for Active; 'I' for Inactive)
REMARK    1  A    between atoms: C5_6  and  C6_7 
REMARK    2  A    between atoms: C6_7  and  C7_8 
REMARK       I    between atoms: C7_8  and  N2_10 
REMARK    3  A    between atoms: N2_10  and  S1_12 
REMARK    4  A    between atoms: S1_12  and  C9_14 
REMARK    5  A    between atoms: C9_14  and  C10_15 
REMARK    6  A    between atoms: C10_15  and  C11_16 
REMARK    7  A    between atoms: C11_16  and  C12_17 
REMARK    8  A    between atoms: C12_17  and  C13_18 
REMARK    9  A    between atoms: N3_19  and  C14_21 
REMARK   10  A    between atoms: C16_23  and  N4_24 
REMARK       I    between atoms: N4_24  and  C17_26 
ROOT
HETATM    1  C13 UNL     1      14.132 -12.856  20.818  1.00  0.00     0.057 C 
HETATM    2  N3  UNL     1      15.247 -12.468  21.275  1.00  0.00    -0.382 N 
ATOM      3  H3  UNL     1      15.583 -12.828  22.168  1.00  0.00     0.160 HD
ENDROOT
BRANCH   1   4
HETATM    4  C12 UNL     1      13.213 -13.818  21.458  1.00  0.00     0.044 C 
BRANCH   4   5
HETATM    5  C11 UNL     1      12.877 -14.935  20.517  1.00  0.00     0.006 C 
BRANCH   5   6
HETATM    6  C10 UNL     1      14.099 -15.767  20.317  1.00  0.00     0.011 C 
BRANCH   6   7
HETATM    7  C9  UNL     1      14.744 -16.233  21.609  1.00  0.00     0.084 C 
BRANCH   7   8
HETATM    8  S1  UNL     1      16.462 -15.897  21.638  1.00  0.00    -0.129 SA
HETATM    9  C8  UNL     1      17.454 -16.988  20.694  1.00  0.00     0.101 C 
BRANCH   8  10
HETATM   10  N2  UNL     1      17.018 -15.810  23.257  1.00  0.00    -0.310 N 
HETATM   11  C7  UNL     1      17.625 -14.617  23.719  1.00  0.00     0.231 C 
HETATM   12  O1  UNL     1      17.741 -13.639  22.931  1.00  0.00    -0.272 OA
ATOM     13  H2  UNL     1      16.914 -16.610  23.881  1.00  0.00     0.176 HD
BRANCH  11  14
HETATM   14  C6  UNL     1      18.122 -14.505  25.117  1.00  0.00     0.143 C 
BRANCH  14  15
HETATM   15  C5  UNL     1      19.588 -14.284  25.065  1.00  0.00    -0.034 A 
HETATM   16  C4  UNL     1      20.068 -13.105  25.598  1.00  0.00     0.010 A 
HETATM   17  C3  UNL     1      21.431 -12.871  25.566  1.00  0.00     0.018 A 
HETATM   18  C2  UNL     1      22.280 -13.793  25.017  1.00  0.00     0.090 A 
HETATM   19  N1  UNL     1      21.810 -14.933  24.503  1.00  0.00    -0.370 N 
HETATM   20  C1  UNL     1      22.756 -15.897  23.918  1.00  0.00     0.154 C 
HETATM   21  C22 UNL     1      20.494 -15.172  24.526  1.00  0.00     0.097 A 
ENDBRANCH  14  15
ENDBRANCH  11  14
ENDBRANCH   8  10
ENDBRANCH   7   8
ENDBRANCH   6   7
ENDBRANCH   5   6
ENDBRANCH   4   5
ENDBRANCH   1   4
BRANCH   2  22
HETATM   22  C14 UNL     1      16.034 -11.527  20.543  1.00  0.00     0.178 C 
HETATM   23  C15 UNL     1      15.834 -11.725  19.102  1.00  0.00     0.072 C 
HETATM   24  C16 UNL     1      17.063 -11.488  18.214  1.00  0.00     0.096 C 
HETATM   25  C18 UNL     1      18.152 -12.186  18.904  1.00  0.00     0.057 C 
HETATM   26  C19 UNL     1      19.540 -12.136  18.360  1.00  0.00     0.176 C 
HETATM   27  C21 UNL     1      18.427 -11.359  20.178  1.00  0.00     0.110 C 
HETATM   28  O2  UNL     1      20.329 -12.542  19.469  1.00  0.00    -0.389 OA
HETATM   29  C20 UNL     1      19.722 -12.011  20.586  1.00  0.00     0.193 C 
HETATM   30  N7  UNL     1      17.351 -11.592  21.053  1.00  0.00    -0.395 N 
ATOM     31  H7  UNL     1      17.517 -11.803  22.037  1.00  0.00     0.155 HD
BRANCH  24  32
HETATM   32  N4  UNL     1      16.748 -11.940  16.897  1.00  0.00    -0.360 N 
HETATM   33  C17 UNL     1      16.903 -11.269  15.677  1.00  0.00     0.182 C 
HETATM   34  N5  UNL     1      17.097 -10.007  15.615  1.00  0.00    -0.374 N 
HETATM   35  N6  UNL     1      16.835 -11.966  14.409  1.00  0.00    -0.064 NA
ATOM     36  H52 UNL     1      17.144  -9.516  16.508  1.00  0.00     0.158 HD
ATOM     37  H51 UNL     1      17.211  -9.518  14.727  1.00  0.00     0.158 HD
ATOM     38  H4  UNL     1      16.355 -12.880  16.836  1.00  0.00     0.162 HD
ENDBRANCH  24  32
ENDBRANCH   2  22
TORSDOF 10
ENDMDL
