MODEL 1
REMARK VINA RESULT: -8.335431036      0.000      0.000
REMARK  17 active torsions:
REMARK  status: ('A' for Active; 'I' for Inactive)
REMARK    1  A    between atoms: N1_5  and  C5_6 
REMARK    2  A    between atoms: C5_6  and  C6_7 
REMARK    3  A    between atoms: C7_8  and  C8_9 
REMARK    4  A    between atoms: C8_9  and  C10_11 
REMARK    5  A    between atoms: C11_12  and  C12_13 
REMARK    6  A    between atoms: C12_13  and  C13_14 
REMARK    7  A    between atoms: C13_14  and  C14_15 
REMARK    8  A    between atoms: C14_15  and  O1_16 
REMARK    9  A    between atoms: C14_15  and  N2_18 
REMARK   10  A    between atoms: N2_18  and  C15_20 
REMARK   11  A    between atoms: C15_20  and  C16_21 
REMARK   12  A    between atoms: C15_20  and  C22_38 
REMARK   13  A    between atoms: C16_21  and  N3_22 
REMARK   14  A    between atoms: N3_22  and  C19_25 
REMARK   15  A    between atoms: C19_25  and  C20_26 
REMARK   16  A    between atoms: C21_29  and  N5_30 
REMARK   17  A    between atoms: N7_35  and  O2_36 
ROOT
HETATM    1  N2  UNL     1      17.401 -12.581  22.074  1.00  0.00    -0.356 N 
ATOM      2  H2  UNL     1      17.431 -11.741  22.652  1.00  0.00     0.162 HD
ENDROOT
BRANCH   1   3
HETATM    3  C14 UNL     1      18.075 -13.708  22.461  1.00  0.00     0.136 C 
BRANCH   3   4
HETATM    4  C13 UNL     1      17.835 -14.649  23.482  1.00  0.00     0.055 C 
BRANCH   4   5
HETATM    5  C12 UNL     1      18.014 -14.681  24.744  1.00  0.00     0.004 C 
BRANCH   5   6
HETATM    6  C11 UNL     1      19.096 -15.281  25.493  1.00  0.00    -0.003 C 
HETATM    7  C10 UNL     1      20.215 -14.678  25.825  1.00  0.00    -0.010 C 
BRANCH   7   8
HETATM    8  C8  UNL     1      20.544 -13.304  25.483  1.00  0.00     0.083 C 
HETATM    9  C9  UNL     1      20.764 -12.508  26.774  1.00  0.00     0.027 C 
BRANCH   8  10
HETATM   10  C7  UNL     1      21.903 -13.377  24.827  1.00  0.00    -0.097 C 
HETATM   11  C6  UNL     1      22.999 -13.437  24.336  1.00  0.00    -0.084 C 
BRANCH  11  12
HETATM   12  C5  UNL     1      24.346 -13.522  23.779  1.00  0.00     0.241 C 
BRANCH  12  13
HETATM   13  N1  UNL     1      24.765 -14.891  23.570  1.00  0.00    -0.292 N 
HETATM   14  C4  UNL     1      24.287 -15.927  24.312  1.00  0.00     0.113 A 
HETATM   15  C3  UNL     1      24.902 -17.090  23.870  1.00  0.00     0.045 A 
HETATM   16  C2  UNL     1      25.746 -16.696  22.849  1.00  0.00     0.023 A 
HETATM   17  C1  UNL     1      26.609 -17.645  22.087  1.00  0.00     0.070 C 
HETATM   18  N9  UNL     1      25.648 -15.373  22.689  1.00  0.00    -0.303 N 
ATOM     19  H9  UNL     1      26.162 -14.821  22.004  1.00  0.00     0.186 HD
ENDBRANCH  12  13
ENDBRANCH  11  12
ENDBRANCH   8  10
ENDBRANCH   7   8
ENDBRANCH   5   6
ENDBRANCH   4   5
ENDBRANCH   3   4
BRANCH   3  20
HETATM   20  O1  UNL     1      19.161 -13.945  21.720  1.00  0.00    -0.346 OA
ATOM     21  H1  UNL     1      19.065 -13.749  20.795  1.00  0.00     0.219 HD
ENDBRANCH   3  20
ENDBRANCH   1   3
BRANCH   1  22
HETATM   22  C15 UNL     1      16.596 -12.592  20.759  1.00  0.00     0.199 C 
BRANCH  22  23
HETATM   23  C16 UNL     1      15.203 -12.483  21.250  1.00  0.00     0.271 C 
BRANCH  23  24
HETATM   24  N3  UNL     1      14.104 -12.885  20.473  1.00  0.00    -0.066 N 
HETATM   25  C17 UNL     1      13.267 -13.845  21.261  1.00  0.00     0.272 C 
HETATM   26  C18 UNL     1      14.400 -13.613  19.252  1.00  0.00     0.272 C 
BRANCH  24  27
HETATM   27  C19 UNL     1      13.205 -11.817  20.154  1.00  0.00     0.317 C 
BRANCH  27  28
HETATM   28  C20 UNL     1      12.820 -10.925  21.255  1.00  0.00     0.170 A 
HETATM   29  N4  UNL     1      11.817 -11.119  22.106  1.00  0.00    -0.174 N 
HETATM   30  C21 UNL     1      11.794 -10.041  22.945  1.00  0.00     0.694 A 
ATOM     31  H4  UNL     1      11.185 -11.920  22.127  1.00  0.00     0.185 HD
HETATM   32  N6  UNL     1      12.787  -9.229  22.574  1.00  0.00    -0.104 N 
HETATM   33  N7  UNL     1      13.408  -9.767  21.550  1.00  0.00    -0.134 N 
ATOM     34  H6  UNL     1      13.024  -8.340  23.014  1.00  0.00     0.208 HD
BRANCH  30  35
HETATM   35  N5  UNL     1      10.962  -9.867  23.918  1.00  0.00    -0.233 N 
ATOM     36  H52 UNL     1      11.016 -10.266  24.856  1.00  0.00     0.174 HD
ATOM     37  H51 UNL     1      10.115  -9.301  23.877  1.00  0.00     0.174 HD
ENDBRANCH  30  35
BRANCH  33  38
HETATM   38  O2  UNL     1      14.500  -9.198  20.892  1.00  0.00    -0.266 OA
ATOM     39  H2  UNL     1      14.937  -8.384  21.119  1.00  0.00     0.247 HD
ENDBRANCH  33  38
ENDBRANCH  27  28
ENDBRANCH  24  27
ENDBRANCH  23  24
ENDBRANCH  22  23
BRANCH  22  40
HETATM   40  C22 UNL     1      17.174 -11.435  20.060  1.00  0.00     0.255 C 
HETATM   41  N8  UNL     1      18.540 -11.073  20.153  1.00  0.00    -0.060 NA
HETATM   42  O3  UNL     1      16.445 -10.677  19.309  1.00  0.00    -0.275 OA
ENDBRANCH  22  40
ENDBRANCH   1  22
TORSDOF 17
ENDMDL
MODEL 2
REMARK VINA RESULT: -8.051009683      3.008      5.043
REMARK  17 active torsions:
REMARK  status: ('A' for Active; 'I' for Inactive)
REMARK    1  A    between atoms: N1_5  and  C5_6 
REMARK    2  A    between atoms: C5_6  and  C6_7 
REMARK    3  A    between atoms: C7_8  and  C8_9 
REMARK    4  A    between atoms: C8_9  and  C10_11 
REMARK    5  A    between atoms: C11_12  and  C12_13 
REMARK    6  A    between atoms: C12_13  and  C13_14 
REMARK    7  A    between atoms: C13_14  and  C14_15 
REMARK    8  A    between atoms: C14_15  and  O1_16 
REMARK    9  A    between atoms: C14_15  and  N2_18 
REMARK   10  A    between atoms: N2_18  and  C15_20 
REMARK   11  A    between atoms: C15_20  and  C16_21 
REMARK   12  A    between atoms: C15_20  and  C22_38 
REMARK   13  A    between atoms: C16_21  and  N3_22 
REMARK   14  A    between atoms: N3_22  and  C19_25 
REMARK   15  A    between atoms: C19_25  and  C20_26 
REMARK   16  A    between atoms: C21_29  and  N5_30 
REMARK   17  A    between atoms: N7_35  and  O2_36 
ROOT
HETATM    1  N2  UNL     1      14.395 -14.607  19.453  1.00  0.00    -0.356 N 
ATOM      2  H2  UNL     1      13.967 -15.198  18.740  1.00  0.00     0.162 HD
ENDROOT
BRANCH   1   3
HETATM    3  C14 UNL     1      15.666 -14.129  19.280  1.00  0.00     0.136 C 
BRANCH   3   4
HETATM    4  C13 UNL     1      16.193 -13.128  18.440  1.00  0.00     0.055 C 
BRANCH   4   5
HETATM    5  C12 UNL     1      16.812 -12.029  18.620  1.00  0.00     0.004 C 
BRANCH   5   6
HETATM    6  C11 UNL     1      17.286 -11.445  19.856  1.00  0.00    -0.003 C 
HETATM    7  C10 UNL     1      18.438 -11.713  20.429  1.00  0.00    -0.010 C 
BRANCH   7   8
HETATM    8  C8  UNL     1      19.420 -12.651  19.907  1.00  0.00     0.083 C 
HETATM    9  C9  UNL     1      20.337 -11.916  18.924  1.00  0.00     0.027 C 
BRANCH   8  10
HETATM   10  C7  UNL     1      20.299 -12.994  21.086  1.00  0.00    -0.097 C 
HETATM   11  C6  UNL     1      20.972 -13.269  22.045  1.00  0.00    -0.084 C 
BRANCH  11  12
HETATM   12  C5  UNL     1      21.751 -13.613  23.230  1.00  0.00     0.241 C 
BRANCH  12  13
HETATM   13  N1  UNL     1      20.922 -13.758  24.406  1.00  0.00    -0.292 N 
HETATM   14  C4  UNL     1      21.058 -12.966  25.504  1.00  0.00     0.113 A 
HETATM   15  C3  UNL     1      20.130 -13.379  26.448  1.00  0.00     0.045 A 
HETATM   16  C2  UNL     1      19.450 -14.430  25.863  1.00  0.00     0.023 A 
HETATM   17  C1  UNL     1      18.350 -15.176  26.543  1.00  0.00     0.070 C 
HETATM   18  N9  UNL     1      19.943 -14.640  24.639  1.00  0.00    -0.303 N 
ATOM     19  H9  UNL     1      19.624 -15.356  23.988  1.00  0.00     0.186 HD
ENDBRANCH  12  13
ENDBRANCH  11  12
ENDBRANCH   8  10
ENDBRANCH   7   8
ENDBRANCH   5   6
ENDBRANCH   4   5
ENDBRANCH   3   4
BRANCH   3  20
HETATM   20  O1  UNL     1      16.561 -14.735  20.065  1.00  0.00    -0.346 OA
ATOM     21  H1  UNL     1      17.124 -14.149  20.558  1.00  0.00     0.219 HD
ENDBRANCH   3  20
ENDBRANCH   1   3
BRANCH   1  22
HETATM   22  C15 UNL     1      13.616 -14.248  20.733  1.00  0.00     0.199 C 
BRANCH  22  23
HETATM   23  C16 UNL     1      12.814 -13.084  20.290  1.00  0.00     0.271 C 
BRANCH  23  24
HETATM   24  N3  UNL     1      12.957 -11.813  20.868  1.00  0.00    -0.066 N 
HETATM   25  C17 UNL     1      13.491 -10.860  19.843  1.00  0.00     0.272 C 
HETATM   26  C18 UNL     1      13.902 -11.699  21.965  1.00  0.00     0.272 C 
BRANCH  24  27
HETATM   27  C19 UNL     1      11.717 -11.226  21.280  1.00  0.00     0.317 C 
BRANCH  27  28
HETATM   28  C20 UNL     1      11.739 -10.434  22.515  1.00  0.00     0.170 A 
HETATM   29  N4  UNL     1      12.310  -9.244  22.673  1.00  0.00    -0.174 N 
HETATM   30  C21 UNL     1      12.120  -8.882  23.977  1.00  0.00     0.694 A 
ATOM     31  H4  UNL     1      12.797  -8.704  21.957  1.00  0.00     0.185 HD
HETATM   32  N6  UNL     1      11.437  -9.866  24.565  1.00  0.00    -0.104 N 
HETATM   33  N7  UNL     1      11.207 -10.806  23.678  1.00  0.00    -0.134 N 
ATOM     34  H6  UNL     1      11.143  -9.885  25.542  1.00  0.00     0.208 HD
BRANCH  30  35
HETATM   35  N5  UNL     1      12.524  -7.779  24.514  1.00  0.00    -0.233 N 
ATOM     36  H52 UNL     1      12.655  -6.878  24.054  1.00  0.00     0.174 HD
ATOM     37  H51 UNL     1      12.784  -7.659  25.494  1.00  0.00     0.174 HD
ENDBRANCH  30  35
BRANCH  33  38
HETATM   38  O2  UNL     1      10.519 -11.994  23.936  1.00  0.00    -0.266 OA
ATOM     39  H2  UNL     1       9.919 -12.156  24.655  1.00  0.00     0.247 HD
ENDBRANCH  33  38
ENDBRANCH  27  28
ENDBRANCH  24  27
ENDBRANCH  23  24
ENDBRANCH  22  23
BRANCH  22  40
HETATM   40  C22 UNL     1      12.911 -15.508  21.005  1.00  0.00     0.255 C 
HETATM   41  N8  UNL     1      13.249 -16.375  22.073  1.00  0.00    -0.060 NA
HETATM   42  O3  UNL     1      11.925 -15.894  20.264  1.00  0.00    -0.275 OA
ENDBRANCH  22  40
ENDBRANCH   1  22
TORSDOF 17
ENDMDL
MODEL 3
REMARK VINA RESULT: -7.751180800      1.297      1.549
REMARK  17 active torsions:
REMARK  status: ('A' for Active; 'I' for Inactive)
REMARK    1  A    between atoms: N1_5  and  C5_6 
REMARK    2  A    between atoms: C5_6  and  C6_7 
REMARK    3  A    between atoms: C7_8  and  C8_9 
REMARK    4  A    between atoms: C8_9  and  C10_11 
REMARK    5  A    between atoms: C11_12  and  C12_13 
REMARK    6  A    between atoms: C12_13  and  C13_14 
REMARK    7  A    between atoms: C13_14  and  C14_15 
REMARK    8  A    between atoms: C14_15  and  O1_16 
REMARK    9  A    between atoms: C14_15  and  N2_18 
REMARK   10  A    between atoms: N2_18  and  C15_20 
REMARK   11  A    between atoms: C15_20  and  C16_21 
REMARK   12  A    between atoms: C15_20  and  C22_38 
REMARK   13  A    between atoms: C16_21  and  N3_22 
REMARK   14  A    between atoms: N3_22  and  C19_25 
REMARK   15  A    between atoms: C19_25  and  C20_26 
REMARK   16  A    between atoms: C21_29  and  N5_30 
REMARK   17  A    between atoms: N7_35  and  O2_36 
ROOT
HETATM    1  N2  UNL     1      17.407 -12.670  22.113  1.00  0.00    -0.356 N 
ATOM      2  H2  UNL     1      17.459 -11.848  22.714  1.00  0.00     0.162 HD
ENDROOT
BRANCH   1   3
HETATM    3  C14 UNL     1      18.038 -13.830  22.474  1.00  0.00     0.136 C 
BRANCH   3   4
HETATM    4  C13 UNL     1      17.712 -14.834  23.408  1.00  0.00     0.055 C 
BRANCH   4   5
HETATM    5  C12 UNL     1      18.363 -15.528  24.255  1.00  0.00     0.004 C 
BRANCH   5   6
HETATM    6  C11 UNL     1      18.629 -15.246  25.648  1.00  0.00    -0.003 C 
HETATM    7  C10 UNL     1      19.484 -14.352  26.092  1.00  0.00    -0.010 C 
BRANCH   7   8
HETATM    8  C8  UNL     1      20.305 -13.504  25.243  1.00  0.00     0.083 C 
HETATM    9  C9  UNL     1      20.920 -12.390  26.097  1.00  0.00     0.027 C 
BRANCH   8  10
HETATM   10  C7  UNL     1      21.469 -14.373  24.829  1.00  0.00    -0.097 C 
HETATM   11  C6  UNL     1      22.393 -15.053  24.467  1.00  0.00    -0.084 C 
BRANCH  11  12
HETATM   12  C5  UNL     1      23.516 -15.855  23.991  1.00  0.00     0.241 C 
BRANCH  12  13
HETATM   13  N1  UNL     1      24.235 -16.486  25.076  1.00  0.00    -0.292 N 
HETATM   14  C4  UNL     1      23.640 -17.341  25.952  1.00  0.00     0.113 A 
HETATM   15  C3  UNL     1      24.596 -17.749  26.870  1.00  0.00     0.045 A 
HETATM   16  C2  UNL     1      25.763 -17.108  26.497  1.00  0.00     0.023 A 
HETATM   17  C1  UNL     1      27.056 -17.268  27.225  1.00  0.00     0.070 C 
HETATM   18  N9  UNL     1      25.521 -16.356  25.420  1.00  0.00    -0.303 N 
ATOM     19  H9  UNL     1      26.206 -15.776  24.937  1.00  0.00     0.186 HD
ENDBRANCH  12  13
ENDBRANCH  11  12
ENDBRANCH   8  10
ENDBRANCH   7   8
ENDBRANCH   5   6
ENDBRANCH   4   5
ENDBRANCH   3   4
BRANCH   3  20
HETATM   20  O1  UNL     1      19.177 -14.032  21.805  1.00  0.00    -0.346 OA
ATOM     21  H1  UNL     1      19.829 -14.545  22.269  1.00  0.00     0.219 HD
ENDBRANCH   3  20
ENDBRANCH   1   3
BRANCH   1  22
HETATM   22  C15 UNL     1      16.615 -12.617  20.791  1.00  0.00     0.199 C 
BRANCH  22  23
HETATM   23  C16 UNL     1      15.218 -12.510  21.272  1.00  0.00     0.271 C 
BRANCH  23  24
HETATM   24  N3  UNL     1      14.124 -12.898  20.482  1.00  0.00    -0.066 N 
HETATM   25  C17 UNL     1      13.273 -13.859  21.255  1.00  0.00     0.272 C 
HETATM   26  C18 UNL     1      14.427 -13.618  19.258  1.00  0.00     0.272 C 
BRANCH  24  27
HETATM   27  C19 UNL     1      13.236 -11.822  20.163  1.00  0.00     0.317 C 
BRANCH  27  28
HETATM   28  C20 UNL     1      12.842 -10.940  21.269  1.00  0.00     0.170 A 
HETATM   29  N4  UNL     1      11.835 -11.143  22.113  1.00  0.00    -0.174 N 
HETATM   30  C21 UNL     1      11.805 -10.071  22.960  1.00  0.00     0.694 A 
ATOM     31  H4  UNL     1      11.206 -11.946  22.125  1.00  0.00     0.185 HD
HETATM   32  N6  UNL     1      12.797  -9.254  22.600  1.00  0.00    -0.104 N 
HETATM   33  N7  UNL     1      13.425  -9.782  21.575  1.00  0.00    -0.134 N 
ATOM     34  H6  UNL     1      13.029  -8.367  23.047  1.00  0.00     0.208 HD
BRANCH  30  35
HETATM   35  N5  UNL     1      10.968  -9.907  23.930  1.00  0.00    -0.233 N 
ATOM     36  H52 UNL     1      10.234  -9.202  24.001  1.00  0.00     0.174 HD
ATOM     37  H51 UNL     1      10.933 -10.467  24.782  1.00  0.00     0.174 HD
ENDBRANCH  30  35
BRANCH  33  38
HETATM   38  O2  UNL     1      14.518  -9.204  20.927  1.00  0.00    -0.266 OA
ATOM     39  H2  UNL     1      15.433  -9.436  21.042  1.00  0.00     0.247 HD
ENDBRANCH  33  38
ENDBRANCH  27  28
ENDBRANCH  24  27
ENDBRANCH  23  24
ENDBRANCH  22  23
BRANCH  22  40
HETATM   40  C22 UNL     1      17.214 -11.441  20.145  1.00  0.00     0.255 C 
HETATM   41  N8  UNL     1      18.593 -11.127  20.226  1.00  0.00    -0.060 NA
HETATM   42  O3  UNL     1      16.494 -10.619  19.456  1.00  0.00    -0.275 OA
ENDBRANCH  22  40
ENDBRANCH   1  22
TORSDOF 17
ENDMDL
MODEL 4
REMARK VINA RESULT: -7.738146705      1.566      2.055
REMARK  17 active torsions:
REMARK  status: ('A' for Active; 'I' for Inactive)
REMARK    1  A    between atoms: N1_5  and  C5_6 
REMARK    2  A    between atoms: C5_6  and  C6_7 
REMARK    3  A    between atoms: C7_8  and  C8_9 
REMARK    4  A    between atoms: C8_9  and  C10_11 
REMARK    5  A    between atoms: C11_12  and  C12_13 
REMARK    6  A    between atoms: C12_13  and  C13_14 
REMARK    7  A    between atoms: C13_14  and  C14_15 
REMARK    8  A    between atoms: C14_15  and  O1_16 
REMARK    9  A    between atoms: C14_15  and  N2_18 
REMARK   10  A    between atoms: N2_18  and  C15_20 
REMARK   11  A    between atoms: C15_20  and  C16_21 
REMARK   12  A    between atoms: C15_20  and  C22_38 
REMARK   13  A    between atoms: C16_21  and  N3_22 
REMARK   14  A    between atoms: N3_22  and  C19_25 
REMARK   15  A    between atoms: C19_25  and  C20_26 
REMARK   16  A    between atoms: C21_29  and  N5_30 
REMARK   17  A    between atoms: N7_35  and  O2_36 
ROOT
HETATM    1  N2  UNL     1      16.476 -11.380  21.212  1.00  0.00    -0.356 N 
ATOM      2  H2  UNL     1      16.203 -10.493  21.637  1.00  0.00     0.162 HD
ENDROOT
BRANCH   1   3
HETATM    3  C14 UNL     1      17.796 -11.734  21.145  1.00  0.00     0.136 C 
BRANCH   3   4
HETATM    4  C13 UNL     1      18.503 -12.847  21.644  1.00  0.00     0.055 C 
BRANCH   4   5
HETATM    5  C12 UNL     1      19.318 -13.045  22.604  1.00  0.00     0.004 C 
BRANCH   5   6
HETATM    6  C11 UNL     1      19.270 -14.049  23.644  1.00  0.00    -0.003 C 
HETATM    7  C10 UNL     1      19.814 -13.935  24.834  1.00  0.00    -0.010 C 
BRANCH   7   8
HETATM    8  C8  UNL     1      20.560 -12.773  25.293  1.00  0.00     0.083 C 
HETATM    9  C9  UNL     1      20.681 -12.829  26.819  1.00  0.00     0.027 C 
BRANCH   8  10
HETATM   10  C7  UNL     1      21.964 -12.979  24.776  1.00  0.00    -0.097 C 
HETATM   11  C6  UNL     1      23.088 -13.163  24.390  1.00  0.00    -0.084 C 
BRANCH  11  12
HETATM   12  C5  UNL     1      24.455 -13.422  23.950  1.00  0.00     0.241 C 
BRANCH  12  13
HETATM   13  N1  UNL     1      24.668 -14.813  23.616  1.00  0.00    -0.292 N 
HETATM   14  C4  UNL     1      23.946 -15.822  24.176  1.00  0.00     0.113 A 
HETATM   15  C3  UNL     1      24.410 -17.021  23.656  1.00  0.00     0.045 A 
HETATM   16  C2  UNL     1      25.419 -16.676  22.777  1.00  0.00     0.023 A 
HETATM   17  C1  UNL     1      26.198 -17.677  21.990  1.00  0.00     0.070 C 
HETATM   18  N9  UNL     1      25.556 -15.348  22.770  1.00  0.00    -0.303 N 
ATOM     19  H9  UNL     1      26.228 -14.825  22.210  1.00  0.00     0.186 HD
ENDBRANCH  12  13
ENDBRANCH  11  12
ENDBRANCH   8  10
ENDBRANCH   7   8
ENDBRANCH   5   6
ENDBRANCH   4   5
ENDBRANCH   3   4
BRANCH   3  20
HETATM   20  O1  UNL     1      18.540 -10.848  20.477  1.00  0.00    -0.346 OA
ATOM     21  H1  UNL     1      18.640 -10.006  20.905  1.00  0.00     0.219 HD
ENDBRANCH   3  20
ENDBRANCH   1   3
BRANCH   1  22
HETATM   22  C15 UNL     1      15.404 -12.329  20.641  1.00  0.00     0.199 C 
BRANCH  22  23
HETATM   23  C16 UNL     1      14.149 -11.641  21.019  1.00  0.00     0.271 C 
BRANCH  23  24
HETATM   24  N3  UNL     1      12.915 -12.310  21.071  1.00  0.00    -0.066 N 
HETATM   25  C17 UNL     1      12.881 -13.190  22.282  1.00  0.00     0.272 C 
HETATM   26  C18 UNL     1      12.622 -13.221  19.979  1.00  0.00     0.272 C 
BRANCH  24  27
HETATM   27  C19 UNL     1      11.795 -11.436  21.241  1.00  0.00     0.317 C 
BRANCH  27  28
HETATM   28  C20 UNL     1      11.806 -10.569  22.426  1.00  0.00     0.170 A 
HETATM   29  N4  UNL     1      12.479  -9.430  22.556  1.00  0.00    -0.174 N 
HETATM   30  C21 UNL     1      12.234  -8.967  23.818  1.00  0.00     0.694 A 
ATOM     31  H4  UNL     1      13.067  -8.987  21.850  1.00  0.00     0.185 HD
HETATM   32  N6  UNL     1      11.418  -9.842  24.410  1.00  0.00    -0.104 N 
HETATM   33  N7  UNL     1      11.160 -10.813  23.564  1.00  0.00    -0.134 N 
ATOM     34  H6  UNL     1      11.055  -9.768  25.360  1.00  0.00     0.208 HD
BRANCH  30  35
HETATM   35  N5  UNL     1      12.706  -7.873  24.320  1.00  0.00    -0.233 N 
ATOM     36  H52 UNL     1      13.481  -7.314  23.964  1.00  0.00     0.174 HD
ATOM     37  H51 UNL     1      12.365  -7.416  25.166  1.00  0.00     0.174 HD
ENDBRANCH  30  35
BRANCH  33  38
HETATM   38  O2  UNL     1      10.342 -11.911  23.838  1.00  0.00    -0.266 OA
ATOM     39  H2  UNL     1       9.940 -12.124  24.673  1.00  0.00     0.247 HD
ENDBRANCH  33  38
ENDBRANCH  27  28
ENDBRANCH  24  27
ENDBRANCH  23  24
ENDBRANCH  22  23
BRANCH  22  40
HETATM   40  C22 UNL     1      15.775 -12.358  19.219  1.00  0.00     0.255 C 
HETATM   41  N8  UNL     1      15.941 -13.557  18.483  1.00  0.00    -0.060 NA
HETATM   42  O3  UNL     1      15.970 -11.265  18.558  1.00  0.00    -0.275 OA
ENDBRANCH  22  40
ENDBRANCH   1  22
TORSDOF 17
ENDMDL
MODEL 5
REMARK VINA RESULT: -7.725240353      2.202      3.583
REMARK  17 active torsions:
REMARK  status: ('A' for Active; 'I' for Inactive)
REMARK    1  A    between atoms: N1_5  and  C5_6 
REMARK    2  A    between atoms: C5_6  and  C6_7 
REMARK    3  A    between atoms: C7_8  and  C8_9 
REMARK    4  A    between atoms: C8_9  and  C10_11 
REMARK    5  A    between atoms: C11_12  and  C12_13 
REMARK    6  A    between atoms: C12_13  and  C13_14 
REMARK    7  A    between atoms: C13_14  and  C14_15 
REMARK    8  A    between atoms: C14_15  and  O1_16 
REMARK    9  A    between atoms: C14_15  and  N2_18 
REMARK   10  A    between atoms: N2_18  and  C15_20 
REMARK   11  A    between atoms: C15_20  and  C16_21 
REMARK   12  A    between atoms: C15_20  and  C22_38 
REMARK   13  A    between atoms: C16_21  and  N3_22 
REMARK   14  A    between atoms: N3_22  and  C19_25 
REMARK   15  A    between atoms: C19_25  and  C20_26 
REMARK   16  A    between atoms: C21_29  and  N5_30 
REMARK   17  A    between atoms: N7_35  and  O2_36 
ROOT
HETATM    1  N2  UNL     1      15.441 -12.550  18.276  1.00  0.00    -0.356 N 
ATOM      2  H2  UNL     1      15.170 -12.750  17.313  1.00  0.00     0.162 HD
ENDROOT
BRANCH   1   3
HETATM    3  C14 UNL     1      16.535 -11.770  18.537  1.00  0.00     0.136 C 
BRANCH   3   4
HETATM    4  C13 UNL     1      17.291 -11.562  19.708  1.00  0.00     0.055 C 
BRANCH   4   5
HETATM    5  C12 UNL     1      18.533 -11.540  19.992  1.00  0.00     0.004 C 
BRANCH   5   6
HETATM    6  C11 UNL     1      19.533 -12.560  19.770  1.00  0.00    -0.003 C 
HETATM    7  C10 UNL     1      20.025 -13.355  20.694  1.00  0.00    -0.010 C 
BRANCH   7   8
HETATM    8  C8  UNL     1      19.639 -13.328  22.096  1.00  0.00     0.083 C 
HETATM    9  C9  UNL     1      18.796 -14.570  22.405  1.00  0.00     0.027 C 
BRANCH   8  10
HETATM   10  C7  UNL     1      20.926 -13.523  22.861  1.00  0.00    -0.097 C 
HETATM   11  C6  UNL     1      21.952 -13.645  23.477  1.00  0.00    -0.084 C 
BRANCH  11  12
HETATM   12  C5  UNL     1      23.192 -13.752  24.239  1.00  0.00     0.241 C 
BRANCH  12  13
HETATM   13  N1  UNL     1      23.975 -14.905  23.850  1.00  0.00    -0.292 N 
HETATM   14  C4  UNL     1      23.669 -16.169  24.249  1.00  0.00     0.113 A 
HETATM   15  C3  UNL     1      24.621 -17.028  23.720  1.00  0.00     0.045 A 
HETATM   16  C2  UNL     1      25.485 -16.223  23.002  1.00  0.00     0.023 A 
HETATM   17  C1  UNL     1      26.670 -16.748  22.262  1.00  0.00     0.070 C 
HETATM   18  N9  UNL     1      25.078 -14.955  23.095  1.00  0.00    -0.303 N 
ATOM     19  H9  UNL     1      25.534 -14.153  22.661  1.00  0.00     0.186 HD
ENDBRANCH  12  13
ENDBRANCH  11  12
ENDBRANCH   8  10
ENDBRANCH   7   8
ENDBRANCH   5   6
ENDBRANCH   4   5
ENDBRANCH   3   4
BRANCH   3  20
HETATM   20  O1  UNL     1      16.954 -11.087  17.468  1.00  0.00    -0.346 OA
ATOM     21  H1  UNL     1      16.700 -11.458  16.631  1.00  0.00     0.219 HD
ENDBRANCH   3  20
ENDBRANCH   1   3
BRANCH   1  22
HETATM   22  C15 UNL     1      14.620 -13.124  19.448  1.00  0.00     0.199 C 
BRANCH  22  23
HETATM   23  C16 UNL     1      13.612 -12.061  19.668  1.00  0.00     0.271 C 
BRANCH  23  24
HETATM   24  N3  UNL     1      13.506 -11.372  20.887  1.00  0.00    -0.066 N 
HETATM   25  C17 UNL     1      14.137 -10.021  20.749  1.00  0.00     0.272 C 
HETATM   26  C18 UNL     1      14.192 -11.955  22.027  1.00  0.00     0.272 C 
BRANCH  24  27
HETATM   27  C19 UNL     1      12.156 -11.090  21.271  1.00  0.00     0.317 C 
BRANCH  27  28
HETATM   28  C20 UNL     1      11.968 -10.299  22.493  1.00  0.00     0.170 A 
HETATM   29  N4  UNL     1      12.481  -9.096  22.734  1.00  0.00    -0.174 N 
HETATM   30  C21 UNL     1      12.083  -8.740  23.992  1.00  0.00     0.694 A 
ATOM     31  H4  UNL     1      13.062  -8.545  22.101  1.00  0.00     0.185 HD
HETATM   32  N6  UNL     1      11.339  -9.739  24.470  1.00  0.00    -0.104 N 
HETATM   33  N7  UNL     1      11.270 -10.684  23.560  1.00  0.00    -0.134 N 
ATOM     34  H6  UNL     1      10.898  -9.766  25.389  1.00  0.00     0.208 HD
BRANCH  30  35
HETATM   35  N5  UNL     1      12.375  -7.628  24.583  1.00  0.00    -0.233 N 
ATOM     36  H52 UNL     1      13.201  -7.426  25.146  1.00  0.00     0.174 HD
ATOM     37  H51 UNL     1      11.800  -6.786  24.575  1.00  0.00     0.174 HD
ENDBRANCH  30  35
BRANCH  33  38
HETATM   38  O2  UNL     1      10.577 -11.886  23.711  1.00  0.00    -0.266 OA
ATOM     39  H2  UNL     1      10.940 -12.718  23.995  1.00  0.00     0.247 HD
ENDBRANCH  33  38
ENDBRANCH  27  28
ENDBRANCH  24  27
ENDBRANCH  23  24
ENDBRANCH  22  23
BRANCH  22  40
HETATM   40  C22 UNL     1      14.164 -14.400  18.882  1.00  0.00     0.255 C 
HETATM   41  N8  UNL     1      15.004 -15.267  18.139  1.00  0.00    -0.060 NA
HETATM   42  O3  UNL     1      12.946 -14.803  19.038  1.00  0.00    -0.275 OA
ENDBRANCH  22  40
ENDBRANCH   1  22
TORSDOF 17
ENDMDL
