MODEL 1
REMARK VINA RESULT: -8.225986061      0.000      0.000
REMARK  12 active torsions:
REMARK  status: ('A' for Active; 'I' for Inactive)
REMARK    1  A    between atoms: C3_5  and  C4_6 
REMARK    2  A    between atoms: C4_6  and  N2_7 
REMARK    3  A    between atoms: C6_13  and  C7_14 
REMARK    4  A    between atoms: C8_15  and  C9_16 
REMARK    5  A    between atoms: C9_16  and  C10_17 
REMARK    6  A    between atoms: C9_16  and  N5_22 
REMARK    7  A    between atoms: C10_17  and  C11_18 
REMARK    8  A    between atoms: C11_18  and  C12_19 
REMARK       I    between atoms: N5_22  and  C13_24 
REMARK    9  A    between atoms: C13_24  and  C14_26 
REMARK   10  A    between atoms: C14_26  and  N7_29 
REMARK       I    between atoms: N7_29  and  C16_31 
REMARK   11  A    between atoms: C16_31  and  C17_33 
REMARK   12  A    between atoms: C17_33  and  N8_34 
ROOT
HETATM    1  C14 UNL     1      16.178 -11.259  20.547  1.00  0.00     0.284 C 
HETATM    2  C15 UNL     1      16.664 -11.354  19.170  1.00  0.00     0.094 C 
HETATM    3  N6  UNL     1      17.057 -11.441  18.085  1.00  0.00    -0.195 NA
ENDROOT
BRANCH   1   4
HETATM    4  C13 UNL     1      16.492 -12.468  21.330  1.00  0.00     0.255 C 
HETATM    5  N5  UNL     1      17.566 -13.298  20.937  1.00  0.00    -0.351 N 
ATOM      6  H5  UNL     1      18.106 -13.039  20.112  1.00  0.00     0.163 HD
HETATM    7  O2  UNL     1      15.796 -12.739  22.335  1.00  0.00    -0.270 OA
BRANCH   5   8
HETATM    8  C9  UNL     1      17.936 -14.503  21.655  1.00  0.00     0.108 C 
BRANCH   8   9
HETATM    9  C8  UNL     1      19.320 -14.318  22.155  1.00  0.00    -0.001 C 
HETATM   10  C7  UNL     1      19.487 -13.940  23.421  1.00  0.00     0.012 C 
BRANCH  10  11
HETATM   11  C6  UNL     1      20.829 -13.748  23.948  1.00  0.00    -0.008 A 
HETATM   12  C2  UNL     1      21.154 -13.493  25.262  1.00  0.00     0.033 A 
HETATM   13  C1  UNL     1      20.311 -13.376  26.267  1.00  0.00     0.044 C 
HETATM   14  N1  UNL     1      22.490 -13.372  25.392  1.00  0.00    -0.355 N 
HETATM   15  C3  UNL     1      23.063 -13.542  24.184  1.00  0.00     0.050 A 
ATOM     16  H1  UNL     1      22.987 -13.182  26.262  1.00  0.00     0.166 HD
HETATM   17  C5  UNL     1      22.032 -13.778  23.281  1.00  0.00     0.044 A 
BRANCH  15  18
HETATM   18  C4  UNL     1      24.349 -13.497  23.907  1.00  0.00     0.136 C 
BRANCH  18  19
HETATM   19  N2  UNL     1      25.112 -14.697  23.932  1.00  0.00    -0.316 N 
HETATM   20  N3  UNL     1      25.581 -15.200  22.860  1.00  0.00    -0.345 N 
ATOM     21  H32 UNL     1      25.397 -14.723  21.978  1.00  0.00     0.176 HD
ATOM     22  H31 UNL     1      26.128 -16.062  22.877  1.00  0.00     0.176 HD
ATOM     23  H2  UNL     1      25.286 -15.163  24.822  1.00  0.00     0.185 HD
ENDBRANCH  18  19
ENDBRANCH  15  18
ENDBRANCH  10  11
ENDBRANCH   8   9
BRANCH   8  24
HETATM   24  C10 UNL     1      17.958 -15.679  20.699  1.00  0.00     0.038 C 
BRANCH  24  25
HETATM   25  C11 UNL     1      16.629 -16.401  20.680  1.00  0.00     0.102 C 
BRANCH  25  26
HETATM   26  C12 UNL     1      16.004 -16.219  19.363  1.00  0.00     0.231 C 
HETATM   27  N4  UNL     1      15.491 -14.937  18.998  1.00  0.00    -0.062 NA
HETATM   28  O1  UNL     1      15.889 -17.140  18.516  1.00  0.00    -0.277 OA
ENDBRANCH  25  26
ENDBRANCH  24  25
ENDBRANCH   8  24
ENDBRANCH   5   8
ENDBRANCH   1   4
BRANCH   1  29
HETATM   29  N7  UNL     1      14.748 -11.048  20.576  1.00  0.00    -0.335 N 
HETATM   30  C16 UNL     1      14.138  -9.786  20.567  1.00  0.00     0.237 C 
HETATM   31  O3  UNL     1      14.867  -8.751  20.531  1.00  0.00    -0.272 OA
ATOM     32  H7  UNL     1      14.145 -11.870  20.605  1.00  0.00     0.164 HD
BRANCH  30  33
HETATM   33  C17 UNL     1      12.663  -9.690  20.599  1.00  0.00     0.230 C 
BRANCH  33  34
HETATM   34  N8  UNL     1      12.115 -10.112  21.868  1.00  0.00    -0.358 N 
HETATM   35  C18 UNL     1      12.050  -9.240  22.894  1.00  0.00     0.091 A 
HETATM   36  C19 UNL     1      11.527  -9.616  24.132  1.00  0.00     0.017 A 
HETATM   37  C20 UNL     1      11.060 -10.892  24.341  1.00  0.00     0.003 A 
HETATM   38  C21 UNL     1      11.135 -11.774  23.274  1.00  0.00     0.017 A 
HETATM   39  C22 UNL     1      11.664 -11.353  22.063  1.00  0.00     0.091 A 
ENDBRANCH  33  34
ENDBRANCH  30  33
ENDBRANCH   1  29
TORSDOF 12
ENDMDL
MODEL 2
REMARK VINA RESULT: -7.919383178      1.942      2.352
REMARK  12 active torsions:
REMARK  status: ('A' for Active; 'I' for Inactive)
REMARK    1  A    between atoms: C3_5  and  C4_6 
REMARK    2  A    between atoms: C4_6  and  N2_7 
REMARK    3  A    between atoms: C6_13  and  C7_14 
REMARK    4  A    between atoms: C8_15  and  C9_16 
REMARK    5  A    between atoms: C9_16  and  C10_17 
REMARK    6  A    between atoms: C9_16  and  N5_22 
REMARK    7  A    between atoms: C10_17  and  C11_18 
REMARK    8  A    between atoms: C11_18  and  C12_19 
REMARK       I    between atoms: N5_22  and  C13_24 
REMARK    9  A    between atoms: C13_24  and  C14_26 
REMARK   10  A    between atoms: C14_26  and  N7_29 
REMARK       I    between atoms: N7_29  and  C16_31 
REMARK   11  A    between atoms: C16_31  and  C17_33 
REMARK   12  A    between atoms: C17_33  and  N8_34 
ROOT
HETATM    1  C14 UNL     1      16.069 -13.814  20.236  1.00  0.00     0.284 C 
HETATM    2  C15 UNL     1      15.970 -15.131  19.608  1.00  0.00     0.094 C 
HETATM    3  N6  UNL     1      15.897 -16.180  19.123  1.00  0.00    -0.195 NA
ENDROOT
BRANCH   1   4
HETATM    4  C13 UNL     1      16.407 -13.907  21.668  1.00  0.00     0.255 C 
HETATM    5  N5  UNL     1      16.945 -15.108  22.185  1.00  0.00    -0.351 N 
ATOM      6  H5  UNL     1      17.088 -15.891  21.548  1.00  0.00     0.163 HD
HETATM    7  O2  UNL     1      16.209 -12.914  22.405  1.00  0.00    -0.270 OA
BRANCH   5   8
HETATM    8  C9  UNL     1      17.301 -15.276  23.580  1.00  0.00     0.108 C 
BRANCH   8   9
HETATM    9  C8  UNL     1      18.771 -15.114  23.689  1.00  0.00    -0.001 C 
HETATM   10  C7  UNL     1      19.243 -13.987  24.221  1.00  0.00     0.012 C 
BRANCH  10  11
HETATM   11  C6  UNL     1      20.679 -13.791  24.344  1.00  0.00    -0.008 A 
HETATM   12  C2  UNL     1      21.329 -13.217  25.415  1.00  0.00     0.033 A 
HETATM   13  C1  UNL     1      20.767 -12.745  26.508  1.00  0.00     0.044 C 
HETATM   14  N1  UNL     1      22.658 -13.198  25.192  1.00  0.00    -0.355 N 
HETATM   15  C3  UNL     1      22.906 -13.751  23.988  1.00  0.00     0.050 A 
ATOM     16  H1  UNL     1      23.361 -12.825  25.829  1.00  0.00     0.166 HD
HETATM   17  C5  UNL     1      21.676 -14.123  23.456  1.00  0.00     0.044 A 
BRANCH  15  18
HETATM   18  C4  UNL     1      24.084 -13.911  23.421  1.00  0.00     0.136 C 
BRANCH  18  19
HETATM   19  N2  UNL     1      25.153 -14.466  24.177  1.00  0.00    -0.316 N 
HETATM   20  N3  UNL     1      25.175 -15.705  24.474  1.00  0.00    -0.345 N 
ATOM     21  H32 UNL     1      24.405 -16.294  24.158  1.00  0.00     0.176 HD
ATOM     22  H31 UNL     1      25.941 -16.103  25.017  1.00  0.00     0.176 HD
ATOM     23  H2  UNL     1      25.914 -13.863  24.487  1.00  0.00     0.185 HD
ENDBRANCH  18  19
ENDBRANCH  15  18
ENDBRANCH  10  11
ENDBRANCH   8   9
BRANCH   8  24
HETATM   24  C10 UNL     1      16.972 -16.689  24.023  1.00  0.00     0.038 C 
BRANCH  24  25
HETATM   25  C11 UNL     1      16.340 -17.485  22.903  1.00  0.00     0.102 C 
BRANCH  25  26
HETATM   26  C12 UNL     1      14.890 -17.556  23.127  1.00  0.00     0.231 C 
HETATM   27  N4  UNL     1      14.022 -16.686  22.400  1.00  0.00    -0.062 NA
HETATM   28  O1  UNL     1      14.350 -18.352  23.936  1.00  0.00    -0.277 OA
ENDBRANCH  25  26
ENDBRANCH  24  25
ENDBRANCH   8  24
ENDBRANCH   5   8
ENDBRANCH   1   4
BRANCH   1  29
HETATM   29  N7  UNL     1      14.830 -13.082  20.100  1.00  0.00    -0.335 N 
HETATM   30  C16 UNL     1      14.751 -11.711  19.821  1.00  0.00     0.237 C 
HETATM   31  O3  UNL     1      15.823 -11.051  19.675  1.00  0.00    -0.272 OA
ATOM     32  H7  UNL     1      13.957 -13.597  20.215  1.00  0.00     0.164 HD
BRANCH  30  33
HETATM   33  C17 UNL     1      13.427 -11.066  19.704  1.00  0.00     0.230 C 
BRANCH  33  34
HETATM   34  N8  UNL     1      12.807 -10.850  20.992  1.00  0.00    -0.358 N 
HETATM   35  C18 UNL     1      13.007  -9.689  21.647  1.00  0.00     0.091 A 
HETATM   36  C19 UNL     1      12.424  -9.450  22.892  1.00  0.00     0.017 A 
HETATM   37  C20 UNL     1      11.624 -10.397  23.488  1.00  0.00     0.003 A 
HETATM   38  C21 UNL     1      11.431 -11.584  22.800  1.00  0.00     0.017 A 
HETATM   39  C22 UNL     1      12.033 -11.775  21.565  1.00  0.00     0.091 A 
ENDBRANCH  33  34
ENDBRANCH  30  33
ENDBRANCH   1  29
TORSDOF 12
ENDMDL
MODEL 3
REMARK VINA RESULT: -7.780075318      2.495      8.518
REMARK  12 active torsions:
REMARK  status: ('A' for Active; 'I' for Inactive)
REMARK    1  A    between atoms: C3_5  and  C4_6 
REMARK    2  A    between atoms: C4_6  and  N2_7 
REMARK    3  A    between atoms: C6_13  and  C7_14 
REMARK    4  A    between atoms: C8_15  and  C9_16 
REMARK    5  A    between atoms: C9_16  and  C10_17 
REMARK    6  A    between atoms: C9_16  and  N5_22 
REMARK    7  A    between atoms: C10_17  and  C11_18 
REMARK    8  A    between atoms: C11_18  and  C12_19 
REMARK       I    between atoms: N5_22  and  C13_24 
REMARK    9  A    between atoms: C13_24  and  C14_26 
REMARK   10  A    between atoms: C14_26  and  N7_29 
REMARK       I    between atoms: N7_29  and  C16_31 
REMARK   11  A    between atoms: C16_31  and  C17_33 
REMARK   12  A    between atoms: C17_33  and  N8_34 
ROOT
HETATM    1  C14 UNL     1      19.186 -13.653  20.138  1.00  0.00     0.284 C 
HETATM    2  C15 UNL     1      20.030 -12.462  20.050  1.00  0.00     0.094 C 
HETATM    3  N6  UNL     1      20.687 -11.512  19.973  1.00  0.00    -0.195 NA
ENDROOT
BRANCH   1   4
HETATM    4  C13 UNL     1      17.808 -13.392  19.682  1.00  0.00     0.255 C 
HETATM    5  N5  UNL     1      16.772 -14.285  20.037  1.00  0.00    -0.351 N 
ATOM      6  H5  UNL     1      17.003 -15.098  20.606  1.00  0.00     0.163 HD
HETATM    7  O2  UNL     1      17.581 -12.376  18.985  1.00  0.00    -0.270 OA
BRANCH   5   8
HETATM    8  C9  UNL     1      15.393 -14.096  19.628  1.00  0.00     0.108 C 
BRANCH   8   9
HETATM    9  C8  UNL     1      14.807 -13.049  20.498  1.00  0.00    -0.001 C 
HETATM   10  C7  UNL     1      13.549 -12.674  20.274  1.00  0.00     0.012 C 
BRANCH  10  11
HETATM   11  C6  UNL     1      12.939 -11.649  21.106  1.00  0.00    -0.008 A 
HETATM   12  C2  UNL     1      12.838 -10.310  20.798  1.00  0.00     0.033 A 
HETATM   13  C1  UNL     1      13.274  -9.726  19.700  1.00  0.00     0.044 C 
HETATM   14  N1  UNL     1      12.216  -9.652  21.796  1.00  0.00    -0.355 N 
HETATM   15  C3  UNL     1      11.900 -10.532  22.767  1.00  0.00     0.050 A 
ATOM     16  H1  UNL     1      12.016  -8.652  21.813  1.00  0.00     0.166 HD
HETATM   17  C5  UNL     1      12.348 -11.777  22.342  1.00  0.00     0.044 A 
BRANCH  15  18
HETATM   18  C4  UNL     1      11.284 -10.267  23.900  1.00  0.00     0.136 C 
BRANCH  18  19
HETATM   19  N2  UNL     1      11.060  -8.913  24.274  1.00  0.00    -0.316 N 
HETATM   20  N3  UNL     1      12.028  -8.156  24.613  1.00  0.00    -0.345 N 
ATOM     21  H32 UNL     1      12.971  -8.543  24.611  1.00  0.00     0.176 HD
ATOM     22  H31 UNL     1      11.867  -7.185  24.881  1.00  0.00     0.176 HD
ATOM     23  H2  UNL     1      10.111  -8.542  24.271  1.00  0.00     0.185 HD
ENDBRANCH  18  19
ENDBRANCH  15  18
ENDBRANCH  10  11
ENDBRANCH   8   9
BRANCH   8  24
HETATM   24  C10 UNL     1      14.611 -15.371  19.872  1.00  0.00     0.038 C 
BRANCH  24  25
HETATM   25  C11 UNL     1      15.092 -16.085  21.116  1.00  0.00     0.102 C 
BRANCH  25  26
HETATM   26  C12 UNL     1      13.930 -16.448  21.938  1.00  0.00     0.231 C 
HETATM   27  N4  UNL     1      13.977 -17.627  22.743  1.00  0.00    -0.062 NA
HETATM   28  O1  UNL     1      12.871 -15.773  21.981  1.00  0.00    -0.277 OA
ENDBRANCH  25  26
ENDBRANCH  24  25
ENDBRANCH   8  24
ENDBRANCH   5   8
ENDBRANCH   1   4
BRANCH   1  29
HETATM   29  N7  UNL     1      19.137 -14.153  21.493  1.00  0.00    -0.335 N 
HETATM   30  C16 UNL     1      19.921 -15.213  21.971  1.00  0.00     0.237 C 
HETATM   31  O3  UNL     1      20.730 -15.784  21.180  1.00  0.00    -0.272 OA
ATOM     32  H7  UNL     1      18.492 -13.705  22.144  1.00  0.00     0.164 HD
BRANCH  30  33
HETATM   33  C17 UNL     1      19.788 -15.641  23.379  1.00  0.00     0.230 C 
BRANCH  33  34
HETATM   34  N8  UNL     1      20.257 -14.633  24.304  1.00  0.00    -0.358 N 
HETATM   35  C18 UNL     1      19.593 -14.419  25.457  1.00  0.00     0.091 A 
HETATM   36  C19 UNL     1      20.021 -13.454  26.370  1.00  0.00     0.017 A 
HETATM   37  C20 UNL     1      21.137 -12.691  26.118  1.00  0.00     0.003 A 
HETATM   38  C21 UNL     1      21.805 -12.925  24.926  1.00  0.00     0.017 A 
HETATM   39  C22 UNL     1      21.341 -13.896  24.051  1.00  0.00     0.091 A 
ENDBRANCH  33  34
ENDBRANCH  30  33
ENDBRANCH   1  29
TORSDOF 12
ENDMDL
MODEL 4
REMARK VINA RESULT: -7.721309579      2.569      8.434
REMARK  12 active torsions:
REMARK  status: ('A' for Active; 'I' for Inactive)
REMARK    1  A    between atoms: C3_5  and  C4_6 
REMARK    2  A    between atoms: C4_6  and  N2_7 
REMARK    3  A    between atoms: C6_13  and  C7_14 
REMARK    4  A    between atoms: C8_15  and  C9_16 
REMARK    5  A    between atoms: C9_16  and  C10_17 
REMARK    6  A    between atoms: C9_16  and  N5_22 
REMARK    7  A    between atoms: C10_17  and  C11_18 
REMARK    8  A    between atoms: C11_18  and  C12_19 
REMARK       I    between atoms: N5_22  and  C13_24 
REMARK    9  A    between atoms: C13_24  and  C14_26 
REMARK   10  A    between atoms: C14_26  and  N7_29 
REMARK       I    between atoms: N7_29  and  C16_31 
REMARK   11  A    between atoms: C16_31  and  C17_33 
REMARK   12  A    between atoms: C17_33  and  N8_34 
ROOT
HETATM    1  C14 UNL     1      19.036 -13.094  19.802  1.00  0.00     0.284 C 
HETATM    2  C15 UNL     1      20.163 -12.161  19.793  1.00  0.00     0.094 C 
HETATM    3  N6  UNL     1      21.045 -11.412  19.778  1.00  0.00    -0.195 NA
ENDROOT
BRANCH   1   4
HETATM    4  C13 UNL     1      17.788 -12.461  19.342  1.00  0.00     0.255 C 
HETATM    5  N5  UNL     1      16.542 -12.974  19.770  1.00  0.00    -0.351 N 
ATOM      6  H5  UNL     1      16.536 -13.780  20.395  1.00  0.00     0.163 HD
HETATM    7  O2  UNL     1      17.854 -11.473  18.574  1.00  0.00    -0.270 OA
BRANCH   5   8
HETATM    8  C9  UNL     1      15.272 -12.407  19.360  1.00  0.00     0.108 C 
BRANCH   8   9
HETATM    9  C8  UNL     1      14.583 -11.925  20.581  1.00  0.00    -0.001 C 
HETATM   10  C7  UNL     1      13.366 -11.397  20.452  1.00  0.00     0.012 C 
BRANCH  10  11
HETATM   11  C6  UNL     1      12.659 -10.912  21.627  1.00  0.00    -0.008 A 
HETATM   12  C2  UNL     1      11.922 -11.680  22.501  1.00  0.00     0.033 A 
HETATM   13  C1  UNL     1      11.727 -12.980  22.426  1.00  0.00     0.044 C 
HETATM   14  N1  UNL     1      11.406 -10.904  23.475  1.00  0.00    -0.355 N 
HETATM   15  C3  UNL     1      11.789  -9.629  23.264  1.00  0.00     0.050 A 
ATOM     16  H1  UNL     1      10.822 -11.228  24.246  1.00  0.00     0.166 HD
HETATM   17  C5  UNL     1      12.570  -9.629  22.114  1.00  0.00     0.044 A 
BRANCH  15  18
HETATM   18  C4  UNL     1      11.485  -8.582  24.003  1.00  0.00     0.136 C 
BRANCH  18  19
HETATM   19  N2  UNL     1      12.526  -7.839  24.624  1.00  0.00    -0.316 N 
HETATM   20  N3  UNL     1      12.534  -6.565  24.592  1.00  0.00    -0.345 N 
ATOM     21  H32 UNL     1      11.775  -6.086  24.110  1.00  0.00     0.176 HD
ATOM     22  H31 UNL     1      13.281  -6.032  25.038  1.00  0.00     0.176 HD
ATOM     23  H2  UNL     1      13.279  -8.333  25.102  1.00  0.00     0.185 HD
ENDBRANCH  18  19
ENDBRANCH  15  18
ENDBRANCH  10  11
ENDBRANCH   8   9
BRANCH   8  24
HETATM   24  C10 UNL     1      14.402 -13.490  18.753  1.00  0.00     0.038 C 
BRANCH  24  25
HETATM   25  C11 UNL     1      14.433 -14.753  19.585  1.00  0.00     0.102 C 
BRANCH  25  26
HETATM   26  C12 UNL     1      13.058 -15.238  19.769  1.00  0.00     0.231 C 
HETATM   27  N4  UNL     1      12.837 -16.533  20.328  1.00  0.00    -0.062 NA
HETATM   28  O1  UNL     1      12.040 -14.571  19.458  1.00  0.00    -0.277 OA
ENDBRANCH  25  26
ENDBRANCH  24  25
ENDBRANCH   8  24
ENDBRANCH   5   8
ENDBRANCH   1   4
BRANCH   1  29
HETATM   29  N7  UNL     1      18.821 -13.630  21.127  1.00  0.00    -0.335 N 
HETATM   30  C16 UNL     1      19.503 -14.738  21.650  1.00  0.00     0.237 C 
HETATM   31  O3  UNL     1      20.368 -15.321  20.931  1.00  0.00    -0.272 OA
ATOM     32  H7  UNL     1      18.128 -13.173  21.720  1.00  0.00     0.164 HD
BRANCH  30  33
HETATM   33  C17 UNL     1      19.201 -15.200  23.021  1.00  0.00     0.230 C 
BRANCH  33  34
HETATM   34  N8  UNL     1      19.872 -14.406  24.026  1.00  0.00    -0.358 N 
HETATM   35  C18 UNL     1      21.042 -13.804  23.735  1.00  0.00     0.091 A 
HETATM   36  C19 UNL     1      21.715 -13.032  24.683  1.00  0.00     0.017 A 
HETATM   37  C20 UNL     1      21.200 -12.861  25.946  1.00  0.00     0.003 A 
HETATM   38  C21 UNL     1      19.996 -13.489  26.227  1.00  0.00     0.017 A 
HETATM   39  C22 UNL     1      19.365 -14.246  25.251  1.00  0.00     0.091 A 
ENDBRANCH  33  34
ENDBRANCH  30  33
ENDBRANCH   1  29
TORSDOF 12
ENDMDL
MODEL 5
REMARK VINA RESULT: -7.642066587      2.473      8.368
REMARK  12 active torsions:
REMARK  status: ('A' for Active; 'I' for Inactive)
REMARK    1  A    between atoms: C3_5  and  C4_6 
REMARK    2  A    between atoms: C4_6  and  N2_7 
REMARK    3  A    between atoms: C6_13  and  C7_14 
REMARK    4  A    between atoms: C8_15  and  C9_16 
REMARK    5  A    between atoms: C9_16  and  C10_17 
REMARK    6  A    between atoms: C9_16  and  N5_22 
REMARK    7  A    between atoms: C10_17  and  C11_18 
REMARK    8  A    between atoms: C11_18  and  C12_19 
REMARK       I    between atoms: N5_22  and  C13_24 
REMARK    9  A    between atoms: C13_24  and  C14_26 
REMARK   10  A    between atoms: C14_26  and  N7_29 
REMARK       I    between atoms: N7_29  and  C16_31 
REMARK   11  A    between atoms: C16_31  and  C17_33 
REMARK   12  A    between atoms: C17_33  and  N8_34 
ROOT
HETATM    1  C14 UNL     1      19.080 -13.525  19.981  1.00  0.00     0.284 C 
HETATM    2  C15 UNL     1      20.059 -12.444  19.867  1.00  0.00     0.094 C 
HETATM    3  N6  UNL     1      20.824 -11.581  19.769  1.00  0.00    -0.195 NA
ENDROOT
BRANCH   1   4
HETATM    4  C13 UNL     1      17.726 -13.089  19.595  1.00  0.00     0.255 C 
HETATM    5  N5  UNL     1      16.692 -14.044  19.466  1.00  0.00    -0.351 N 
ATOM      6  H5  UNL     1      16.910 -15.024  19.645  1.00  0.00     0.163 HD
HETATM    7  O2  UNL     1      17.514 -11.872  19.388  1.00  0.00    -0.270 OA
BRANCH   5   8
HETATM    8  C9  UNL     1      15.336 -13.694  19.091  1.00  0.00     0.108 C 
BRANCH   8   9
HETATM    9  C8  UNL     1      14.729 -12.968  20.233  1.00  0.00    -0.001 C 
HETATM   10  C7  UNL     1      13.854 -11.999  19.970  1.00  0.00     0.012 C 
BRANCH  10  11
HETATM   11  C6  UNL     1      13.238 -11.263  21.064  1.00  0.00    -0.008 A 
HETATM   12  C2  UNL     1      13.480  -9.947  21.391  1.00  0.00     0.033 A 
HETATM   13  C1  UNL     1      14.307  -9.128  20.775  1.00  0.00     0.044 C 
HETATM   14  N1  UNL     1      12.737  -9.593  22.458  1.00  0.00    -0.355 N 
HETATM   15  C3  UNL     1      12.002 -10.653  22.849  1.00  0.00     0.050 A 
ATOM     16  H1  UNL     1      12.731  -8.673  22.899  1.00  0.00     0.166 HD
HETATM   17  C5  UNL     1      12.311 -11.697  21.983  1.00  0.00     0.044 A 
BRANCH  15  18
HETATM   18  C4  UNL     1      11.154 -10.698  23.855  1.00  0.00     0.136 C 
BRANCH  18  19
HETATM   19  N2  UNL     1      10.544 -11.935  24.201  1.00  0.00    -0.316 N 
HETATM   20  N3  UNL     1      10.601 -12.386  25.390  1.00  0.00    -0.345 N 
ATOM     21  H32 UNL     1      11.097 -11.840  26.095  1.00  0.00     0.176 HD
ATOM     22  H31 UNL     1      10.163 -13.274  25.639  1.00  0.00     0.176 HD
ATOM     23  H2  UNL     1      10.052 -12.469  23.485  1.00  0.00     0.185 HD
ENDBRANCH  18  19
ENDBRANCH  15  18
ENDBRANCH  10  11
ENDBRANCH   8   9
BRANCH   8  24
HETATM   24  C10 UNL     1      14.523 -14.956  18.881  1.00  0.00     0.038 C 
BRANCH  24  25
HETATM   25  C11 UNL     1      14.590 -15.864  20.089  1.00  0.00     0.102 C 
BRANCH  25  26
HETATM   26  C12 UNL     1      13.227 -16.108  20.580  1.00  0.00     0.231 C 
HETATM   27  N4  UNL     1      12.111 -15.799  19.744  1.00  0.00    -0.062 NA
HETATM   28  O1  UNL     1      12.972 -16.581  21.715  1.00  0.00    -0.277 OA
ENDBRANCH  25  26
ENDBRANCH  24  25
ENDBRANCH   8  24
ENDBRANCH   5   8
ENDBRANCH   1   4
BRANCH   1  29
HETATM   29  N7  UNL     1      19.033 -14.039  21.331  1.00  0.00    -0.335 N 
HETATM   30  C16 UNL     1      19.800 -15.119  21.790  1.00  0.00     0.237 C 
HETATM   31  O3  UNL     1      20.591 -15.697  20.985  1.00  0.00    -0.272 OA
ATOM     32  H7  UNL     1      18.402 -13.586  21.992  1.00  0.00     0.164 HD
BRANCH  30  33
HETATM   33  C17 UNL     1      19.670 -15.560  23.194  1.00  0.00     0.230 C 
BRANCH  33  34
HETATM   34  N8  UNL     1      20.205 -14.590  24.124  1.00  0.00    -0.358 N 
HETATM   35  C18 UNL     1      19.522 -14.288  25.246  1.00  0.00     0.091 A 
HETATM   36  C19 UNL     1      20.011 -13.357  26.162  1.00  0.00     0.017 A 
HETATM   37  C20 UNL     1      21.209 -12.718  25.946  1.00  0.00     0.003 A 
HETATM   38  C21 UNL     1      21.896 -13.041  24.787  1.00  0.00     0.017 A 
HETATM   39  C22 UNL     1      21.369 -13.974  23.906  1.00  0.00     0.091 A 
ENDBRANCH  33  34
ENDBRANCH  30  33
ENDBRANCH   1  29
TORSDOF 12
ENDMDL
