MODEL 1
REMARK VINA RESULT: -7.840741415      0.000      0.000
REMARK  13 active torsions:
REMARK  status: ('A' for Active; 'I' for Inactive)
REMARK       I    between atoms: C2_2  and  N1_4 
REMARK    1  A    between atoms: N1_4  and  C3_6 
REMARK    2  A    between atoms: C3_6  and  O2_7 
REMARK    3  A    between atoms: C3_6  and  C4_9 
REMARK    4  A    between atoms: C3_6  and  C10_16 
REMARK    5  A    between atoms: C4_9  and  C5_10 
REMARK    6  A    between atoms: C5_10  and  C6_11 
REMARK    7  A    between atoms: C6_11  and  N2_12 
REMARK       I    between atoms: C10_16  and  N3_18 
REMARK    8  A    between atoms: N3_18  and  C11_20 
REMARK    9  A    between atoms: C11_20  and  C14_23 
REMARK   10  A    between atoms: C14_23  and  C15_24 
REMARK       I    between atoms: N4_27  and  C18_29 
REMARK   11  A    between atoms: C18_29  and  C19_31 
REMARK   12  A    between atoms: C19_31  and  N5_32 
REMARK   13  A    between atoms: N5_32  and  N6_34 
ROOT
HETATM    1  C11 UNL     1      18.345 -13.531  21.036  1.00  0.00     0.031 C 
HETATM    2  C12 UNL     1      17.661 -14.863  21.050  1.00  0.00     0.038 C 
HETATM    3  C13 UNL     1      19.593 -13.627  20.166  1.00  0.00     0.038 C 
ENDROOT
BRANCH   1   4
HETATM    4  N3  UNL     1      17.402 -12.585  20.375  1.00  0.00    -0.348 N 
HETATM    5  C10 UNL     1      16.203 -12.241  21.033  1.00  0.00     0.274 C 
HETATM    6  O3  UNL     1      15.937 -12.720  22.144  1.00  0.00    -0.268 OA
ATOM      7  H3  UNL     1      17.620 -12.191  19.460  1.00  0.00     0.163 HD
BRANCH   5   8
HETATM    8  C3  UNL     1      15.247 -11.303  20.402  1.00  0.00     0.217 C 
BRANCH   8   9
HETATM    9  N1  UNL     1      14.124 -11.013  21.247  1.00  0.00    -0.322 N 
HETATM   10  C2  UNL     1      13.231  -9.976  20.901  1.00  0.00     0.216 C 
HETATM   11  C1  UNL     1      12.046  -9.621  21.736  1.00  0.00     0.117 C 
HETATM   12  O1  UNL     1      13.413  -9.309  19.857  1.00  0.00    -0.274 OA
ATOM     13  H1  UNL     1      13.971 -11.556  22.096  1.00  0.00     0.166 HD
ENDBRANCH   8   9
BRANCH   8  14
HETATM   14  O2  UNL     1      15.965 -10.170  20.024  1.00  0.00    -0.363 OA
ATOM     15  H2  UNL     1      15.504  -9.620  19.402  1.00  0.00     0.213 HD
ENDBRANCH   8  14
BRANCH   8  16
HETATM   16  C4  UNL     1      14.811 -12.016  19.123  1.00  0.00     0.073 C 
BRANCH  16  17
HETATM   17  C5  UNL     1      13.651 -12.915  19.339  1.00  0.00     0.033 C 
BRANCH  17  18
HETATM   18  C6  UNL     1      14.042 -14.332  19.162  1.00  0.00     0.236 C 
BRANCH  18  19
HETATM   19  N2  UNL     1      13.428 -15.302  19.996  1.00  0.00    -0.079 N 
HETATM   20  C7  UNL     1      13.079 -14.672  21.270  1.00  0.00     0.271 C 
HETATM   21  C8  UNL     1      14.193 -16.496  20.250  1.00  0.00     0.271 C 
HETATM   22  C9  UNL     1      12.168 -15.714  19.408  1.00  0.00     0.271 C 
ENDBRANCH  18  19
ENDBRANCH  17  18
ENDBRANCH  16  17
ENDBRANCH   8  16
ENDBRANCH   5   8
ENDBRANCH   1   4
BRANCH   1  23
HETATM   23  C14 UNL     1      18.717 -12.981  22.355  1.00  0.00     0.087 C 
BRANCH  23  24
HETATM   24  C15 UNL     1      18.658 -13.816  23.528  1.00  0.00     0.013 A 
HETATM   25  C16 UNL     1      19.860 -14.215  24.134  1.00  0.00     0.054 A 
HETATM   26  C17 UNL     1      19.925 -14.997  25.238  1.00  0.00     0.037 A 
HETATM   27  N4  UNL     1      21.068 -15.346  25.765  1.00  0.00    -0.326 N 
HETATM   28  C20 UNL     1      18.737 -15.417  25.791  1.00  0.00     0.046 A 
HETATM   29  C18 UNL     1      22.263 -14.883  25.147  1.00  0.00     0.241 C 
ATOM     30  H4  UNL     1      21.104 -15.934  26.597  1.00  0.00     0.169 HD
HETATM   31  O4  UNL     1      22.617 -13.699  25.365  1.00  0.00    -0.271 OA
HETATM   32  C21 UNL     1      17.550 -15.038  25.216  1.00  0.00     0.090 A 
HETATM   33  N8  UNL     1      17.538 -14.245  24.096  1.00  0.00    -0.369 N 
ATOM     34  H8  UNL     1      16.642 -13.978  23.688  1.00  0.00     0.165 HD
BRANCH  29  35
HETATM   35  C19 UNL     1      23.063 -15.788  24.269  1.00  0.00     0.243 C 
BRANCH  35  36
HETATM   36  N5  UNL     1      24.489 -15.609  24.547  1.00  0.00    -0.314 N 
ATOM     37  H5  UNL     1      24.941 -16.217  25.229  1.00  0.00     0.182 HD
BRANCH  36  38
HETATM   38  N6  UNL     1      25.244 -14.633  23.908  1.00  0.00    -0.253 N 
HETATM   39  N7  UNL     1      24.607 -13.861  23.105  1.00  0.00    -0.331 N 
ATOM     40  H72 UNL     1      23.603 -13.971  22.956  1.00  0.00     0.178 HD
ATOM     41  H71 UNL     1      25.161 -13.145  22.636  1.00  0.00     0.178 HD
ATOM     42  H6  UNL     1      26.247 -14.536  24.067  1.00  0.00     0.207 HD
ENDBRANCH  36  38
ENDBRANCH  35  36
ENDBRANCH  29  35
ENDBRANCH  23  24
ENDBRANCH   1  23
TORSDOF 13
ENDMDL
MODEL 2
REMARK VINA RESULT: -7.431654281      1.111      1.541
REMARK  13 active torsions:
REMARK  status: ('A' for Active; 'I' for Inactive)
REMARK       I    between atoms: C2_2  and  N1_4 
REMARK    1  A    between atoms: N1_4  and  C3_6 
REMARK    2  A    between atoms: C3_6  and  O2_7 
REMARK    3  A    between atoms: C3_6  and  C4_9 
REMARK    4  A    between atoms: C3_6  and  C10_16 
REMARK    5  A    between atoms: C4_9  and  C5_10 
REMARK    6  A    between atoms: C5_10  and  C6_11 
REMARK    7  A    between atoms: C6_11  and  N2_12 
REMARK       I    between atoms: C10_16  and  N3_18 
REMARK    8  A    between atoms: N3_18  and  C11_20 
REMARK    9  A    between atoms: C11_20  and  C14_23 
REMARK   10  A    between atoms: C14_23  and  C15_24 
REMARK       I    between atoms: N4_27  and  C18_29 
REMARK   11  A    between atoms: C18_29  and  C19_31 
REMARK   12  A    between atoms: C19_31  and  N5_32 
REMARK   13  A    between atoms: N5_32  and  N6_34 
ROOT
HETATM    1  C11 UNL     1      18.517 -13.701  20.692  1.00  0.00     0.031 C 
HETATM    2  C12 UNL     1      18.280 -15.176  20.801  1.00  0.00     0.038 C 
HETATM    3  C13 UNL     1      19.823 -13.465  19.944  1.00  0.00     0.038 C 
ENDROOT
BRANCH   1   4
HETATM    4  N3  UNL     1      17.409 -13.162  19.854  1.00  0.00    -0.348 N 
HETATM    5  C10 UNL     1      16.076 -13.433  20.223  1.00  0.00     0.274 C 
HETATM    6  O3  UNL     1      15.829 -14.112  21.229  1.00  0.00    -0.268 OA
ATOM      7  H3  UNL     1      17.613 -12.604  19.024  1.00  0.00     0.163 HD
BRANCH   5   8
HETATM    8  C3  UNL     1      14.954 -12.910  19.410  1.00  0.00     0.217 C 
BRANCH   8   9
HETATM    9  N1  UNL     1      14.097 -12.034  20.157  1.00  0.00    -0.322 N 
HETATM   10  C2  UNL     1      14.541 -10.740  20.504  1.00  0.00     0.216 C 
HETATM   11  C1  UNL     1      13.702  -9.781  21.282  1.00  0.00     0.117 C 
HETATM   12  O1  UNL     1      15.681 -10.352  20.160  1.00  0.00    -0.274 OA
ATOM     13  H1  UNL     1      13.167 -12.346  20.436  1.00  0.00     0.166 HD
ENDBRANCH   8   9
BRANCH   8  14
HETATM   14  O2  UNL     1      15.505 -12.316  18.277  1.00  0.00    -0.363 OA
ATOM     15  H2  UNL     1      16.121 -12.875  17.818  1.00  0.00     0.213 HD
ENDBRANCH   8  14
BRANCH   8  16
HETATM   16  C4  UNL     1      14.206 -14.162  18.954  1.00  0.00     0.073 C 
BRANCH  16  17
HETATM   17  C5  UNL     1      12.841 -14.252  19.528  1.00  0.00     0.033 C 
BRANCH  17  18
HETATM   18  C6  UNL     1      12.242 -15.580  19.258  1.00  0.00     0.236 C 
BRANCH  18  19
HETATM   19  N2  UNL     1      12.336 -16.570  20.269  1.00  0.00    -0.079 N 
HETATM   20  C7  UNL     1      11.011 -17.156  20.478  1.00  0.00     0.271 C 
HETATM   21  C8  UNL     1      12.867 -16.133  21.536  1.00  0.00     0.271 C 
HETATM   22  C9  UNL     1      13.173 -17.658  19.804  1.00  0.00     0.271 C 
ENDBRANCH  18  19
ENDBRANCH  17  18
ENDBRANCH  16  17
ENDBRANCH   8  16
ENDBRANCH   5   8
ENDBRANCH   1   4
BRANCH   1  23
HETATM   23  C14 UNL     1      18.549 -12.956  21.967  1.00  0.00     0.087 C 
BRANCH  23  24
HETATM   24  C15 UNL     1      18.604 -13.668  23.218  1.00  0.00     0.013 A 
HETATM   25  C16 UNL     1      19.853 -13.876  23.823  1.00  0.00     0.054 A 
HETATM   26  C17 UNL     1      20.024 -14.529  24.997  1.00  0.00     0.037 A 
HETATM   27  N4  UNL     1      21.209 -14.701  25.520  1.00  0.00    -0.326 N 
HETATM   28  C20 UNL     1      18.899 -15.013  25.625  1.00  0.00     0.046 A 
HETATM   29  C18 UNL     1      22.335 -14.182  24.822  1.00  0.00     0.241 C 
ATOM     30  H4  UNL     1      21.324 -15.195  26.405  1.00  0.00     0.169 HD
HETATM   31  O4  UNL     1      22.564 -12.952  24.910  1.00  0.00    -0.271 OA
HETATM   32  C21 UNL     1      17.668 -14.820  25.053  1.00  0.00     0.090 A 
HETATM   33  N8  UNL     1      17.548 -14.152  23.861  1.00  0.00    -0.369 N 
ATOM     34  H8  UNL     1      16.620 -14.023  23.457  1.00  0.00     0.165 HD
BRANCH  29  35
HETATM   35  C19 UNL     1      23.208 -15.084  24.014  1.00  0.00     0.243 C 
BRANCH  35  36
HETATM   36  N5  UNL     1      24.336 -14.321  23.474  1.00  0.00    -0.314 N 
ATOM     37  H5  UNL     1      24.172 -13.378  23.123  1.00  0.00     0.182 HD
BRANCH  36  38
HETATM   38  N6  UNL     1      25.621 -14.846  23.427  1.00  0.00    -0.253 N 
HETATM   39  N7  UNL     1      25.928 -15.494  22.363  1.00  0.00    -0.331 N 
ATOM     40  H72 UNL     1      25.255 -15.608  21.605  1.00  0.00     0.178 HD
ATOM     41  H71 UNL     1      26.872 -15.879  22.329  1.00  0.00     0.178 HD
ATOM     42  H6  UNL     1      26.283 -14.723  24.193  1.00  0.00     0.207 HD
ENDBRANCH  36  38
ENDBRANCH  35  36
ENDBRANCH  29  35
ENDBRANCH  23  24
ENDBRANCH   1  23
TORSDOF 13
ENDMDL
MODEL 3
REMARK VINA RESULT: -7.393885708      1.094      1.265
REMARK  13 active torsions:
REMARK  status: ('A' for Active; 'I' for Inactive)
REMARK       I    between atoms: C2_2  and  N1_4 
REMARK    1  A    between atoms: N1_4  and  C3_6 
REMARK    2  A    between atoms: C3_6  and  O2_7 
REMARK    3  A    between atoms: C3_6  and  C4_9 
REMARK    4  A    between atoms: C3_6  and  C10_16 
REMARK    5  A    between atoms: C4_9  and  C5_10 
REMARK    6  A    between atoms: C5_10  and  C6_11 
REMARK    7  A    between atoms: C6_11  and  N2_12 
REMARK       I    between atoms: C10_16  and  N3_18 
REMARK    8  A    between atoms: N3_18  and  C11_20 
REMARK    9  A    between atoms: C11_20  and  C14_23 
REMARK   10  A    between atoms: C14_23  and  C15_24 
REMARK       I    between atoms: N4_27  and  C18_29 
REMARK   11  A    between atoms: C18_29  and  C19_31 
REMARK   12  A    between atoms: C19_31  and  N5_32 
REMARK   13  A    between atoms: N5_32  and  N6_34 
ROOT
HETATM    1  C11 UNL     1      18.119 -13.267  20.545  1.00  0.00     0.031 C 
HETATM    2  C12 UNL     1      18.473 -14.720  20.461  1.00  0.00     0.038 C 
HETATM    3  C13 UNL     1      18.787 -12.529  19.391  1.00  0.00     0.038 C 
ENDROOT
BRANCH   1   4
HETATM    4  N3  UNL     1      16.644 -13.185  20.343  1.00  0.00    -0.348 N 
HETATM    5  C10 UNL     1      16.078 -11.968  19.912  1.00  0.00     0.274 C 
HETATM    6  O3  UNL     1      16.797 -10.980  19.705  1.00  0.00    -0.268 OA
ATOM      7  H3  UNL     1      16.052 -13.998  20.515  1.00  0.00     0.163 HD
BRANCH   5   8
HETATM    8  C3  UNL     1      14.617 -11.856  19.702  1.00  0.00     0.217 C 
BRANCH   8   9
HETATM    9  N1  UNL     1      13.924 -11.424  20.883  1.00  0.00    -0.322 N 
HETATM   10  C2  UNL     1      13.738 -10.047  21.127  1.00  0.00     0.216 C 
HETATM   11  C1  UNL     1      13.031  -9.531  22.335  1.00  0.00     0.117 C 
HETATM   12  O1  UNL     1      14.173  -9.199  20.315  1.00  0.00    -0.274 OA
ATOM     13  H1  UNL     1      13.567 -12.113  21.544  1.00  0.00     0.166 HD
ENDBRANCH   8   9
BRANCH   8  14
HETATM   14  O2  UNL     1      14.418 -11.022  18.604  1.00  0.00    -0.363 OA
ATOM     15  H2  UNL     1      15.204 -10.566  18.328  1.00  0.00     0.213 HD
ENDBRANCH   8  14
BRANCH   8  16
HETATM   16  C4  UNL     1      14.188 -13.265  19.291  1.00  0.00     0.073 C 
BRANCH  16  17
HETATM   17  C5  UNL     1      12.911 -13.679  19.921  1.00  0.00     0.033 C 
BRANCH  17  18
HETATM   18  C6  UNL     1      12.481 -15.004  19.419  1.00  0.00     0.236 C 
BRANCH  18  19
HETATM   19  N2  UNL     1      12.641 -16.125  20.274  1.00  0.00    -0.079 N 
HETATM   20  C7  UNL     1      12.852 -15.646  21.641  1.00  0.00     0.271 C 
HETATM   21  C8  UNL     1      13.696 -17.042  19.924  1.00  0.00     0.271 C 
HETATM   22  C9  UNL     1      11.406 -16.882  20.313  1.00  0.00     0.271 C 
ENDBRANCH  18  19
ENDBRANCH  17  18
ENDBRANCH  16  17
ENDBRANCH   8  16
ENDBRANCH   5   8
ENDBRANCH   1   4
BRANCH   1  23
HETATM   23  C14 UNL     1      18.459 -12.591  21.813  1.00  0.00     0.087 C 
BRANCH  23  24
HETATM   24  C15 UNL     1      18.493 -13.340  23.044  1.00  0.00     0.013 A 
HETATM   25  C16 UNL     1      19.729 -13.542  23.677  1.00  0.00     0.054 A 
HETATM   26  C17 UNL     1      19.880 -14.227  24.835  1.00  0.00     0.037 A 
HETATM   27  N4  UNL     1      21.054 -14.392  25.387  1.00  0.00    -0.326 N 
HETATM   28  C20 UNL     1      18.749 -14.751  25.417  1.00  0.00     0.046 A 
HETATM   29  C18 UNL     1      22.187 -13.830  24.738  1.00  0.00     0.241 C 
ATOM     30  H4  UNL     1      21.154 -14.909  26.260  1.00  0.00     0.169 HD
HETATM   31  O4  UNL     1      22.389 -12.598  24.869  1.00  0.00    -0.271 OA
HETATM   32  C21 UNL     1      17.530 -14.565  24.815  1.00  0.00     0.090 A 
HETATM   33  N8  UNL     1      17.430 -13.864  23.641  1.00  0.00    -0.369 N 
ATOM     34  H8  UNL     1      16.512 -13.740  23.214  1.00  0.00     0.165 HD
BRANCH  29  35
HETATM   35  C19 UNL     1      23.102 -14.689  23.928  1.00  0.00     0.243 C 
BRANCH  35  36
HETATM   36  N5  UNL     1      24.440 -14.096  23.903  1.00  0.00    -0.314 N 
ATOM     37  H5  UNL     1      24.551 -13.113  24.152  1.00  0.00     0.182 HD
BRANCH  36  38
HETATM   38  N6  UNL     1      25.564 -14.835  23.552  1.00  0.00    -0.253 N 
HETATM   39  N7  UNL     1      25.568 -15.324  22.365  1.00  0.00    -0.331 N 
ATOM     40  H72 UNL     1      24.785 -15.171  21.730  1.00  0.00     0.178 HD
ATOM     41  H71 UNL     1      26.393 -15.866  22.108  1.00  0.00     0.178 HD
ATOM     42  H6  UNL     1      26.339 -14.978  24.198  1.00  0.00     0.207 HD
ENDBRANCH  36  38
ENDBRANCH  35  36
ENDBRANCH  29  35
ENDBRANCH  23  24
ENDBRANCH   1  23
TORSDOF 13
ENDMDL
MODEL 4
REMARK VINA RESULT: -7.319300804      1.272      1.787
REMARK  13 active torsions:
REMARK  status: ('A' for Active; 'I' for Inactive)
REMARK       I    between atoms: C2_2  and  N1_4 
REMARK    1  A    between atoms: N1_4  and  C3_6 
REMARK    2  A    between atoms: C3_6  and  O2_7 
REMARK    3  A    between atoms: C3_6  and  C4_9 
REMARK    4  A    between atoms: C3_6  and  C10_16 
REMARK    5  A    between atoms: C4_9  and  C5_10 
REMARK    6  A    between atoms: C5_10  and  C6_11 
REMARK    7  A    between atoms: C6_11  and  N2_12 
REMARK       I    between atoms: C10_16  and  N3_18 
REMARK    8  A    between atoms: N3_18  and  C11_20 
REMARK    9  A    between atoms: C11_20  and  C14_23 
REMARK   10  A    between atoms: C14_23  and  C15_24 
REMARK       I    between atoms: N4_27  and  C18_29 
REMARK   11  A    between atoms: C18_29  and  C19_31 
REMARK   12  A    between atoms: C19_31  and  N5_32 
REMARK   13  A    between atoms: N5_32  and  N6_34 
ROOT
HETATM    1  C11 UNL     1      18.836 -12.531  20.022  1.00  0.00     0.031 C 
HETATM    2  C12 UNL     1      19.381 -12.213  18.664  1.00  0.00     0.038 C 
HETATM    3  C13 UNL     1      18.867 -11.268  20.874  1.00  0.00     0.038 C 
ENDROOT
BRANCH   1   4
HETATM    4  N3  UNL     1      17.408 -12.908  19.820  1.00  0.00    -0.348 N 
HETATM    5  C10 UNL     1      16.484 -11.913  19.440  1.00  0.00     0.274 C 
HETATM    6  O3  UNL     1      16.854 -10.742  19.276  1.00  0.00    -0.268 OA
ATOM      7  H3  UNL     1      17.103 -13.872  19.956  1.00  0.00     0.163 HD
BRANCH   5   8
HETATM    8  C3  UNL     1      15.059 -12.257  19.231  1.00  0.00     0.217 C 
BRANCH   8   9
HETATM    9  N1  UNL     1      14.246 -11.941  20.371  1.00  0.00    -0.322 N 
HETATM   10  C2  UNL     1      13.525 -10.729  20.408  1.00  0.00     0.216 C 
HETATM   11  C1  UNL     1      12.664 -10.338  21.563  1.00  0.00     0.117 C 
HETATM   12  O1  UNL     1      13.589  -9.928  19.448  1.00  0.00    -0.274 OA
ATOM     13  H1  UNL     1      14.189 -12.593  21.153  1.00  0.00     0.166 HD
ENDBRANCH   8   9
BRANCH   8  14
HETATM   14  O2  UNL     1      14.647 -11.624  18.061  1.00  0.00    -0.363 OA
ATOM     15  H2  UNL     1      15.346 -11.503  17.429  1.00  0.00     0.213 HD
ENDBRANCH   8  14
BRANCH   8  16
HETATM   16  C4  UNL     1      15.072 -13.761  18.958  1.00  0.00     0.073 C 
BRANCH  16  17
HETATM   17  C5  UNL     1      13.739 -14.384  19.136  1.00  0.00     0.033 C 
BRANCH  17  18
HETATM   18  C6  UNL     1      13.865 -15.744  19.711  1.00  0.00     0.236 C 
BRANCH  18  19
HETATM   19  N2  UNL     1      13.013 -16.091  20.791  1.00  0.00    -0.079 N 
HETATM   20  C7  UNL     1      13.756 -16.944  21.720  1.00  0.00     0.271 C 
HETATM   21  C8  UNL     1      11.776 -16.740  20.438  1.00  0.00     0.271 C 
HETATM   22  C9  UNL     1      12.675 -14.899  21.542  1.00  0.00     0.271 C 
ENDBRANCH  18  19
ENDBRANCH  17  18
ENDBRANCH  16  17
ENDBRANCH   8  16
ENDBRANCH   5   8
ENDBRANCH   1   4
BRANCH   1  23
HETATM   23  C14 UNL     1      19.512 -13.623  20.751  1.00  0.00     0.087 C 
BRANCH  23  24
HETATM   24  C15 UNL     1      19.204 -13.864  22.138  1.00  0.00     0.013 A 
HETATM   25  C16 UNL     1      20.261 -14.018  23.048  1.00  0.00     0.054 A 
HETATM   26  C17 UNL     1      20.089 -14.247  24.372  1.00  0.00     0.037 A 
HETATM   27  N4  UNL     1      21.106 -14.386  25.182  1.00  0.00    -0.326 N 
HETATM   28  C20 UNL     1      18.798 -14.329  24.842  1.00  0.00     0.046 A 
HETATM   29  C18 UNL     1      22.417 -14.294  24.638  1.00  0.00     0.241 C 
ATOM     30  H4  UNL     1      20.963 -14.557  26.177  1.00  0.00     0.169 HD
HETATM   31  O4  UNL     1      22.872 -13.151  24.394  1.00  0.00    -0.271 OA
HETATM   32  C21 UNL     1      17.750 -14.181  23.970  1.00  0.00     0.090 A 
HETATM   33  N8  UNL     1      17.976 -13.952  22.636  1.00  0.00    -0.369 N 
ATOM     34  H8  UNL     1      17.179 -13.846  22.009  1.00  0.00     0.165 HD
BRANCH  29  35
HETATM   35  C19 UNL     1      23.216 -15.527  24.369  1.00  0.00     0.243 C 
BRANCH  35  36
HETATM   36  N5  UNL     1      24.638 -15.186  24.304  1.00  0.00    -0.314 N 
ATOM     37  H5  UNL     1      25.222 -15.340  25.126  1.00  0.00     0.182 HD
BRANCH  36  38
HETATM   38  N6  UNL     1      25.215 -14.660  23.155  1.00  0.00    -0.253 N 
HETATM   39  N7  UNL     1      25.983 -15.449  22.496  1.00  0.00    -0.331 N 
ATOM     40  H72 UNL     1      26.150 -16.405  22.812  1.00  0.00     0.178 HD
ATOM     41  H71 UNL     1      26.406 -15.063  21.653  1.00  0.00     0.178 HD
ATOM     42  H6  UNL     1      25.038 -13.702  22.852  1.00  0.00     0.207 HD
ENDBRANCH  36  38
ENDBRANCH  35  36
ENDBRANCH  29  35
ENDBRANCH  23  24
ENDBRANCH   1  23
TORSDOF 13
ENDMDL
MODEL 5
REMARK VINA RESULT: -7.303293503      3.309      5.937
REMARK  13 active torsions:
REMARK  status: ('A' for Active; 'I' for Inactive)
REMARK       I    between atoms: C2_2  and  N1_4 
REMARK    1  A    between atoms: N1_4  and  C3_6 
REMARK    2  A    between atoms: C3_6  and  O2_7 
REMARK    3  A    between atoms: C3_6  and  C4_9 
REMARK    4  A    between atoms: C3_6  and  C10_16 
REMARK    5  A    between atoms: C4_9  and  C5_10 
REMARK    6  A    between atoms: C5_10  and  C6_11 
REMARK    7  A    between atoms: C6_11  and  N2_12 
REMARK       I    between atoms: C10_16  and  N3_18 
REMARK    8  A    between atoms: N3_18  and  C11_20 
REMARK    9  A    between atoms: C11_20  and  C14_23 
REMARK   10  A    between atoms: C14_23  and  C15_24 
REMARK       I    between atoms: N4_27  and  C18_29 
REMARK   11  A    between atoms: C18_29  and  C19_31 
REMARK   12  A    between atoms: C19_31  and  N5_32 
REMARK   13  A    between atoms: N5_32  and  N6_34 
ROOT
HETATM    1  C11 UNL     1      16.487 -16.006  22.041  1.00  0.00     0.031 C 
HETATM    2  C12 UNL     1      16.809 -17.236  22.833  1.00  0.00     0.038 C 
HETATM    3  C13 UNL     1      16.986 -16.194  20.613  1.00  0.00     0.038 C 
ENDROOT
BRANCH   1   4
HETATM    4  N3  UNL     1      15.000 -15.917  21.995  1.00  0.00    -0.348 N 
HETATM    5  C10 UNL     1      14.397 -14.950  21.165  1.00  0.00     0.274 C 
HETATM    6  O3  UNL     1      15.093 -14.184  20.484  1.00  0.00    -0.268 OA
ATOM      7  H3  UNL     1      14.426 -16.547  22.557  1.00  0.00     0.163 HD
BRANCH   5   8
HETATM    8  C3  UNL     1      12.922 -14.838  21.097  1.00  0.00     0.217 C 
BRANCH   8   9
HETATM    9  N1  UNL     1      12.394 -13.938  22.083  1.00  0.00    -0.322 N 
HETATM   10  C2  UNL     1      12.147 -12.590  21.746  1.00  0.00     0.216 C 
HETATM   11  C1  UNL     1      11.603 -11.602  22.723  1.00  0.00     0.117 C 
HETATM   12  O1  UNL     1      12.385 -12.176  20.589  1.00  0.00    -0.274 OA
ATOM     13  H1  UNL     1      12.197 -14.273  23.026  1.00  0.00     0.166 HD
ENDBRANCH   8   9
BRANCH   8  14
HETATM   14  O2  UNL     1      12.592 -14.488  19.790  1.00  0.00    -0.363 OA
ATOM     15  H2  UNL     1      11.792 -13.979  19.725  1.00  0.00     0.213 HD
ENDBRANCH   8  14
BRANCH   8  16
HETATM   16  C4  UNL     1      12.427 -16.266  21.328  1.00  0.00     0.073 C 
BRANCH  16  17
HETATM   17  C5  UNL     1      11.575 -16.760  20.219  1.00  0.00     0.033 C 
BRANCH  17  18
HETATM   18  C6  UNL     1      11.262 -18.197  20.394  1.00  0.00     0.236 C 
BRANCH  18  19
HETATM   19  N2  UNL     1      11.430 -19.056  19.277  1.00  0.00    -0.079 N 
HETATM   20  C7  UNL     1      11.223 -18.281  18.053  1.00  0.00     0.271 C 
HETATM   21  C8  UNL     1      10.589 -20.226  19.246  1.00  0.00     0.271 C 
HETATM   22  C9  UNL     1      12.804 -19.513  19.222  1.00  0.00     0.271 C 
ENDBRANCH  18  19
ENDBRANCH  17  18
ENDBRANCH  16  17
ENDBRANCH   8  16
ENDBRANCH   5   8
ENDBRANCH   1   4
BRANCH   1  23
HETATM   23  C14 UNL     1      17.018 -14.736  22.576  1.00  0.00     0.087 C 
BRANCH  23  24
HETATM   24  C15 UNL     1      18.168 -14.120  21.963  1.00  0.00     0.013 A 
HETATM   25  C16 UNL     1      17.967 -13.193  20.929  1.00  0.00     0.054 A 
HETATM   26  C17 UNL     1      18.971 -12.553  20.284  1.00  0.00     0.037 A 
HETATM   27  N4  UNL     1      18.735 -11.698  19.324  1.00  0.00    -0.326 N 
HETATM   28  C20 UNL     1      20.260 -12.835  20.674  1.00  0.00     0.046 A 
HETATM   29  C18 UNL     1      17.382 -11.450  18.962  1.00  0.00     0.241 C 
ATOM     30  H4  UNL     1      19.500 -11.223  18.846  1.00  0.00     0.169 HD
HETATM   31  O4  UNL     1      16.709 -10.687  19.696  1.00  0.00    -0.271 OA
HETATM   32  C21 UNL     1      20.480 -13.738  21.683  1.00  0.00     0.090 A 
HETATM   33  N8  UNL     1      19.428 -14.361  22.306  1.00  0.00    -0.369 N 
ATOM     34  H8  UNL     1      19.619 -15.028  23.053  1.00  0.00     0.165 HD
BRANCH  29  35
HETATM   35  C19 UNL     1      16.793 -12.083  17.744  1.00  0.00     0.243 C 
BRANCH  35  36
HETATM   36  N5  UNL     1      15.558 -12.783  18.103  1.00  0.00    -0.314 N 
ATOM     37  H5  UNL     1      15.485 -13.783  17.919  1.00  0.00     0.182 HD
BRANCH  36  38
HETATM   38  N6  UNL     1      14.484 -12.123  18.687  1.00  0.00    -0.253 N 
HETATM   39  N7  UNL     1      14.061 -11.079  18.072  1.00  0.00    -0.331 N 
ATOM     40  H72 UNL     1      14.499 -10.766  17.206  1.00  0.00     0.178 HD
ATOM     41  H71 UNL     1      13.272 -10.595  18.501  1.00  0.00     0.178 HD
ATOM     42  H6  UNL     1      14.056 -12.449  19.553  1.00  0.00     0.207 HD
ENDBRANCH  36  38
ENDBRANCH  35  36
ENDBRANCH  29  35
ENDBRANCH  23  24
ENDBRANCH   1  23
TORSDOF 13
ENDMDL
