MODEL 1
REMARK VINA RESULT: -8.336100834      0.000      0.000
REMARK  11 active torsions:
REMARK  status: ('A' for Active; 'I' for Inactive)
REMARK    1  A    between atoms: C3_3  and  C4_4 
REMARK    2  A    between atoms: C4_4  and  N1_5 
REMARK    3  A    between atoms: N1_5  and  N2_7 
REMARK    4  A    between atoms: C5_9  and  C6_10 
REMARK    5  A    between atoms: C5_9  and  N6_25 
REMARK    6  A    between atoms: C6_10  and  C7_11 
REMARK    7  A    between atoms: C7_11  and  C8_12 
REMARK    8  A    between atoms: C8_12  and  N3_13 
REMARK    9  A    between atoms: N6_25  and  S1_27 
REMARK   10  A    between atoms: S1_27  and  C15_30 
REMARK   11  A    between atoms: N7_33  and  C18_34 
ROOT
HETATM    1  C1  UNL     1      20.336 -12.580  20.658  1.00  0.00     0.097 C 
HETATM    2  C2  UNL     1      19.950 -12.259  19.538  1.00  0.00    -0.186 C 
HETATM    3  C3  UNL     1      19.469 -11.862  18.225  1.00  0.00     0.100 C 
ENDROOT
BRANCH   3   4
HETATM    4  C4  UNL     1      17.942 -11.910  18.250  1.00  0.00     0.150 C 
BRANCH   4   5
HETATM    5  N1  UNL     1      17.543 -11.741  19.648  1.00  0.00    -0.334 N 
ATOM      6  H1  UNL     1      18.173 -11.333  20.339  1.00  0.00     0.180 HD
BRANCH   5   7
HETATM    7  N2  UNL     1      16.272 -12.162  19.986  1.00  0.00    -0.293 N 
HETATM    8  C5  UNL     1      15.995 -13.263  20.556  1.00  0.00     0.105 C 
ATOM      9  H2  UNL     1      15.495 -11.540  19.762  1.00  0.00     0.188 HD
BRANCH   8  10
HETATM   10  C6  UNL     1      17.091 -14.239  20.919  1.00  0.00     0.080 C 
BRANCH  10  11
HETATM   11  C7  UNL     1      17.289 -14.134  22.386  1.00  0.00     0.028 C 
BRANCH  11  12
HETATM   12  C8  UNL     1      17.984 -15.317  23.040  1.00  0.00     0.147 C 
BRANCH  12  13
HETATM   13  N3  UNL     1      19.341 -14.870  23.436  1.00  0.00    -0.193 N 
HETATM   14  C9  UNL     1      19.487 -13.868  24.309  1.00  0.00     0.117 A 
HETATM   15  C10 UNL     1      20.747 -13.413  24.600  1.00  0.00    -0.023 A 
HETATM   16  C11 UNL     1      20.935 -12.306  25.577  1.00  0.00     0.052 C 
HETATM   17  C12 UNL     1      21.870 -13.955  24.020  1.00  0.00     0.030 A 
HETATM   18  C13 UNL     1      23.212 -13.418  24.364  1.00  0.00     0.069 C 
HETATM   19  N4  UNL     1      21.690 -14.954  23.156  1.00  0.00    -0.196 N 
HETATM   20  C14 UNL     1      20.425 -15.432  22.848  1.00  0.00     0.678 A 
ATOM     21  H4  UNL     1      22.504 -15.377  22.710  1.00  0.00     0.184 HD
HETATM   22  N5  UNL     1      20.323 -16.394  22.124  1.00  0.00    -0.234 N 
ATOM     23  H52 UNL     1      19.393 -16.745  21.898  1.00  0.00     0.174 HD
ATOM     24  H51 UNL     1      21.138 -16.817  21.682  1.00  0.00     0.174 HD
ENDBRANCH  12  13
ENDBRANCH  11  12
ENDBRANCH  10  11
ENDBRANCH   8  10
BRANCH   8  25
HETATM   25  N6  UNL     1      14.628 -13.609  20.865  1.00  0.00    -0.268 N 
ATOM     26  H6  UNL     1      14.446 -14.455  21.404  1.00  0.00     0.180 HD
BRANCH  25  27
HETATM   27  S1  UNL     1      13.304 -12.652  20.360  1.00  0.00     0.264 S 
HETATM   28  O1  UNL     1      13.752 -11.907  19.102  1.00  0.00    -0.200 OA
HETATM   29  O2  UNL     1      12.115 -13.534  20.008  1.00  0.00    -0.200 OA
BRANCH  27  30
HETATM   30  C15 UNL     1      12.767 -11.495  21.545  1.00  0.00     0.082 A 
HETATM   31  C16 UNL     1      13.288 -10.231  21.649  1.00  0.00     0.042 A 
HETATM   32  C17 UNL     1      12.822  -9.313  22.599  1.00  0.00     0.092 A 
HETATM   33  N7  UNL     1      11.845  -9.665  23.430  1.00  0.00    -0.367 N 
HETATM   34  C20 UNL     1      11.308 -10.879  23.372  1.00  0.00     0.092 A 
HETATM   35  C21 UNL     1      11.741 -11.815  22.447  1.00  0.00     0.042 A 
BRANCH  33  36
HETATM   36  C18 UNL     1      11.302  -8.695  24.408  1.00  0.00     0.123 C 
HETATM   37  C19 UNL     1      12.270  -7.499  24.394  1.00  0.00     0.027 C 
ENDBRANCH  33  36
ENDBRANCH  27  30
ENDBRANCH  25  27
ENDBRANCH   8  25
ENDBRANCH   5   7
ENDBRANCH   4   5
ENDBRANCH   3   4
TORSDOF 11
ENDMDL
MODEL 2
REMARK VINA RESULT: -8.162227595      2.252      3.632
REMARK  11 active torsions:
REMARK  status: ('A' for Active; 'I' for Inactive)
REMARK    1  A    between atoms: C3_3  and  C4_4 
REMARK    2  A    between atoms: C4_4  and  N1_5 
REMARK    3  A    between atoms: N1_5  and  N2_7 
REMARK    4  A    between atoms: C5_9  and  C6_10 
REMARK    5  A    between atoms: C5_9  and  N6_25 
REMARK    6  A    between atoms: C6_10  and  C7_11 
REMARK    7  A    between atoms: C7_11  and  C8_12 
REMARK    8  A    between atoms: C8_12  and  N3_13 
REMARK    9  A    between atoms: N6_25  and  S1_27 
REMARK   10  A    between atoms: S1_27  and  C15_30 
REMARK   11  A    between atoms: N7_33  and  C18_34 
ROOT
HETATM    1  C1  UNL     1      12.838 -15.702  21.623  1.00  0.00     0.097 C 
HETATM    2  C2  UNL     1      12.952 -16.227  20.520  1.00  0.00    -0.186 C 
HETATM    3  C3  UNL     1      13.108 -16.828  19.206  1.00  0.00     0.100 C 
ENDROOT
BRANCH   3   4
HETATM    4  C4  UNL     1      13.244 -15.698  18.187  1.00  0.00     0.150 C 
BRANCH   4   5
HETATM    5  N1  UNL     1      14.678 -15.460  18.016  1.00  0.00    -0.334 N 
ATOM      6  H1  UNL     1      15.276 -16.124  17.524  1.00  0.00     0.180 HD
BRANCH   5   7
HETATM    7  N2  UNL     1      15.182 -14.293  18.554  1.00  0.00    -0.293 N 
HETATM    8  C5  UNL     1      16.010 -14.231  19.517  1.00  0.00     0.105 C 
ATOM      9  H2  UNL     1      14.868 -13.412  18.148  1.00  0.00     0.188 HD
BRANCH   8  10
HETATM   10  C6  UNL     1      16.522 -15.493  20.175  1.00  0.00     0.080 C 
BRANCH  10  11
HETATM   11  C7  UNL     1      17.196 -15.077  21.429  1.00  0.00     0.028 C 
BRANCH  11  12
HETATM   12  C8  UNL     1      18.696 -15.321  21.479  1.00  0.00     0.147 C 
BRANCH  12  13
HETATM   13  N3  UNL     1      19.184 -14.813  22.783  1.00  0.00    -0.193 N 
HETATM   14  C9  UNL     1      18.613 -15.228  23.919  1.00  0.00     0.117 A 
HETATM   15  C10 UNL     1      19.022 -14.685  25.110  1.00  0.00    -0.023 A 
HETATM   16  C11 UNL     1      18.409 -15.139  26.388  1.00  0.00     0.052 C 
HETATM   17  C12 UNL     1      20.003 -13.724  25.174  1.00  0.00     0.030 A 
HETATM   18  C13 UNL     1      20.402 -13.162  26.490  1.00  0.00     0.069 C 
HETATM   19  N4  UNL     1      20.554 -13.334  24.025  1.00  0.00    -0.196 N 
HETATM   20  C14 UNL     1      20.158 -13.871  22.808  1.00  0.00     0.678 A 
ATOM     21  H4  UNL     1      21.285 -12.623  24.040  1.00  0.00     0.184 HD
HETATM   22  N5  UNL     1      20.747 -13.545  21.805  1.00  0.00    -0.234 N 
ATOM     23  H52 UNL     1      20.455 -13.940  20.911  1.00  0.00     0.174 HD
ATOM     24  H51 UNL     1      21.479 -12.836  21.823  1.00  0.00     0.174 HD
ENDBRANCH  12  13
ENDBRANCH  11  12
ENDBRANCH  10  11
ENDBRANCH   8  10
BRANCH   8  25
HETATM   25  N6  UNL     1      16.474 -12.956  20.007  1.00  0.00    -0.268 N 
ATOM     26  H6  UNL     1      17.334 -12.923  20.554  1.00  0.00     0.180 HD
BRANCH  25  27
HETATM   27  S1  UNL     1      15.635 -11.497  19.705  1.00  0.00     0.264 S 
HETATM   28  O1  UNL     1      16.666 -10.370  19.784  1.00  0.00    -0.200 OA
HETATM   29  O2  UNL     1      15.034 -11.510  18.307  1.00  0.00    -0.200 OA
BRANCH  27  30
HETATM   30  C15 UNL     1      14.346 -11.168  20.828  1.00  0.00     0.082 A 
HETATM   31  C16 UNL     1      13.568 -12.150  21.383  1.00  0.00     0.042 A 
HETATM   32  C17 UNL     1      12.550 -11.859  22.300  1.00  0.00     0.092 A 
HETATM   33  N7  UNL     1      12.322 -10.596  22.651  1.00  0.00    -0.367 N 
HETATM   34  C20 UNL     1      13.047  -9.608  22.140  1.00  0.00     0.092 A 
HETATM   35  C21 UNL     1      14.062  -9.854  21.230  1.00  0.00     0.042 A 
BRANCH  33  36
HETATM   36  C18 UNL     1      11.285 -10.270  23.657  1.00  0.00     0.123 C 
HETATM   37  C19 UNL     1      11.604  -8.846  24.142  1.00  0.00     0.027 C 
ENDBRANCH  33  36
ENDBRANCH  27  30
ENDBRANCH  25  27
ENDBRANCH   8  25
ENDBRANCH   5   7
ENDBRANCH   4   5
ENDBRANCH   3   4
TORSDOF 11
ENDMDL
MODEL 3
REMARK VINA RESULT: -8.037357682      2.633      4.153
REMARK  11 active torsions:
REMARK  status: ('A' for Active; 'I' for Inactive)
REMARK    1  A    between atoms: C3_3  and  C4_4 
REMARK    2  A    between atoms: C4_4  and  N1_5 
REMARK    3  A    between atoms: N1_5  and  N2_7 
REMARK    4  A    between atoms: C5_9  and  C6_10 
REMARK    5  A    between atoms: C5_9  and  N6_25 
REMARK    6  A    between atoms: C6_10  and  C7_11 
REMARK    7  A    between atoms: C7_11  and  C8_12 
REMARK    8  A    between atoms: C8_12  and  N3_13 
REMARK    9  A    between atoms: N6_25  and  S1_27 
REMARK   10  A    between atoms: S1_27  and  C15_30 
REMARK   11  A    between atoms: N7_33  and  C18_34 
ROOT
HETATM    1  C1  UNL     1      15.437  -9.926  14.160  1.00  0.00     0.097 C 
HETATM    2  C2  UNL     1      16.325 -10.374  14.879  1.00  0.00    -0.186 C 
HETATM    3  C3  UNL     1      17.362 -10.930  15.732  1.00  0.00     0.100 C 
ENDROOT
BRANCH   3   4
HETATM    4  C4  UNL     1      16.684 -11.812  16.780  1.00  0.00     0.150 C 
BRANCH   4   5
HETATM    5  N1  UNL     1      17.253 -11.434  18.074  1.00  0.00    -0.334 N 
ATOM      6  H1  UNL     1      18.260 -11.446  18.239  1.00  0.00     0.180 HD
BRANCH   5   7
HETATM    7  N2  UNL     1      16.362 -11.061  19.060  1.00  0.00    -0.293 N 
HETATM    8  C5  UNL     1      16.479 -11.341  20.294  1.00  0.00     0.105 C 
ATOM      9  H2  UNL     1      15.546 -10.518  18.776  1.00  0.00     0.188 HD
BRANCH   8  10
HETATM   10  C6  UNL     1      17.659 -12.144  20.793  1.00  0.00     0.080 C 
BRANCH  10  11
HETATM   11  C7  UNL     1      17.180 -12.927  21.958  1.00  0.00     0.028 C 
BRANCH  11  12
HETATM   12  C8  UNL     1      17.825 -14.291  22.140  1.00  0.00     0.147 C 
BRANCH  12  13
HETATM   13  N3  UNL     1      19.140 -14.077  22.789  1.00  0.00    -0.193 N 
HETATM   14  C9  UNL     1      19.200 -13.631  24.048  1.00  0.00     0.117 A 
HETATM   15  C10 UNL     1      20.424 -13.359  24.604  1.00  0.00    -0.023 A 
HETATM   16  C11 UNL     1      20.516 -12.871  26.007  1.00  0.00     0.052 C 
HETATM   17  C12 UNL     1      21.596 -13.531  23.905  1.00  0.00     0.030 A 
HETATM   18  C13 UNL     1      22.895 -13.213  24.552  1.00  0.00     0.069 C 
HETATM   19  N4  UNL     1      21.502 -13.980  22.654  1.00  0.00    -0.196 N 
HETATM   20  C14 UNL     1      20.275 -14.263  22.072  1.00  0.00     0.678 A 
ATOM     21  H4  UNL     1      22.354 -14.118  22.111  1.00  0.00     0.184 HD
HETATM   22  N5  UNL     1      20.250 -14.747  20.965  1.00  0.00    -0.234 N 
ATOM     23  H52 UNL     1      19.348 -14.955  20.537  1.00  0.00     0.174 HD
ATOM     24  H51 UNL     1      21.103 -14.887  20.425  1.00  0.00     0.174 HD
ENDBRANCH  12  13
ENDBRANCH  11  12
ENDBRANCH  10  11
ENDBRANCH   8  10
BRANCH   8  25
HETATM   25  N6  UNL     1      15.486 -10.903  21.245  1.00  0.00    -0.268 N 
ATOM     26  H6  UNL     1      15.794 -10.431  22.094  1.00  0.00     0.180 HD
BRANCH  25  27
HETATM   27  S1  UNL     1      13.811 -11.147  21.000  1.00  0.00     0.264 S 
HETATM   28  O1  UNL     1      13.107 -10.686  22.276  1.00  0.00    -0.200 OA
HETATM   29  O2  UNL     1      13.316 -10.301  19.836  1.00  0.00    -0.200 OA
BRANCH  27  30
HETATM   30  C15 UNL     1      13.371 -12.800  20.672  1.00  0.00     0.082 A 
HETATM   31  C16 UNL     1      12.814 -13.627  21.613  1.00  0.00     0.042 A 
HETATM   32  C17 UNL     1      12.451 -14.947  21.315  1.00  0.00     0.092 A 
HETATM   33  N7  UNL     1      12.647 -15.424  20.089  1.00  0.00    -0.367 N 
HETATM   34  C20 UNL     1      13.185 -14.663  19.143  1.00  0.00     0.092 A 
HETATM   35  C21 UNL     1      13.558 -13.353  19.397  1.00  0.00     0.042 A 
BRANCH  33  36
HETATM   36  C18 UNL     1      12.224 -16.799  19.739  1.00  0.00     0.123 C 
HETATM   37  C19 UNL     1      10.822 -16.662  19.122  1.00  0.00     0.027 C 
ENDBRANCH  33  36
ENDBRANCH  27  30
ENDBRANCH  25  27
ENDBRANCH   8  25
ENDBRANCH   5   7
ENDBRANCH   4   5
ENDBRANCH   3   4
TORSDOF 11
ENDMDL
MODEL 4
REMARK VINA RESULT: -8.024574801      3.296      7.296
REMARK  11 active torsions:
REMARK  status: ('A' for Active; 'I' for Inactive)
REMARK    1  A    between atoms: C3_3  and  C4_4 
REMARK    2  A    between atoms: C4_4  and  N1_5 
REMARK    3  A    between atoms: N1_5  and  N2_7 
REMARK    4  A    between atoms: C5_9  and  C6_10 
REMARK    5  A    between atoms: C5_9  and  N6_25 
REMARK    6  A    between atoms: C6_10  and  C7_11 
REMARK    7  A    between atoms: C7_11  and  C8_12 
REMARK    8  A    between atoms: C8_12  and  N3_13 
REMARK    9  A    between atoms: N6_25  and  S1_27 
REMARK   10  A    between atoms: S1_27  and  C15_30 
REMARK   11  A    between atoms: N7_33  and  C18_34 
ROOT
HETATM    1  C1  UNL     1      12.072  -7.329  24.498  1.00  0.00     0.097 C 
HETATM    2  C2  UNL     1      11.720  -8.491  24.322  1.00  0.00    -0.186 C 
HETATM    3  C3  UNL     1      11.331  -9.874  24.103  1.00  0.00     0.100 C 
ENDROOT
BRANCH   3   4
HETATM    4  C4  UNL     1      11.949 -10.332  22.783  1.00  0.00     0.150 C 
BRANCH   4   5
HETATM    5  N1  UNL     1      11.228 -11.541  22.383  1.00  0.00    -0.334 N 
ATOM      6  H1  UNL     1      10.305 -11.495  21.951  1.00  0.00     0.180 HD
BRANCH   5   7
HETATM    7  N2  UNL     1      11.858 -12.747  22.619  1.00  0.00    -0.293 N 
HETATM    8  C5  UNL     1      12.500 -13.417  21.751  1.00  0.00     0.105 C 
ATOM      9  H2  UNL     1      11.804 -13.129  23.563  1.00  0.00     0.188 HD
BRANCH   8  10
HETATM   10  C6  UNL     1      12.622 -12.919  20.329  1.00  0.00     0.080 C 
BRANCH  10  11
HETATM   11  C7  UNL     1      13.909 -12.184  20.243  1.00  0.00     0.028 C 
BRANCH  11  12
HETATM   12  C8  UNL     1      14.487 -12.037  18.846  1.00  0.00     0.147 C 
BRANCH  12  13
HETATM   13  N3  UNL     1      15.960 -12.160  18.960  1.00  0.00    -0.193 N 
HETATM   14  C9  UNL     1      16.510 -12.561  20.111  1.00  0.00     0.117 A 
HETATM   15  C10 UNL     1      17.876 -12.589  20.225  1.00  0.00    -0.023 A 
HETATM   16  C11 UNL     1      18.512 -13.042  21.492  1.00  0.00     0.052 C 
HETATM   17  C12 UNL     1      18.701 -12.216  19.190  1.00  0.00     0.030 A 
HETATM   18  C13 UNL     1      20.176 -12.256  19.370  1.00  0.00     0.069 C 
HETATM   19  N4  UNL     1      18.122 -11.823  18.056  1.00  0.00    -0.196 N 
HETATM   20  C14 UNL     1      16.742 -11.789  17.917  1.00  0.00     0.678 A 
ATOM     21  H4  UNL     1      18.708 -11.541  17.270  1.00  0.00     0.184 HD
HETATM   22  N5  UNL     1      16.268 -11.507  16.842  1.00  0.00    -0.234 N 
ATOM     23  H52 UNL     1      15.254 -11.482  16.740  1.00  0.00     0.174 HD
ATOM     24  H51 UNL     1      16.856 -11.228  16.057  1.00  0.00     0.174 HD
ENDBRANCH  12  13
ENDBRANCH  11  12
ENDBRANCH  10  11
ENDBRANCH   8  10
BRANCH   8  25
HETATM   25  N6  UNL     1      13.121 -14.672  22.103  1.00  0.00    -0.268 N 
ATOM     26  H6  UNL     1      13.753 -14.700  22.902  1.00  0.00     0.180 HD
BRANCH  25  27
HETATM   27  S1  UNL     1      12.834 -16.113  21.228  1.00  0.00     0.264 S 
HETATM   28  O1  UNL     1      13.447 -17.253  22.042  1.00  0.00    -0.200 OA
HETATM   29  O2  UNL     1      11.339 -16.362  21.090  1.00  0.00    -0.200 OA
BRANCH  27  30
HETATM   30  C15 UNL     1      13.518 -16.125  19.627  1.00  0.00     0.082 A 
HETATM   31  C16 UNL     1      14.810 -15.752  19.362  1.00  0.00     0.042 A 
HETATM   32  C17 UNL     1      15.341 -15.791  18.066  1.00  0.00     0.092 A 
HETATM   33  N7  UNL     1      14.580 -16.200  17.055  1.00  0.00    -0.367 N 
HETATM   34  C20 UNL     1      13.321 -16.571  17.259  1.00  0.00     0.092 A 
HETATM   35  C21 UNL     1      12.759 -16.546  18.525  1.00  0.00     0.042 A 
BRANCH  33  36
HETATM   36  C18 UNL     1      15.136 -16.297  15.686  1.00  0.00     0.123 C 
HETATM   37  C19 UNL     1      15.848 -17.659  15.618  1.00  0.00     0.027 C 
ENDBRANCH  33  36
ENDBRANCH  27  30
ENDBRANCH  25  27
ENDBRANCH   8  25
ENDBRANCH   5   7
ENDBRANCH   4   5
ENDBRANCH   3   4
TORSDOF 11
ENDMDL
MODEL 5
REMARK VINA RESULT: -8.006408834      2.487      3.780
REMARK  11 active torsions:
REMARK  status: ('A' for Active; 'I' for Inactive)
REMARK    1  A    between atoms: C3_3  and  C4_4 
REMARK    2  A    between atoms: C4_4  and  N1_5 
REMARK    3  A    between atoms: N1_5  and  N2_7 
REMARK    4  A    between atoms: C5_9  and  C6_10 
REMARK    5  A    between atoms: C5_9  and  N6_25 
REMARK    6  A    between atoms: C6_10  and  C7_11 
REMARK    7  A    between atoms: C7_11  and  C8_12 
REMARK    8  A    between atoms: C8_12  and  N3_13 
REMARK    9  A    between atoms: N6_25  and  S1_27 
REMARK   10  A    between atoms: S1_27  and  C15_30 
REMARK   11  A    between atoms: N7_33  and  C18_34 
ROOT
HETATM    1  C1  UNL     1      20.327 -11.446  16.756  1.00  0.00     0.097 C 
HETATM    2  C2  UNL     1      20.339 -11.872  17.907  1.00  0.00    -0.186 C 
HETATM    3  C3  UNL     1      20.323 -12.371  19.272  1.00  0.00     0.100 C 
ENDROOT
BRANCH   3   4
HETATM    4  C4  UNL     1      19.380 -11.485  20.084  1.00  0.00     0.150 C 
BRANCH   4   5
HETATM    5  N1  UNL     1      18.071 -11.563  19.434  1.00  0.00    -0.334 N 
ATOM      6  H1  UNL     1      17.964 -11.933  18.489  1.00  0.00     0.180 HD
BRANCH   5   7
HETATM    7  N2  UNL     1      16.988 -11.110  20.161  1.00  0.00    -0.293 N 
HETATM    8  C5  UNL     1      16.278 -11.826  20.935  1.00  0.00     0.105 C 
ATOM      9  H2  UNL     1      16.739 -10.125  20.071  1.00  0.00     0.188 HD
BRANCH   8  10
HETATM   10  C6  UNL     1      16.582 -13.295  21.120  1.00  0.00     0.080 C 
BRANCH  10  11
HETATM   11  C7  UNL     1      17.103 -13.454  22.500  1.00  0.00     0.028 C 
BRANCH  11  12
HETATM   12  C8  UNL     1      17.855 -14.746  22.772  1.00  0.00     0.147 C 
BRANCH  12  13
HETATM   13  N3  UNL     1      19.206 -14.378  23.257  1.00  0.00    -0.193 N 
HETATM   14  C9  UNL     1      19.351 -13.775  24.442  1.00  0.00     0.117 A 
HETATM   15  C10 UNL     1      20.599 -13.367  24.837  1.00  0.00    -0.023 A 
HETATM   16  C11 UNL     1      20.786 -12.703  26.156  1.00  0.00     0.052 C 
HETATM   17  C12 UNL     1      21.711 -13.560  24.051  1.00  0.00     0.030 A 
HETATM   18  C13 UNL     1      23.040 -13.090  24.522  1.00  0.00     0.069 C 
HETATM   19  N4  UNL     1      21.533 -14.166  22.877  1.00  0.00    -0.196 N 
HETATM   20  C14 UNL     1      20.280 -14.589  22.458  1.00  0.00     0.678 A 
ATOM     21  H4  UNL     1      22.340 -14.323  22.272  1.00  0.00     0.184 HD
HETATM   22  N5  UNL     1      20.187 -15.208  21.425  1.00  0.00    -0.234 N 
ATOM     23  H52 UNL     1      19.265 -15.519  21.117  1.00  0.00     0.174 HD
ATOM     24  H51 UNL     1      20.995 -15.367  20.823  1.00  0.00     0.174 HD
ENDBRANCH  12  13
ENDBRANCH  11  12
ENDBRANCH  10  11
ENDBRANCH   8  10
BRANCH   8  25
HETATM   25  N6  UNL     1      15.162 -11.253  21.649  1.00  0.00    -0.268 N 
ATOM     26  H6  UNL     1      15.348 -10.672  22.465  1.00  0.00     0.180 HD
BRANCH  25  27
HETATM   27  S1  UNL     1      13.540 -11.515  21.177  1.00  0.00     0.264 S 
HETATM   28  O1  UNL     1      12.663 -11.088  22.354  1.00  0.00    -0.200 OA
HETATM   29  O2  UNL     1      13.192 -10.654  19.972  1.00  0.00    -0.200 OA
BRANCH  27  30
HETATM   30  C15 UNL     1      13.174 -13.167  20.765  1.00  0.00     0.082 A 
HETATM   31  C16 UNL     1      12.772 -14.098  21.687  1.00  0.00     0.042 A 
HETATM   32  C17 UNL     1      12.464 -15.415  21.324  1.00  0.00     0.092 A 
HETATM   33  N7  UNL     1      12.560 -15.787  20.050  1.00  0.00    -0.367 N 
HETATM   34  C20 UNL     1      12.946 -14.923  19.118  1.00  0.00     0.092 A 
HETATM   35  C21 UNL     1      13.260 -13.611  19.437  1.00  0.00     0.042 A 
BRANCH  33  36
HETATM   36  C18 UNL     1      12.190 -17.159  19.636  1.00  0.00     0.123 C 
HETATM   37  C19 UNL     1      10.662 -17.149  19.463  1.00  0.00     0.027 C 
ENDBRANCH  33  36
ENDBRANCH  27  30
ENDBRANCH  25  27
ENDBRANCH   8  25
ENDBRANCH   5   7
ENDBRANCH   4   5
ENDBRANCH   3   4
TORSDOF 11
ENDMDL
