MODEL 1
REMARK VINA RESULT: -8.161836143      0.000      0.000
REMARK  11 active torsions:
REMARK  status: ('A' for Active; 'I' for Inactive)
REMARK    1  A    between atoms: N3_8  and  C4_9 
REMARK    2  A    between atoms: C4_9  and  C5_10 
REMARK    3  A    between atoms: C9_16  and  N5_17 
REMARK    4  A    between atoms: N5_17  and  C10_19 
REMARK    5  A    between atoms: C10_19  and  C11_20 
REMARK    6  A    between atoms: C11_20  and  C12_21 
REMARK    7  A    between atoms: C12_21  and  N6_22 
REMARK    8  A    between atoms: N6_22  and  C15_25 
REMARK    9  A    between atoms: C15_25  and  C16_26 
REMARK   10  A    between atoms: C16_26  and  C17_27 
REMARK   11  A    between atoms: C17_27  and  N7_28 
ROOT
HETATM    1  C5  UNL     1      15.213 -12.067  20.225  1.00  0.00    -0.038 A 
HETATM    2  C6  UNL     1      16.305 -11.257  19.970  1.00  0.00     0.011 A 
HETATM    3  C7  UNL     1      17.602 -11.686  20.183  1.00  0.00     0.033 A 
HETATM    4  C8  UNL     1      17.853 -12.960  20.665  1.00  0.00     0.076 A 
HETATM    5  N4  UNL     1      18.978 -13.626  20.960  1.00  0.00    -0.190 N 
ATOM      6  H4  UNL     1      19.927 -13.264  20.865  1.00  0.00     0.184 HD
HETATM    7  C9  UNL     1      18.646 -14.844  21.398  1.00  0.00     0.679 A 
HETATM    8  N10 UNL     1      17.308 -14.923  21.372  1.00  0.00    -0.190 N 
ATOM      9  H10 UNL     1      16.770 -15.742  21.653  1.00  0.00     0.184 HD
HETATM   10  C19 UNL     1      16.773 -13.777  20.925  1.00  0.00     0.077 A 
HETATM   11  C20 UNL     1      15.470 -13.334  20.705  1.00  0.00     0.041 A 
ENDROOT
BRANCH   7  12
HETATM   12  N5  UNL     1      19.452 -15.803  21.788  1.00  0.00    -0.226 N 
ATOM     13  H5  UNL     1      20.416 -15.602  22.054  1.00  0.00     0.177 HD
BRANCH  12  14
HETATM   14  C10 UNL     1      18.929 -17.162  21.831  1.00  0.00     0.139 C 
BRANCH  14  15
HETATM   15  C11 UNL     1      18.996 -17.739  23.211  1.00  0.00     0.048 C 
BRANCH  15  16
HETATM   16  C12 UNL     1      19.713 -16.915  24.215  1.00  0.00     0.238 C 
BRANCH  16  17
HETATM   17  N6  UNL     1      18.974 -16.457  25.340  1.00  0.00    -0.075 N 
HETATM   18  C13 UNL     1      17.571 -16.868  25.094  1.00  0.00     0.272 C 
HETATM   19  C14 UNL     1      19.333 -17.024  26.604  1.00  0.00     0.272 C 
BRANCH  17  20
HETATM   20  C15 UNL     1      18.916 -15.018  25.471  1.00  0.00     0.238 C 
BRANCH  20  21
HETATM   21  C16 UNL     1      19.893 -14.509  26.509  1.00  0.00     0.047 C 
BRANCH  21  22
HETATM   22  C17 UNL     1      20.768 -13.408  25.917  1.00  0.00     0.123 C 
BRANCH  22  23
HETATM   23  N7  UNL     1      21.996 -13.947  25.390  1.00  0.00    -0.367 N 
HETATM   24  C18 UNL     1      22.249 -14.064  24.140  1.00  0.00     0.196 C 
HETATM   25  N8  UNL     1      23.515 -14.620  23.785  1.00  0.00    -0.067 NA
HETATM   26  N9  UNL     1      21.348 -13.675  23.111  1.00  0.00    -0.067 NA
ATOM     27  H7  UNL     1      22.707 -14.255  26.053  1.00  0.00     0.161 HD
ENDBRANCH  22  23
ENDBRANCH  21  22
ENDBRANCH  20  21
ENDBRANCH  17  20
ENDBRANCH  16  17
ENDBRANCH  15  16
ENDBRANCH  14  15
ENDBRANCH  12  14
ENDBRANCH   7  12
BRANCH   1  28
HETATM   28  C4  UNL     1      13.853 -11.577  19.986  1.00  0.00     0.169 C 
BRANCH  28  29
HETATM   29  N3  UNL     1      13.288 -10.858  21.111  1.00  0.00    -0.334 N 
HETATM   30  C3  UNL     1      13.539  -9.555  21.337  1.00  0.00     0.201 A 
HETATM   31  N2  UNL     1      13.013  -8.890  22.381  1.00  0.00    -0.188 N 
HETATM   32  C2  UNL     1      12.200  -9.507  23.257  1.00  0.00     0.681 A 
ATOM     33  H2  UNL     1      13.234  -7.902  22.511  1.00  0.00     0.185 HD
HETATM   34  N1  UNL     1      11.689  -8.879  24.263  1.00  0.00    -0.230 N 
HETATM   35  N11 UNL     1      11.947 -10.808  23.034  1.00  0.00    -0.184 N 
HETATM   36  C1  UNL     1      12.006  -7.469  24.444  1.00  0.00     0.165 C 
ATOM     37  H1  UNL     1      11.075  -9.361  24.919  1.00  0.00     0.177 HD
HETATM   38  C21 UNL     1      12.473 -11.475  21.989  1.00  0.00     0.204 A 
HETATM   39  C22 UNL     1      11.062 -11.489  23.981  1.00  0.00     0.176 C 
ENDBRANCH  28  29
ENDBRANCH   1  28
TORSDOF 11
ENDMDL
MODEL 2
REMARK VINA RESULT: -8.031115026      1.556      3.586
REMARK  11 active torsions:
REMARK  status: ('A' for Active; 'I' for Inactive)
REMARK    1  A    between atoms: N3_8  and  C4_9 
REMARK    2  A    between atoms: C4_9  and  C5_10 
REMARK    3  A    between atoms: C9_16  and  N5_17 
REMARK    4  A    between atoms: N5_17  and  C10_19 
REMARK    5  A    between atoms: C10_19  and  C11_20 
REMARK    6  A    between atoms: C11_20  and  C12_21 
REMARK    7  A    between atoms: C12_21  and  N6_22 
REMARK    8  A    between atoms: N6_22  and  C15_25 
REMARK    9  A    between atoms: C15_25  and  C16_26 
REMARK   10  A    between atoms: C16_26  and  C17_27 
REMARK   11  A    between atoms: C17_27  and  N7_28 
ROOT
HETATM    1  C5  UNL     1      15.426 -12.056  20.380  1.00  0.00    -0.038 A 
HETATM    2  C6  UNL     1      16.330 -11.700  19.395  1.00  0.00     0.011 A 
HETATM    3  C7  UNL     1      17.690 -11.897  19.542  1.00  0.00     0.033 A 
HETATM    4  C8  UNL     1      18.199 -12.466  20.698  1.00  0.00     0.076 A 
HETATM    5  N4  UNL     1      19.440 -12.767  21.104  1.00  0.00    -0.190 N 
ATOM      6  H4  UNL     1      20.296 -12.610  20.572  1.00  0.00     0.184 HD
HETATM    7  C9  UNL     1      19.366 -13.308  22.324  1.00  0.00     0.679 A 
HETATM    8  N10 UNL     1      18.071 -13.337  22.666  1.00  0.00    -0.190 N 
ATOM      9  H10 UNL     1      17.712 -13.699  23.549  1.00  0.00     0.184 HD
HETATM   10  C19 UNL     1      17.310 -12.824  21.688  1.00  0.00     0.077 A 
HETATM   11  C20 UNL     1      15.940 -12.622  21.529  1.00  0.00     0.041 A 
ENDROOT
BRANCH   7  12
HETATM   12  N5  UNL     1      20.355 -13.737  23.072  1.00  0.00    -0.226 N 
ATOM     13  H5  UNL     1      20.943 -14.514  22.768  1.00  0.00     0.177 HD
BRANCH  12  14
HETATM   14  C10 UNL     1      20.588 -13.074  24.348  1.00  0.00     0.139 C 
BRANCH  14  15
HETATM   15  C11 UNL     1      20.709 -14.056  25.471  1.00  0.00     0.048 C 
BRANCH  15  16
HETATM   16  C12 UNL     1      19.494 -14.861  25.750  1.00  0.00     0.238 C 
BRANCH  16  17
HETATM   17  N6  UNL     1      19.582 -16.269  25.572  1.00  0.00    -0.075 N 
HETATM   18  C13 UNL     1      21.030 -16.584  25.562  1.00  0.00     0.272 C 
HETATM   19  C14 UNL     1      19.013 -17.074  26.610  1.00  0.00     0.272 C 
BRANCH  17  20
HETATM   20  C15 UNL     1      19.097 -16.740  24.294  1.00  0.00     0.238 C 
BRANCH  20  21
HETATM   21  C16 UNL     1      17.586 -16.685  24.212  1.00  0.00     0.047 C 
BRANCH  21  22
HETATM   22  C17 UNL     1      17.125 -16.919  22.776  1.00  0.00     0.123 C 
BRANCH  22  23
HETATM   23  N7  UNL     1      15.952 -16.139  22.474  1.00  0.00    -0.367 N 
HETATM   24  C18 UNL     1      14.759 -16.604  22.486  1.00  0.00     0.196 C 
HETATM   25  N8  UNL     1      13.706 -15.695  22.162  1.00  0.00    -0.067 NA
HETATM   26  N9  UNL     1      14.440 -17.953  22.801  1.00  0.00    -0.067 NA
ATOM     27  H7  UNL     1      16.080 -15.155  22.235  1.00  0.00     0.161 HD
ENDBRANCH  22  23
ENDBRANCH  21  22
ENDBRANCH  20  21
ENDBRANCH  17  20
ENDBRANCH  16  17
ENDBRANCH  15  16
ENDBRANCH  14  15
ENDBRANCH  12  14
ENDBRANCH   7  12
BRANCH   1  28
HETATM   28  C4  UNL     1      13.991 -11.833  20.188  1.00  0.00     0.169 C 
BRANCH  28  29
HETATM   29  N3  UNL     1      13.376 -11.054  21.245  1.00  0.00    -0.334 N 
HETATM   30  C3  UNL     1      13.642  -9.748  21.430  1.00  0.00     0.201 A 
HETATM   31  N2  UNL     1      13.070  -9.027  22.411  1.00  0.00    -0.188 N 
HETATM   32  C2  UNL     1      12.194  -9.590  23.262  1.00  0.00     0.681 A 
ATOM     33  H2  UNL     1      13.305  -8.040  22.512  1.00  0.00     0.185 HD
HETATM   34  N1  UNL     1      11.638  -8.909  24.209  1.00  0.00    -0.230 N 
HETATM   35  N11 UNL     1      11.926 -10.894  23.080  1.00  0.00    -0.184 N 
HETATM   36  C1  UNL     1      11.975  -7.499  24.349  1.00  0.00     0.165 C 
ATOM     37  H1  UNL     1      10.976  -9.350  24.847  1.00  0.00     0.177 HD
HETATM   38  C21 UNL     1      12.498 -11.617  22.098  1.00  0.00     0.204 A 
HETATM   39  C22 UNL     1      10.973 -11.516  24.001  1.00  0.00     0.176 C 
ENDBRANCH  28  29
ENDBRANCH   1  28
TORSDOF 11
ENDMDL
MODEL 3
REMARK VINA RESULT: -7.838929159      1.537      2.848
REMARK  11 active torsions:
REMARK  status: ('A' for Active; 'I' for Inactive)
REMARK    1  A    between atoms: N3_8  and  C4_9 
REMARK    2  A    between atoms: C4_9  and  C5_10 
REMARK    3  A    between atoms: C9_16  and  N5_17 
REMARK    4  A    between atoms: N5_17  and  C10_19 
REMARK    5  A    between atoms: C10_19  and  C11_20 
REMARK    6  A    between atoms: C11_20  and  C12_21 
REMARK    7  A    between atoms: C12_21  and  N6_22 
REMARK    8  A    between atoms: N6_22  and  C15_25 
REMARK    9  A    between atoms: C15_25  and  C16_26 
REMARK   10  A    between atoms: C16_26  and  C17_27 
REMARK   11  A    between atoms: C17_27  and  N7_28 
ROOT
HETATM    1  C5  UNL     1      15.104 -12.094  20.209  1.00  0.00    -0.038 A 
HETATM    2  C6  UNL     1      15.810 -11.679  19.095  1.00  0.00     0.011 A 
HETATM    3  C7  UNL     1      17.189 -11.757  19.029  1.00  0.00     0.033 A 
HETATM    4  C8  UNL     1      17.918 -12.263  20.093  1.00  0.00     0.076 A 
HETATM    5  N4  UNL     1      19.228 -12.451  20.301  1.00  0.00    -0.190 N 
ATOM      6  H4  UNL     1      19.974 -12.230  19.642  1.00  0.00     0.184 HD
HETATM    7  C9  UNL     1      19.391 -12.977  21.518  1.00  0.00     0.679 A 
HETATM    8  N10 UNL     1      18.171 -13.111  22.058  1.00  0.00    -0.190 N 
ATOM      9  H10 UNL     1      17.986 -13.489  22.987  1.00  0.00     0.184 HD
HETATM   10  C19 UNL     1      17.226 -12.680  21.209  1.00  0.00     0.077 A 
HETATM   11  C20 UNL     1      15.836 -12.597  21.265  1.00  0.00     0.041 A 
ENDROOT
BRANCH   7  12
HETATM   12  N5  UNL     1      20.516 -13.310  22.104  1.00  0.00    -0.226 N 
ATOM     13  H5  UNL     1      21.345 -13.540  21.556  1.00  0.00     0.177 HD
BRANCH  12  14
HETATM   14  C10 UNL     1      20.548 -13.342  23.561  1.00  0.00     0.139 C 
BRANCH  14  15
HETATM   15  C11 UNL     1      21.684 -14.171  24.073  1.00  0.00     0.048 C 
BRANCH  15  16
HETATM   16  C12 UNL     1      21.476 -14.786  25.408  1.00  0.00     0.238 C 
BRANCH  16  17
HETATM   17  N6  UNL     1      21.269 -16.192  25.460  1.00  0.00    -0.075 N 
HETATM   18  C13 UNL     1      22.424 -16.741  26.209  1.00  0.00     0.272 C 
HETATM   19  C14 UNL     1      20.102 -16.633  26.159  1.00  0.00     0.272 C 
BRANCH  17  20
HETATM   20  C15 UNL     1      21.322 -16.850  24.173  1.00  0.00     0.238 C 
BRANCH  20  21
HETATM   21  C16 UNL     1      19.950 -17.293  23.713  1.00  0.00     0.047 C 
BRANCH  21  22
HETATM   22  C17 UNL     1      19.701 -16.838  22.277  1.00  0.00     0.123 C 
BRANCH  22  23
HETATM   23  N7  UNL     1      20.928 -16.809  21.522  1.00  0.00    -0.367 N 
HETATM   24  C18 UNL     1      21.168 -17.562  20.515  1.00  0.00     0.196 C 
HETATM   25  N8  UNL     1      22.436 -17.406  19.877  1.00  0.00    -0.067 NA
HETATM   26  N9  UNL     1      20.252 -18.525  20.012  1.00  0.00    -0.067 NA
ATOM     27  H7  UNL     1      21.650 -16.147  21.808  1.00  0.00     0.161 HD
ENDBRANCH  22  23
ENDBRANCH  21  22
ENDBRANCH  20  21
ENDBRANCH  17  20
ENDBRANCH  16  17
ENDBRANCH  15  16
ENDBRANCH  14  15
ENDBRANCH  12  14
ENDBRANCH   7  12
BRANCH   1  28
HETATM   28  C4  UNL     1      13.643 -11.996  20.242  1.00  0.00     0.169 C 
BRANCH  28  29
HETATM   29  N3  UNL     1      13.140 -11.151  21.307  1.00  0.00    -0.334 N 
HETATM   30  C3  UNL     1      13.449  -9.845  21.401  1.00  0.00     0.201 A 
HETATM   31  N2  UNL     1      12.981  -9.062  22.391  1.00  0.00    -0.188 N 
HETATM   32  C2  UNL     1      12.171  -9.560  23.342  1.00  0.00     0.681 A 
ATOM     33  H2  UNL     1      13.244  -8.078  22.420  1.00  0.00     0.185 HD
HETATM   34  N1  UNL     1      11.715  -8.819  24.298  1.00  0.00    -0.230 N 
HETATM   35  N11 UNL     1      11.860 -10.864  23.251  1.00  0.00    -0.184 N 
HETATM   36  C1  UNL     1      12.093  -7.413  24.335  1.00  0.00     0.165 C 
ATOM     37  H1  UNL     1      11.102  -9.212  25.012  1.00  0.00     0.177 HD
HETATM   38  C21 UNL     1      12.328 -11.649  22.261  1.00  0.00     0.204 A 
HETATM   39  C22 UNL     1      10.978 -11.415  24.281  1.00  0.00     0.176 C 
ENDBRANCH  28  29
ENDBRANCH   1  28
TORSDOF 11
ENDMDL
MODEL 4
REMARK VINA RESULT: -7.767757935      1.263      2.215
REMARK  11 active torsions:
REMARK  status: ('A' for Active; 'I' for Inactive)
REMARK    1  A    between atoms: N3_8  and  C4_9 
REMARK    2  A    between atoms: C4_9  and  C5_10 
REMARK    3  A    between atoms: C9_16  and  N5_17 
REMARK    4  A    between atoms: N5_17  and  C10_19 
REMARK    5  A    between atoms: C10_19  and  C11_20 
REMARK    6  A    between atoms: C11_20  and  C12_21 
REMARK    7  A    between atoms: C12_21  and  N6_22 
REMARK    8  A    between atoms: N6_22  and  C15_25 
REMARK    9  A    between atoms: C15_25  and  C16_26 
REMARK   10  A    between atoms: C16_26  and  C17_27 
REMARK   11  A    between atoms: C17_27  and  N7_28 
ROOT
HETATM    1  C5  UNL     1      15.261 -12.286  20.240  1.00  0.00    -0.038 A 
HETATM    2  C6  UNL     1      15.175 -13.648  20.015  1.00  0.00     0.011 A 
HETATM    3  C7  UNL     1      16.195 -14.514  20.363  1.00  0.00     0.033 A 
HETATM    4  C8  UNL     1      17.351 -14.038  20.958  1.00  0.00     0.076 A 
HETATM    5  N4  UNL     1      18.473 -14.631  21.390  1.00  0.00    -0.190 N 
ATOM      6  H4  UNL     1      18.674 -15.630  21.346  1.00  0.00     0.184 HD
HETATM    7  C9  UNL     1      19.282 -13.692  21.889  1.00  0.00     0.679 A 
HETATM    8  N10 UNL     1      18.651 -12.516  21.760  1.00  0.00    -0.190 N 
ATOM      9  H10 UNL     1      19.032 -11.618  22.057  1.00  0.00     0.184 HD
HETATM   10  C19 UNL     1      17.450 -12.683  21.187  1.00  0.00     0.077 A 
HETATM   11  C20 UNL     1      16.415 -11.818  20.833  1.00  0.00     0.041 A 
ENDROOT
BRANCH   7  12
HETATM   12  N5  UNL     1      20.475 -13.855  22.411  1.00  0.00    -0.226 N 
ATOM     13  H5  UNL     1      21.215 -14.325  21.890  1.00  0.00     0.177 HD
BRANCH  12  14
HETATM   14  C10 UNL     1      20.711 -13.346  23.755  1.00  0.00     0.139 C 
BRANCH  14  15
HETATM   15  C11 UNL     1      19.590 -13.692  24.685  1.00  0.00     0.048 C 
BRANCH  15  16
HETATM   16  C12 UNL     1      19.901 -14.725  25.704  1.00  0.00     0.238 C 
BRANCH  16  17
HETATM   17  N6  UNL     1      19.493 -16.060  25.433  1.00  0.00    -0.075 N 
HETATM   18  C13 UNL     1      19.057 -16.620  26.734  1.00  0.00     0.272 C 
HETATM   19  C14 UNL     1      18.380 -16.213  24.546  1.00  0.00     0.272 C 
BRANCH  17  20
HETATM   20  C15 UNL     1      20.561 -16.933  25.000  1.00  0.00     0.238 C 
BRANCH  20  21
HETATM   21  C16 UNL     1      21.555 -17.198  26.111  1.00  0.00     0.047 C 
BRANCH  21  22
HETATM   22  C17 UNL     1      22.977 -17.208  25.558  1.00  0.00     0.123 C 
BRANCH  22  23
HETATM   23  N7  UNL     1      23.364 -15.899  25.097  1.00  0.00    -0.367 N 
HETATM   24  C18 UNL     1      23.784 -15.651  23.913  1.00  0.00     0.196 C 
HETATM   25  N8  UNL     1      24.127 -14.296  23.618  1.00  0.00    -0.067 NA
HETATM   26  N9  UNL     1      23.921 -16.638  22.900  1.00  0.00    -0.067 NA
ATOM     27  H7  UNL     1      23.300 -15.122  25.755  1.00  0.00     0.161 HD
ENDBRANCH  22  23
ENDBRANCH  21  22
ENDBRANCH  20  21
ENDBRANCH  17  20
ENDBRANCH  16  17
ENDBRANCH  15  16
ENDBRANCH  14  15
ENDBRANCH  12  14
ENDBRANCH   7  12
BRANCH   1  28
HETATM   28  C4  UNL     1      14.159 -11.399  19.857  1.00  0.00     0.169 C 
BRANCH  28  29
HETATM   29  N3  UNL     1      13.517 -10.749  20.983  1.00  0.00    -0.334 N 
HETATM   30  C3  UNL     1      13.737  -9.459  21.294  1.00  0.00     0.201 A 
HETATM   31  N2  UNL     1      13.140  -8.857  22.339  1.00  0.00    -0.188 N 
HETATM   32  C2  UNL     1      12.284  -9.529  23.129  1.00  0.00     0.681 A 
ATOM     33  H2  UNL     1      13.339  -7.876  22.536  1.00  0.00     0.185 HD
HETATM   34  N1  UNL     1      11.705  -8.963  24.135  1.00  0.00    -0.230 N 
HETATM   35  N11 UNL     1      12.062 -10.819  22.821  1.00  0.00    -0.184 N 
HETATM   36  C1  UNL     1      11.991  -7.562  24.412  1.00  0.00     0.165 C 
ATOM     37  H1  UNL     1      11.059  -9.488  24.726  1.00  0.00     0.177 HD
HETATM   38  C21 UNL     1      12.659 -11.422  21.775  1.00  0.00     0.204 A 
HETATM   39  C22 UNL     1      11.132 -11.560  23.674  1.00  0.00     0.176 C 
ENDBRANCH  28  29
ENDBRANCH   1  28
TORSDOF 11
ENDMDL
MODEL 5
REMARK VINA RESULT: -7.746446760      1.444      2.211
REMARK  11 active torsions:
REMARK  status: ('A' for Active; 'I' for Inactive)
REMARK    1  A    between atoms: N3_8  and  C4_9 
REMARK    2  A    between atoms: C4_9  and  C5_10 
REMARK    3  A    between atoms: C9_16  and  N5_17 
REMARK    4  A    between atoms: N5_17  and  C10_19 
REMARK    5  A    between atoms: C10_19  and  C11_20 
REMARK    6  A    between atoms: C11_20  and  C12_21 
REMARK    7  A    between atoms: C12_21  and  N6_22 
REMARK    8  A    between atoms: N6_22  and  C15_25 
REMARK    9  A    between atoms: C15_25  and  C16_26 
REMARK   10  A    between atoms: C16_26  and  C17_27 
REMARK   11  A    between atoms: C17_27  and  N7_28 
ROOT
HETATM    1  C5  UNL     1      15.506 -12.016  20.561  1.00  0.00    -0.038 A 
HETATM    2  C6  UNL     1      16.661 -11.446  20.058  1.00  0.00     0.011 A 
HETATM    3  C7  UNL     1      17.918 -11.913  20.398  1.00  0.00     0.033 A 
HETATM    4  C8  UNL     1      18.061 -12.982  21.266  1.00  0.00     0.076 A 
HETATM    5  N4  UNL     1      19.126 -13.628  21.759  1.00  0.00    -0.190 N 
ATOM      6  H4  UNL     1      20.102 -13.413  21.553  1.00  0.00     0.184 HD
HETATM    7  C9  UNL     1      18.695 -14.600  22.568  1.00  0.00     0.679 A 
HETATM    8  N10 UNL     1      17.356 -14.547  22.569  1.00  0.00    -0.190 N 
ATOM      9  H10 UNL     1      16.751 -15.174  23.101  1.00  0.00     0.184 HD
HETATM   10  C19 UNL     1      16.918 -13.558  21.776  1.00  0.00     0.077 A 
HETATM   11  C20 UNL     1      15.656 -13.081  21.426  1.00  0.00     0.041 A 
ENDROOT
BRANCH   7  12
HETATM   12  N5  UNL     1      19.417 -15.458  23.247  1.00  0.00    -0.226 N 
ATOM     13  H5  UNL     1      20.327 -15.767  22.903  1.00  0.00     0.177 HD
BRANCH  12  14
HETATM   14  C10 UNL     1      18.885 -15.957  24.508  1.00  0.00     0.139 C 
BRANCH  14  15
HETATM   15  C11 UNL     1      19.909 -16.733  25.276  1.00  0.00     0.048 C 
BRANCH  15  16
HETATM   16  C12 UNL     1      20.612 -17.794  24.513  1.00  0.00     0.238 C 
BRANCH  16  17
HETATM   17  N6  UNL     1      22.024 -17.689  24.388  1.00  0.00    -0.075 N 
HETATM   18  C13 UNL     1      22.580 -18.871  25.086  1.00  0.00     0.272 C 
HETATM   19  C14 UNL     1      22.546 -17.738  23.056  1.00  0.00     0.272 C 
BRANCH  17  20
HETATM   20  C15 UNL     1      22.601 -16.554  25.075  1.00  0.00     0.238 C 
BRANCH  20  21
HETATM   21  C16 UNL     1      23.288 -15.606  24.115  1.00  0.00     0.047 C 
BRANCH  21  22
HETATM   22  C17 UNL     1      22.593 -14.247  24.126  1.00  0.00     0.123 C 
BRANCH  22  23
HETATM   23  N7  UNL     1      22.114 -13.919  25.445  1.00  0.00    -0.367 N 
HETATM   24  C18 UNL     1      21.098 -13.174  25.674  1.00  0.00     0.196 C 
HETATM   25  N8  UNL     1      20.757 -12.947  27.042  1.00  0.00    -0.067 NA
HETATM   26  N9  UNL     1      20.312 -12.574  24.653  1.00  0.00    -0.067 NA
ATOM     27  H7  UNL     1      22.615 -14.304  26.245  1.00  0.00     0.161 HD
ENDBRANCH  22  23
ENDBRANCH  21  22
ENDBRANCH  20  21
ENDBRANCH  17  20
ENDBRANCH  16  17
ENDBRANCH  15  16
ENDBRANCH  14  15
ENDBRANCH  12  14
ENDBRANCH   7  12
BRANCH   1  28
HETATM   28  C4  UNL     1      14.192 -11.495  20.177  1.00  0.00     0.169 C 
BRANCH  28  29
HETATM   29  N3  UNL     1      13.513 -10.785  21.244  1.00  0.00    -0.334 N 
HETATM   30  C3  UNL     1      13.726  -9.480  21.494  1.00  0.00     0.201 A 
HETATM   31  N2  UNL     1      13.095  -8.823  22.484  1.00  0.00    -0.188 N 
HETATM   32  C2  UNL     1      12.210  -9.451  23.277  1.00  0.00     0.681 A 
ATOM     33  H2  UNL     1      13.291  -7.833  22.636  1.00  0.00     0.185 HD
HETATM   34  N1  UNL     1      11.597  -8.832  24.231  1.00  0.00    -0.230 N 
HETATM   35  N11 UNL     1      11.994 -10.755  23.030  1.00  0.00    -0.184 N 
HETATM   36  C1  UNL     1      11.879  -7.419  24.443  1.00  0.00     0.165 C 
ATOM     37  H1  UNL     1      10.929  -9.323  24.825  1.00  0.00     0.177 HD
HETATM   38  C21 UNL     1      12.626 -11.414  22.039  1.00  0.00     0.204 A 
HETATM   39  C22 UNL     1      11.032 -11.448  23.887  1.00  0.00     0.176 C 
ENDBRANCH  28  29
ENDBRANCH   1  28
TORSDOF 11
ENDMDL
