MODEL 1
REMARK VINA RESULT: -8.876075705      0.000      0.000
REMARK  11 active torsions:
REMARK  status: ('A' for Active; 'I' for Inactive)
REMARK    1  A    between atoms: N2_6  and  O1_8 
REMARK    2  A    between atoms: C6_14  and  C7_15 
REMARK    3  A    between atoms: C7_15  and  N4_16 
REMARK       I    between atoms: N4_16  and  C8_18 
REMARK    4  A    between atoms: C8_18  and  C9_20 
REMARK    5  A    between atoms: C9_20  and  C10_21 
REMARK    6  A    between atoms: C10_21  and  C11_22 
REMARK    7  A    between atoms: N5_24  and  C13_25 
REMARK    8  A    between atoms: C13_25  and  C14_26 
REMARK    9  A    between atoms: C14_26  and  C15_27 
REMARK   10  A    between atoms: C15_27  and  C16_28 
REMARK   11  A    between atoms: C16_28  and  N6_29 
ROOT
HETATM    1  N4  UNL     1      15.979 -12.886  19.746  1.00  0.00    -0.335 N 
ATOM      2  H4  UNL     1      16.240 -13.865  19.869  1.00  0.00     0.168 HD
HETATM    3  C8  UNL     1      16.984 -11.866  19.782  1.00  0.00     0.221 C 
HETATM    4  O3  UNL     1      16.640 -10.676  19.630  1.00  0.00    -0.273 OA
ENDROOT
BRANCH   3   5
HETATM    5  C9  UNL     1      18.383 -12.221  19.992  1.00  0.00     0.109 C 
BRANCH   5   6
HETATM    6  C10 UNL     1      18.709 -12.252  21.463  1.00  0.00     0.067 C 
BRANCH   6   7
HETATM    7  C11 UNL     1      18.542 -13.629  21.998  1.00  0.00     0.026 A 
HETATM    8  C12 UNL     1      19.126 -14.760  21.466  1.00  0.00     0.116 A 
HETATM    9  N5  UNL     1      18.783 -15.852  22.173  1.00  0.00    -0.351 N 
HETATM   10  C23 UNL     1      17.971 -15.394  23.163  1.00  0.00     0.183 A 
HETATM   11  N7  UNL     1      17.830 -14.061  23.053  1.00  0.00    -0.354 N 
ATOM     12  H7  UNL     1      17.272 -13.473  23.671  1.00  0.00     0.166 HD
BRANCH   9  13
HETATM   13  C13 UNL     1      19.186 -17.239  21.943  1.00  0.00     0.129 C 
BRANCH  13  14
HETATM   14  C14 UNL     1      20.669 -17.249  21.731  1.00  0.00     0.022 C 
BRANCH  14  15
HETATM   15  C15 UNL     1      21.445 -17.676  22.932  1.00  0.00     0.022 C 
BRANCH  15  16
HETATM   16  C16 UNL     1      22.287 -16.559  23.510  1.00  0.00     0.128 C 
BRANCH  16  17
HETATM   17  N6  UNL     1      21.505 -15.806  24.472  1.00  0.00    -0.366 N 
HETATM   18  C17 UNL     1      20.752 -16.451  25.382  1.00  0.00     0.090 A 
HETATM   19  C18 UNL     1      19.989 -15.763  26.318  1.00  0.00     0.018 A 
HETATM   20  C19 UNL     1      19.998 -14.388  26.321  1.00  0.00     0.009 A 
HETATM   21  C20 UNL     1      20.768 -13.732  25.389  1.00  0.00    -0.046 A 
HETATM   22  C21 UNL     1      20.770 -12.247  25.403  1.00  0.00     0.049 C 
HETATM   23  C22 UNL     1      21.508 -14.462  24.482  1.00  0.00     0.097 A 
ENDBRANCH  16  17
ENDBRANCH  15  16
ENDBRANCH  14  15
ENDBRANCH  13  14
ENDBRANCH   9  13
ENDBRANCH   6   7
ENDBRANCH   5   6
ENDBRANCH   3   5
BRANCH   1  24
HETATM   24  C7  UNL     1      14.624 -12.535  19.542  1.00  0.00     0.122 C 
BRANCH  24  25
HETATM   25  C6  UNL     1      13.832 -12.146  20.523  1.00  0.00     0.076 A 
HETATM   26  C2  UNL     1      12.949 -13.000  21.153  1.00  0.00     0.052 A 
HETATM   27  C1  UNL     1      12.849 -14.252  20.809  1.00  0.00     0.045 C 
HETATM   28  N1  UNL     1      12.159 -12.524  22.164  1.00  0.00    -0.335 N 
HETATM   29  C3  UNL     1      12.196 -11.247  22.585  1.00  0.00     0.197 A 
ATOM     30  H1  UNL     1      11.511 -13.167  22.619  1.00  0.00     0.168 HD
HETATM   31  N2  UNL     1      11.424 -10.872  23.540  1.00  0.00    -0.244 N 
HETATM   32  C5  UNL     1      13.075 -10.394  21.959  1.00  0.00     0.292 A 
HETATM   33  C4  UNL     1      11.366  -9.556  24.075  1.00  0.00     0.187 C 
HETATM   34  O2  UNL     1      13.134  -9.198  22.328  1.00  0.00    -0.264 OA
HETATM   35  N3  UNL     1      13.848 -10.877  20.963  1.00  0.00    -0.317 N 
ATOM     36  H3  UNL     1      14.493 -10.229  20.511  1.00  0.00     0.169 HD
BRANCH  31  37
HETATM   37  O1  UNL     1      10.573 -11.832  24.098  1.00  0.00    -0.286 OA
ATOM     38  H1  UNL     1       9.731 -11.970  23.679  1.00  0.00     0.244 HD
ENDBRANCH  31  37
ENDBRANCH  24  25
ENDBRANCH   1  24
TORSDOF 11
ENDMDL
MODEL 2
REMARK VINA RESULT: -8.799466239      0.979      1.993
REMARK  11 active torsions:
REMARK  status: ('A' for Active; 'I' for Inactive)
REMARK    1  A    between atoms: N2_6  and  O1_8 
REMARK    2  A    between atoms: C6_14  and  C7_15 
REMARK    3  A    between atoms: C7_15  and  N4_16 
REMARK       I    between atoms: N4_16  and  C8_18 
REMARK    4  A    between atoms: C8_18  and  C9_20 
REMARK    5  A    between atoms: C9_20  and  C10_21 
REMARK    6  A    between atoms: C10_21  and  C11_22 
REMARK    7  A    between atoms: N5_24  and  C13_25 
REMARK    8  A    between atoms: C13_25  and  C14_26 
REMARK    9  A    between atoms: C14_26  and  C15_27 
REMARK   10  A    between atoms: C15_27  and  C16_28 
REMARK   11  A    between atoms: C16_28  and  N6_29 
ROOT
HETATM    1  N4  UNL     1      15.993 -12.905  19.772  1.00  0.00    -0.335 N 
ATOM      2  H4  UNL     1      16.263 -13.876  19.929  1.00  0.00     0.168 HD
HETATM    3  C8  UNL     1      16.990 -11.877  19.762  1.00  0.00     0.221 C 
HETATM    4  O3  UNL     1      16.636 -10.696  19.568  1.00  0.00    -0.273 OA
ENDROOT
BRANCH   3   5
HETATM    5  C9  UNL     1      18.394 -12.214  19.973  1.00  0.00     0.109 C 
BRANCH   5   6
HETATM    6  C10 UNL     1      18.677 -12.420  21.439  1.00  0.00     0.067 C 
BRANCH   6   7
HETATM    7  C11 UNL     1      18.952 -13.855  21.712  1.00  0.00     0.026 A 
HETATM    8  C12 UNL     1      18.128 -14.695  22.434  1.00  0.00     0.116 A 
HETATM    9  N5  UNL     1      18.652 -15.931  22.506  1.00  0.00    -0.351 N 
HETATM   10  C23 UNL     1      19.822 -15.863  21.818  1.00  0.00     0.183 A 
HETATM   11  N7  UNL     1      19.997 -14.616  21.345  1.00  0.00    -0.354 N 
ATOM     12  H7  UNL     1      20.796 -14.298  20.796  1.00  0.00     0.166 HD
BRANCH   9  13
HETATM   13  C13 UNL     1      18.097 -17.108  23.174  1.00  0.00     0.129 C 
BRANCH  13  14
HETATM   14  C14 UNL     1      17.582 -16.668  24.510  1.00  0.00     0.022 C 
BRANCH  14  15
HETATM   15  C15 UNL     1      18.524 -16.938  25.636  1.00  0.00     0.022 C 
BRANCH  15  16
HETATM   16  C16 UNL     1      18.895 -15.686  26.400  1.00  0.00     0.128 C 
BRANCH  16  17
HETATM   17  N6  UNL     1      19.946 -14.977  25.695  1.00  0.00    -0.366 N 
HETATM   18  C17 UNL     1      19.821 -13.661  25.444  1.00  0.00     0.090 A 
HETATM   19  C18 UNL     1      20.807 -12.949  24.771  1.00  0.00     0.018 A 
HETATM   20  C19 UNL     1      21.941 -13.600  24.344  1.00  0.00     0.009 A 
HETATM   21  C20 UNL     1      22.066 -14.945  24.602  1.00  0.00    -0.046 A 
HETATM   22  C21 UNL     1      23.295 -15.635  24.138  1.00  0.00     0.049 C 
HETATM   23  C22 UNL     1      21.058 -15.606  25.275  1.00  0.00     0.097 A 
ENDBRANCH  16  17
ENDBRANCH  15  16
ENDBRANCH  14  15
ENDBRANCH  13  14
ENDBRANCH   9  13
ENDBRANCH   6   7
ENDBRANCH   5   6
ENDBRANCH   3   5
BRANCH   1  24
HETATM   24  C7  UNL     1      14.634 -12.571  19.566  1.00  0.00     0.122 C 
BRANCH  24  25
HETATM   25  C6  UNL     1      13.843 -12.165  20.542  1.00  0.00     0.076 A 
HETATM   26  C2  UNL     1      12.962 -13.008  21.188  1.00  0.00     0.052 A 
HETATM   27  C1  UNL     1      12.862 -14.266  20.867  1.00  0.00     0.045 C 
HETATM   28  N1  UNL     1      12.173 -12.514  22.192  1.00  0.00    -0.335 N 
HETATM   29  C3  UNL     1      12.211 -11.230  22.590  1.00  0.00     0.197 A 
ATOM     30  H1  UNL     1      11.527 -13.149  22.660  1.00  0.00     0.168 HD
HETATM   31  N2  UNL     1      11.440 -10.838  23.540  1.00  0.00    -0.244 N 
HETATM   32  C5  UNL     1      13.087 -10.388  21.947  1.00  0.00     0.292 A 
HETATM   33  C4  UNL     1      11.382  -9.512  24.051  1.00  0.00     0.187 C 
HETATM   34  O2  UNL     1      13.146  -9.185  22.294  1.00  0.00    -0.264 OA
HETATM   35  N3  UNL     1      13.859 -10.888  20.959  1.00  0.00    -0.317 N 
ATOM     36  H3  UNL     1      14.503 -10.248  20.494  1.00  0.00     0.169 HD
BRANCH  31  37
HETATM   37  O1  UNL     1      10.590 -11.788  24.117  1.00  0.00    -0.286 OA
ATOM     38  H1  UNL     1      10.208 -12.441  23.542  1.00  0.00     0.244 HD
ENDBRANCH  31  37
ENDBRANCH  24  25
ENDBRANCH   1  24
TORSDOF 11
ENDMDL
MODEL 3
REMARK VINA RESULT: -8.770449653      0.404      1.121
REMARK  11 active torsions:
REMARK  status: ('A' for Active; 'I' for Inactive)
REMARK    1  A    between atoms: N2_6  and  O1_8 
REMARK    2  A    between atoms: C6_14  and  C7_15 
REMARK    3  A    between atoms: C7_15  and  N4_16 
REMARK       I    between atoms: N4_16  and  C8_18 
REMARK    4  A    between atoms: C8_18  and  C9_20 
REMARK    5  A    between atoms: C9_20  and  C10_21 
REMARK    6  A    between atoms: C10_21  and  C11_22 
REMARK    7  A    between atoms: N5_24  and  C13_25 
REMARK    8  A    between atoms: C13_25  and  C14_26 
REMARK    9  A    between atoms: C14_26  and  C15_27 
REMARK   10  A    between atoms: C15_27  and  C16_28 
REMARK   11  A    between atoms: C16_28  and  N6_29 
ROOT
HETATM    1  N4  UNL     1      15.929 -12.867  19.711  1.00  0.00    -0.335 N 
ATOM      2  H4  UNL     1      16.198 -13.846  19.813  1.00  0.00     0.168 HD
HETATM    3  C8  UNL     1      16.926 -11.840  19.760  1.00  0.00     0.221 C 
HETATM    4  O3  UNL     1      16.573 -10.650  19.632  1.00  0.00    -0.273 OA
ENDROOT
BRANCH   3   5
HETATM    5  C9  UNL     1      18.330 -12.189  19.956  1.00  0.00     0.109 C 
BRANCH   5   6
HETATM    6  C10 UNL     1      18.646 -12.318  21.424  1.00  0.00     0.067 C 
BRANCH   6   7
HETATM    7  C11 UNL     1      18.495 -13.731  21.860  1.00  0.00     0.026 A 
HETATM    8  C12 UNL     1      19.236 -14.791  21.377  1.00  0.00     0.116 A 
HETATM    9  N5  UNL     1      18.865 -15.941  21.968  1.00  0.00    -0.351 N 
HETATM   10  C23 UNL     1      17.877 -15.594  22.834  1.00  0.00     0.183 A 
HETATM   11  N7  UNL     1      17.659 -14.268  22.765  1.00  0.00    -0.354 N 
ATOM     12  H7  UNL     1      16.969 -13.753  23.312  1.00  0.00     0.166 HD
BRANCH   9  13
HETATM   13  C13 UNL     1      19.398 -17.284  21.741  1.00  0.00     0.129 C 
BRANCH  13  14
HETATM   14  C14 UNL     1      20.892 -17.177  21.705  1.00  0.00     0.022 C 
BRANCH  14  15
HETATM   15  C15 UNL     1      21.552 -17.550  22.991  1.00  0.00     0.022 C 
BRANCH  15  16
HETATM   16  C16 UNL     1      22.414 -16.439  23.549  1.00  0.00     0.128 C 
BRANCH  16  17
HETATM   17  N6  UNL     1      21.582 -15.477  24.244  1.00  0.00    -0.366 N 
HETATM   18  C17 UNL     1      21.718 -14.162  23.994  1.00  0.00     0.090 A 
HETATM   19  C18 UNL     1      20.939 -13.210  24.642  1.00  0.00     0.018 A 
HETATM   20  C19 UNL     1      20.003 -13.615  25.564  1.00  0.00     0.009 A 
HETATM   21  C20 UNL     1      19.866 -14.960  25.818  1.00  0.00    -0.046 A 
HETATM   22  C21 UNL     1      18.851 -15.384  26.815  1.00  0.00     0.049 C 
HETATM   23  C22 UNL     1      20.664 -15.864  25.147  1.00  0.00     0.097 A 
ENDBRANCH  16  17
ENDBRANCH  15  16
ENDBRANCH  14  15
ENDBRANCH  13  14
ENDBRANCH   9  13
ENDBRANCH   6   7
ENDBRANCH   5   6
ENDBRANCH   3   5
BRANCH   1  24
HETATM   24  C7  UNL     1      14.570 -12.522  19.519  1.00  0.00     0.122 C 
BRANCH  24  25
HETATM   25  C6  UNL     1      13.786 -12.138  20.509  1.00  0.00     0.076 A 
HETATM   26  C2  UNL     1      12.904 -12.993  21.138  1.00  0.00     0.052 A 
HETATM   27  C1  UNL     1      12.797 -14.242  20.784  1.00  0.00     0.045 C 
HETATM   28  N1  UNL     1      12.122 -12.522  22.157  1.00  0.00    -0.335 N 
HETATM   29  C3  UNL     1      12.167 -11.249  22.588  1.00  0.00     0.197 A 
ATOM     30  H1  UNL     1      11.475 -13.166  22.612  1.00  0.00     0.168 HD
HETATM   31  N2  UNL     1      11.402 -10.878  23.551  1.00  0.00    -0.244 N 
HETATM   32  C5  UNL     1      13.045 -10.394  21.963  1.00  0.00     0.292 A 
HETATM   33  C4  UNL     1      11.353  -9.566  24.097  1.00  0.00     0.187 C 
HETATM   34  O2  UNL     1      13.111  -9.201  22.341  1.00  0.00    -0.264 OA
HETATM   35  N3  UNL     1      13.810 -10.872  20.959  1.00  0.00    -0.317 N 
ATOM     36  H3  UNL     1      14.455 -10.223  20.508  1.00  0.00     0.169 HD
BRANCH  31  37
HETATM   37  O1  UNL     1      10.551 -11.839  24.108  1.00  0.00    -0.286 OA
ATOM     38  H1  UNL     1       9.715 -11.985  23.680  1.00  0.00     0.244 HD
ENDBRANCH  31  37
ENDBRANCH  24  25
ENDBRANCH   1  24
TORSDOF 11
ENDMDL
MODEL 4
REMARK VINA RESULT: -8.729286767      1.164      2.963
REMARK  11 active torsions:
REMARK  status: ('A' for Active; 'I' for Inactive)
REMARK    1  A    between atoms: N2_6  and  O1_8 
REMARK    2  A    between atoms: C6_14  and  C7_15 
REMARK    3  A    between atoms: C7_15  and  N4_16 
REMARK       I    between atoms: N4_16  and  C8_18 
REMARK    4  A    between atoms: C8_18  and  C9_20 
REMARK    5  A    between atoms: C9_20  and  C10_21 
REMARK    6  A    between atoms: C10_21  and  C11_22 
REMARK    7  A    between atoms: N5_24  and  C13_25 
REMARK    8  A    between atoms: C13_25  and  C14_26 
REMARK    9  A    between atoms: C14_26  and  C15_27 
REMARK   10  A    between atoms: C15_27  and  C16_28 
REMARK   11  A    between atoms: C16_28  and  N6_29 
ROOT
HETATM    1  N4  UNL     1      16.244 -12.857  20.391  1.00  0.00    -0.335 N 
ATOM      2  H4  UNL     1      16.554 -13.783  20.689  1.00  0.00     0.168 HD
HETATM    3  C8  UNL     1      17.186 -11.784  20.289  1.00  0.00     0.221 C 
HETATM    4  O3  UNL     1      16.784 -10.661  19.922  1.00  0.00    -0.273 OA
ENDROOT
BRANCH   3   5
HETATM    5  C9  UNL     1      18.592 -12.008  20.610  1.00  0.00     0.109 C 
BRANCH   5   6
HETATM    6  C10 UNL     1      18.816 -13.431  21.056  1.00  0.00     0.067 C 
BRANCH   6   7
HETATM    7  C11 UNL     1      19.714 -13.463  22.240  1.00  0.00     0.026 A 
HETATM    8  C12 UNL     1      19.387 -12.986  23.493  1.00  0.00     0.116 A 
HETATM    9  N5  UNL     1      20.409 -13.159  24.351  1.00  0.00    -0.351 N 
HETATM   10  C23 UNL     1      21.390 -13.754  23.621  1.00  0.00     0.183 A 
HETATM   11  N7  UNL     1      20.967 -13.933  22.356  1.00  0.00    -0.354 N 
ATOM     12  H7  UNL     1      21.512 -14.359  21.606  1.00  0.00     0.166 HD
BRANCH   9  13
HETATM   13  C13 UNL     1      20.470 -12.793  25.765  1.00  0.00     0.129 C 
BRANCH  13  14
HETATM   14  C14 UNL     1      20.615 -14.059  26.553  1.00  0.00     0.022 C 
BRANCH  14  15
HETATM   15  C15 UNL     1      19.390 -14.910  26.554  1.00  0.00     0.022 C 
BRANCH  15  16
HETATM   16  C16 UNL     1      19.686 -16.361  26.242  1.00  0.00     0.128 C 
BRANCH  16  17
HETATM   17  N6  UNL     1      19.418 -16.623  24.840  1.00  0.00    -0.366 N 
HETATM   18  C17 UNL     1      20.371 -17.169  24.063  1.00  0.00     0.090 A 
HETATM   19  C18 UNL     1      20.151 -17.434  22.716  1.00  0.00     0.018 A 
HETATM   20  C19 UNL     1      18.931 -17.132  22.156  1.00  0.00     0.009 A 
HETATM   21  C20 UNL     1      17.960 -16.574  22.955  1.00  0.00    -0.046 A 
HETATM   22  C21 UNL     1      16.647 -16.254  22.339  1.00  0.00     0.049 C 
HETATM   23  C22 UNL     1      18.229 -16.332  24.286  1.00  0.00     0.097 A 
ENDBRANCH  16  17
ENDBRANCH  15  16
ENDBRANCH  14  15
ENDBRANCH  13  14
ENDBRANCH   9  13
ENDBRANCH   6   7
ENDBRANCH   5   6
ENDBRANCH   3   5
BRANCH   1  24
HETATM   24  C7  UNL     1      14.883 -12.633  20.077  1.00  0.00     0.122 C 
BRANCH  24  25
HETATM   25  C6  UNL     1      14.009 -12.198  20.966  1.00  0.00     0.076 A 
HETATM   26  C2  UNL     1      13.129 -13.038  21.620  1.00  0.00     0.052 A 
HETATM   27  C1  UNL     1      13.114 -14.319  21.393  1.00  0.00     0.045 C 
HETATM   28  N1  UNL     1      12.251 -12.513  22.529  1.00  0.00    -0.335 N 
HETATM   29  C3  UNL     1      12.197 -11.203  22.826  1.00  0.00     0.197 A 
ATOM     30  H1  UNL     1      11.607 -13.146  23.004  1.00  0.00     0.168 HD
HETATM   31  N2  UNL     1      11.345 -10.783  23.691  1.00  0.00    -0.244 N 
HETATM   32  C5  UNL     1      13.072 -10.365  22.176  1.00  0.00     0.292 A 
HETATM   33  C4  UNL     1      11.187  -9.428  24.091  1.00  0.00     0.187 C 
HETATM   34  O2  UNL     1      13.047  -9.137  22.429  1.00  0.00    -0.264 OA
HETATM   35  N3  UNL     1      13.933 -10.894  21.281  1.00  0.00    -0.317 N 
ATOM     36  H3  UNL     1      14.574 -10.257  20.809  1.00  0.00     0.169 HD
BRANCH  31  37
HETATM   37  O1  UNL     1      10.507 -11.733  24.286  1.00  0.00    -0.286 OA
ATOM     38  H1  UNL     1      10.069 -11.487  25.093  1.00  0.00     0.244 HD
ENDBRANCH  31  37
ENDBRANCH  24  25
ENDBRANCH   1  24
TORSDOF 11
ENDMDL
MODEL 5
REMARK VINA RESULT: -8.673341171      1.212      2.960
REMARK  11 active torsions:
REMARK  status: ('A' for Active; 'I' for Inactive)
REMARK    1  A    between atoms: N2_6  and  O1_8 
REMARK    2  A    between atoms: C6_14  and  C7_15 
REMARK    3  A    between atoms: C7_15  and  N4_16 
REMARK       I    between atoms: N4_16  and  C8_18 
REMARK    4  A    between atoms: C8_18  and  C9_20 
REMARK    5  A    between atoms: C9_20  and  C10_21 
REMARK    6  A    between atoms: C10_21  and  C11_22 
REMARK    7  A    between atoms: N5_24  and  C13_25 
REMARK    8  A    between atoms: C13_25  and  C14_26 
REMARK    9  A    between atoms: C14_26  and  C15_27 
REMARK   10  A    between atoms: C15_27  and  C16_28 
REMARK   11  A    between atoms: C16_28  and  N6_29 
ROOT
HETATM    1  N4  UNL     1      16.139 -12.880  20.214  1.00  0.00    -0.335 N 
ATOM      2  H4  UNL     1      16.439 -13.825  20.456  1.00  0.00     0.168 HD
HETATM    3  C8  UNL     1      17.097 -11.818  20.148  1.00  0.00     0.221 C 
HETATM    4  O3  UNL     1      16.706 -10.671  19.849  1.00  0.00    -0.273 OA
ENDROOT
BRANCH   3   5
HETATM    5  C9  UNL     1      18.505 -12.082  20.425  1.00  0.00     0.109 C 
BRANCH   5   6
HETATM    6  C10 UNL     1      18.699 -13.501  20.892  1.00  0.00     0.067 C 
BRANCH   6   7
HETATM    7  C11 UNL     1      19.534 -13.529  22.121  1.00  0.00     0.026 A 
HETATM    8  C12 UNL     1      19.057 -13.357  23.405  1.00  0.00     0.116 A 
HETATM    9  N5  UNL     1      20.058 -13.436  24.300  1.00  0.00    -0.351 N 
HETATM   10  C23 UNL     1      21.178 -13.661  23.563  1.00  0.00     0.183 A 
HETATM   11  N7  UNL     1      20.858 -13.715  22.258  1.00  0.00    -0.354 N 
ATOM     12  H7  UNL     1      21.515 -13.873  21.494  1.00  0.00     0.166 HD
BRANCH   9  13
HETATM   13  C13 UNL     1      19.978 -13.310  25.755  1.00  0.00     0.129 C 
BRANCH  13  14
HETATM   14  C14 UNL     1      20.305 -14.648  26.343  1.00  0.00     0.022 C 
BRANCH  14  15
HETATM   15  C15 UNL     1      19.116 -15.533  26.522  1.00  0.00     0.022 C 
BRANCH  15  16
HETATM   16  C16 UNL     1      19.327 -16.917  25.950  1.00  0.00     0.128 C 
BRANCH  16  17
HETATM   17  N6  UNL     1      18.928 -16.935  24.556  1.00  0.00    -0.366 N 
HETATM   18  C17 UNL     1      17.634 -16.782  24.222  1.00  0.00     0.090 A 
HETATM   19  C18 UNL     1      17.215 -16.794  22.897  1.00  0.00     0.018 A 
HETATM   20  C19 UNL     1      18.141 -16.969  21.895  1.00  0.00     0.009 A 
HETATM   21  C20 UNL     1      19.464 -17.125  22.240  1.00  0.00    -0.046 A 
HETATM   22  C21 UNL     1      20.453 -17.311  21.149  1.00  0.00     0.049 C 
HETATM   23  C22 UNL     1      19.827 -17.104  23.570  1.00  0.00     0.097 A 
ENDBRANCH  16  17
ENDBRANCH  15  16
ENDBRANCH  14  15
ENDBRANCH  13  14
ENDBRANCH   9  13
ENDBRANCH   6   7
ENDBRANCH   5   6
ENDBRANCH   3   5
BRANCH   1  24
HETATM   24  C7  UNL     1      14.775 -12.617  19.943  1.00  0.00     0.122 C 
BRANCH  24  25
HETATM   25  C6  UNL     1      13.933 -12.195  20.867  1.00  0.00     0.076 A 
HETATM   26  C2  UNL     1      13.073 -13.042  21.537  1.00  0.00     0.052 A 
HETATM   27  C1  UNL     1      13.045 -14.319  21.290  1.00  0.00     0.045 C 
HETATM   28  N1  UNL     1      12.227 -12.529  22.483  1.00  0.00    -0.335 N 
HETATM   29  C3  UNL     1      12.188 -11.224  22.803  1.00  0.00     0.197 A 
ATOM     30  H1  UNL     1      11.597 -13.168  22.969  1.00  0.00     0.168 HD
HETATM   31  N2  UNL     1      11.367 -10.815  23.702  1.00  0.00    -0.244 N 
HETATM   32  C5  UNL     1      13.044 -10.378  22.138  1.00  0.00     0.292 A 
HETATM   33  C4  UNL     1      11.228  -9.466  24.130  1.00  0.00     0.187 C 
HETATM   34  O2  UNL     1      13.032  -9.155  22.412  1.00  0.00    -0.264 OA
HETATM   35  N3  UNL     1      13.873 -10.896  21.206  1.00  0.00    -0.317 N 
ATOM     36  H3  UNL     1      14.500 -10.253  20.723  1.00  0.00     0.169 HD
BRANCH  31  37
HETATM   37  O1  UNL     1      10.546 -11.772  24.310  1.00  0.00    -0.286 OA
ATOM     38  H1  UNL     1      10.786 -12.067  25.181  1.00  0.00     0.244 HD
ENDBRANCH  31  37
ENDBRANCH  24  25
ENDBRANCH   1  24
TORSDOF 11
ENDMDL
