MODEL 1
REMARK VINA RESULT: -7.321554809      0.000      0.000
REMARK  9 active torsions:
REMARK  status: ('A' for Active; 'I' for Inactive)
REMARK       I    between atoms: C2_4  and  N3_6 
REMARK    1  A    between atoms: C3_7  and  C4_8 
REMARK    2  A    between atoms: C4_8  and  C5_9 
REMARK    3  A    between atoms: C5_9  and  N4_10 
REMARK    4  A    between atoms: C10_18  and  C11_19 
REMARK    5  A    between atoms: C11_19  and  C12_20 
REMARK    6  A    between atoms: C12_20  and  C13_21 
REMARK    7  A    between atoms: C13_21  and  N6_22 
REMARK    8  A    between atoms: C16_31  and  C17_32 
REMARK    9  A    between atoms: C17_32  and  C18_33 
ROOT
HETATM    1  C1  UNL     1      21.645 -16.298  25.924  1.00  0.00     0.148 C 
HETATM    2  N1  UNL     1      21.220 -17.010  24.770  1.00  0.00    -0.369 N 
ATOM      3  H1  UNL     1      21.746 -17.855  24.548  1.00  0.00     0.161 HD
HETATM    4  C2  UNL     1      20.266 -16.724  23.980  1.00  0.00     0.188 C 
HETATM    5  N2  UNL     1      20.033 -17.601  22.884  1.00  0.00    -0.064 NA
HETATM    6  N3  UNL     1      19.403 -15.600  24.089  1.00  0.00    -0.321 N 
HETATM    7  C3  UNL     1      18.106 -15.967  24.552  1.00  0.00     0.191 C 
HETATM    8  N5  UNL     1      17.325 -16.335  23.360  1.00  0.00    -0.338 N 
ATOM      9  H5  UNL     1      17.027 -17.310  23.341  1.00  0.00     0.164 HD
HETATM   10  C9  UNL     1      16.918 -15.591  22.252  1.00  0.00     0.242 C 
HETATM   11  O1  UNL     1      16.225 -16.256  21.456  1.00  0.00    -0.271 OA
HETATM   12  C10 UNL     1      17.112 -14.200  21.794  1.00  0.00     0.176 C 
HETATM   13  N9  UNL     1      18.498 -13.897  21.529  1.00  0.00    -0.346 N 
ATOM     14  H9  UNL     1      18.675 -13.605  20.567  1.00  0.00     0.163 HD
HETATM   15  C15 UNL     1      19.664 -13.924  22.338  1.00  0.00     0.241 C 
HETATM   16  O2  UNL     1      20.644 -13.458  21.701  1.00  0.00    -0.271 OA
HETATM   17  C16 UNL     1      20.027 -14.349  23.710  1.00  0.00     0.181 C 
ENDROOT
BRANCH  12  18
HETATM   18  C11 UNL     1      16.210 -13.953  20.638  1.00  0.00     0.036 C 
BRANCH  18  19
HETATM   19  C12 UNL     1      16.465 -12.656  19.922  1.00  0.00     0.022 C 
BRANCH  19  20
HETATM   20  C13 UNL     1      16.250 -11.545  20.958  1.00  0.00     0.122 C 
BRANCH  20  21
HETATM   21  N6  UNL     1      15.399 -10.509  20.441  1.00  0.00    -0.367 N 
HETATM   22  C14 UNL     1      14.199 -10.418  20.896  1.00  0.00     0.196 C 
HETATM   23  N7  UNL     1      13.276  -9.437  20.457  1.00  0.00    -0.067 NA
HETATM   24  N8  UNL     1      13.733 -11.330  21.894  1.00  0.00    -0.067 NA
ATOM     25  H6  UNL     1      15.738  -9.862  19.729  1.00  0.00     0.161 HD
ENDBRANCH  20  21
ENDBRANCH  19  20
ENDBRANCH  18  19
ENDBRANCH  12  18
BRANCH   7  26
HETATM   26  C4  UNL     1      18.067 -17.098  25.505  1.00  0.00     0.075 C 
BRANCH  26  27
HETATM   27  C5  UNL     1      16.904 -18.034  25.191  1.00  0.00     0.240 C 
BRANCH  27  28
HETATM   28  N4  UNL     1      17.238 -19.408  25.517  1.00  0.00    -0.078 N 
HETATM   29  C6  UNL     1      18.518 -19.513  26.187  1.00  0.00     0.271 C 
HETATM   30  C7  UNL     1      17.324 -20.172  24.286  1.00  0.00     0.271 C 
HETATM   31  C8  UNL     1      16.246 -19.989  26.399  1.00  0.00     0.271 C 
ENDBRANCH  27  28
ENDBRANCH  26  27
ENDBRANCH   7  26
BRANCH  17  32
HETATM   32  C17 UNL     1      19.672 -13.321  24.742  1.00  0.00     0.039 C 
BRANCH  32  33
HETATM   33  C18 UNL     1      20.822 -12.625  25.366  1.00  0.00    -0.020 C 
HETATM   34  C19 UNL     1      20.772 -12.907  26.864  1.00  0.00     0.009 C 
HETATM   35  C20 UNL     1      22.167 -13.008  24.864  1.00  0.00     0.009 C 
ENDBRANCH  32  33
ENDBRANCH  17  32
TORSDOF 9
ENDMDL
MODEL 2
REMARK VINA RESULT: -7.294761653      1.039      1.195
REMARK  9 active torsions:
REMARK  status: ('A' for Active; 'I' for Inactive)
REMARK       I    between atoms: C2_4  and  N3_6 
REMARK    1  A    between atoms: C3_7  and  C4_8 
REMARK    2  A    between atoms: C4_8  and  C5_9 
REMARK    3  A    between atoms: C5_9  and  N4_10 
REMARK    4  A    between atoms: C10_18  and  C11_19 
REMARK    5  A    between atoms: C11_19  and  C12_20 
REMARK    6  A    between atoms: C12_20  and  C13_21 
REMARK    7  A    between atoms: C13_21  and  N6_22 
REMARK    8  A    between atoms: C16_31  and  C17_32 
REMARK    9  A    between atoms: C17_32  and  C18_33 
ROOT
HETATM    1  C1  UNL     1      21.195 -16.684  25.323  1.00  0.00     0.148 C 
HETATM    2  N1  UNL     1      20.785 -17.125  24.035  1.00  0.00    -0.369 N 
ATOM      3  H1  UNL     1      21.238 -17.970  23.687  1.00  0.00     0.161 HD
HETATM    4  C2  UNL     1      19.925 -16.596  23.262  1.00  0.00     0.188 C 
HETATM    5  N2  UNL     1      19.685 -17.230  22.011  1.00  0.00    -0.064 NA
HETATM    6  N3  UNL     1      19.174 -15.420  23.534  1.00  0.00    -0.321 N 
HETATM    7  C3  UNL     1      17.817 -15.716  23.850  1.00  0.00     0.191 C 
HETATM    8  N5  UNL     1      17.091 -15.774  22.571  1.00  0.00    -0.338 N 
ATOM      9  H5  UNL     1      16.698 -16.690  22.355  1.00  0.00     0.164 HD
HETATM   10  C9  UNL     1      16.843 -14.801  21.601  1.00  0.00     0.242 C 
HETATM   11  O1  UNL     1      16.146 -15.230  20.659  1.00  0.00    -0.271 OA
HETATM   12  C10 UNL     1      17.209 -13.381  21.422  1.00  0.00     0.176 C 
HETATM   13  N9  UNL     1      18.634 -13.193  21.292  1.00  0.00    -0.346 N 
ATOM     14  H9  UNL     1      18.909 -12.755  20.413  1.00  0.00     0.163 HD
HETATM   15  C15 UNL     1      19.729 -13.496  22.142  1.00  0.00     0.241 C 
HETATM   16  O2  UNL     1      20.795 -13.037  21.656  1.00  0.00    -0.271 OA
HETATM   17  C16 UNL     1      19.946 -14.200  23.428  1.00  0.00     0.181 C 
ENDROOT
BRANCH  12  18
HETATM   18  C11 UNL     1      16.423 -12.830  20.286  1.00  0.00     0.036 C 
BRANCH  18  19
HETATM   19  C12 UNL     1      15.690 -11.558  20.602  1.00  0.00     0.022 C 
BRANCH  19  20
HETATM   20  C13 UNL     1      14.215 -11.818  20.272  1.00  0.00     0.122 C 
BRANCH  20  21
HETATM   21  N6  UNL     1      13.420 -10.639  20.476  1.00  0.00    -0.367 N 
HETATM   22  C14 UNL     1      12.722 -10.551  21.553  1.00  0.00     0.196 C 
HETATM   23  N7  UNL     1      11.903  -9.434  21.856  1.00  0.00    -0.067 NA
HETATM   24  N8  UNL     1      12.744 -11.605  22.519  1.00  0.00    -0.067 NA
ATOM     25  H6  UNL     1      13.409  -9.890  19.784  1.00  0.00     0.161 HD
ENDBRANCH  20  21
ENDBRANCH  19  20
ENDBRANCH  18  19
ENDBRANCH  12  18
BRANCH   7  26
HETATM   26  C4  UNL     1      17.595 -16.988  24.572  1.00  0.00     0.075 C 
BRANCH  26  27
HETATM   27  C5  UNL     1      16.276 -17.631  24.151  1.00  0.00     0.240 C 
BRANCH  27  28
HETATM   28  N4  UNL     1      16.171 -18.986  24.657  1.00  0.00    -0.078 N 
HETATM   29  C6  UNL     1      16.715 -19.112  25.993  1.00  0.00     0.271 C 
HETATM   30  C7  UNL     1      16.928 -19.869  23.790  1.00  0.00     0.271 C 
HETATM   31  C8  UNL     1      14.787 -19.412  24.719  1.00  0.00     0.271 C 
ENDBRANCH  27  28
ENDBRANCH  26  27
ENDBRANCH   7  26
BRANCH  17  32
HETATM   32  C17 UNL     1      19.623 -13.340  24.614  1.00  0.00     0.039 C 
BRANCH  32  33
HETATM   33  C18 UNL     1      20.793 -12.766  25.319  1.00  0.00    -0.020 C 
HETATM   34  C19 UNL     1      20.682 -13.158  26.789  1.00  0.00     0.009 C 
HETATM   35  C20 UNL     1      22.127 -13.190  24.822  1.00  0.00     0.009 C 
ENDBRANCH  32  33
ENDBRANCH  17  32
TORSDOF 9
ENDMDL
MODEL 3
REMARK VINA RESULT: -7.188326384      1.255      1.582
REMARK  9 active torsions:
REMARK  status: ('A' for Active; 'I' for Inactive)
REMARK       I    between atoms: C2_4  and  N3_6 
REMARK    1  A    between atoms: C3_7  and  C4_8 
REMARK    2  A    between atoms: C4_8  and  C5_9 
REMARK    3  A    between atoms: C5_9  and  N4_10 
REMARK    4  A    between atoms: C10_18  and  C11_19 
REMARK    5  A    between atoms: C11_19  and  C12_20 
REMARK    6  A    between atoms: C12_20  and  C13_21 
REMARK    7  A    between atoms: C13_21  and  N6_22 
REMARK    8  A    between atoms: C16_31  and  C17_32 
REMARK    9  A    between atoms: C17_32  and  C18_33 
ROOT
HETATM    1  C1  UNL     1      21.099 -17.049  24.417  1.00  0.00     0.148 C 
HETATM    2  N1  UNL     1      20.711 -17.270  23.067  1.00  0.00    -0.369 N 
ATOM      3  H1  UNL     1      21.196 -18.024  22.581  1.00  0.00     0.161 HD
HETATM    4  C2  UNL     1      19.834 -16.645  22.392  1.00  0.00     0.188 C 
HETATM    5  N2  UNL     1      19.623 -17.056  21.046  1.00  0.00    -0.064 NA
HETATM    6  N3  UNL     1      19.040 -15.562  22.858  1.00  0.00    -0.321 N 
HETATM    7  C3  UNL     1      17.693 -15.958  23.104  1.00  0.00     0.191 C 
HETATM    8  N5  UNL     1      16.975 -15.815  21.827  1.00  0.00    -0.338 N 
ATOM      9  H5  UNL     1      16.617 -16.692  21.449  1.00  0.00     0.164 HD
HETATM   10  C9  UNL     1      16.694 -14.697  21.041  1.00  0.00     0.242 C 
HETATM   11  O1  UNL     1      16.017 -14.977  20.031  1.00  0.00    -0.271 OA
HETATM   12  C10 UNL     1      17.008 -13.255  21.118  1.00  0.00     0.176 C 
HETATM   13  N9  UNL     1      18.425 -12.996  21.038  1.00  0.00    -0.346 N 
ATOM     14  H9  UNL     1      18.687 -12.400  20.252  1.00  0.00     0.163 HD
HETATM   15  C15 UNL     1      19.528 -13.405  21.833  1.00  0.00     0.241 C 
HETATM   16  O2  UNL     1      20.578 -12.829  21.446  1.00  0.00    -0.271 OA
HETATM   17  C16 UNL     1      19.766 -14.316  22.977  1.00  0.00     0.181 C 
ENDROOT
BRANCH  12  18
HETATM   18  C11 UNL     1      16.206 -12.541  20.089  1.00  0.00     0.036 C 
BRANCH  18  19
HETATM   19  C12 UNL     1      15.596 -11.254  20.566  1.00  0.00     0.022 C 
BRANCH  19  20
HETATM   20  C13 UNL     1      14.085 -11.381  20.325  1.00  0.00     0.122 C 
BRANCH  20  21
HETATM   21  N6  UNL     1      13.367 -10.309  20.957  1.00  0.00    -0.367 N 
HETATM   22  C14 UNL     1      12.706 -10.564  22.031  1.00  0.00     0.196 C 
HETATM   23  N7  UNL     1      11.963  -9.584  22.735  1.00  0.00    -0.067 NA
HETATM   24  N8  UNL     1      12.694 -11.886  22.577  1.00  0.00    -0.067 NA
ATOM     25  H6  UNL     1      13.380  -9.368  20.563  1.00  0.00     0.161 HD
ENDBRANCH  20  21
ENDBRANCH  19  20
ENDBRANCH  18  19
ENDBRANCH  12  18
BRANCH   7  26
HETATM   26  C4  UNL     1      17.515 -17.345  23.588  1.00  0.00     0.075 C 
BRANCH  26  27
HETATM   27  C5  UNL     1      17.518 -17.394  25.113  1.00  0.00     0.240 C 
BRANCH  27  28
HETATM   28  N4  UNL     1      17.722 -18.748  25.591  1.00  0.00    -0.078 N 
HETATM   29  C6  UNL     1      18.692 -18.806  26.666  1.00  0.00     0.271 C 
HETATM   30  C7  UNL     1      18.230 -19.558  24.499  1.00  0.00     0.271 C 
HETATM   31  C8  UNL     1      16.488 -19.311  26.101  1.00  0.00     0.271 C 
ENDBRANCH  27  28
ENDBRANCH  26  27
ENDBRANCH   7  26
BRANCH  17  32
HETATM   32  C17 UNL     1      19.407 -13.691  24.292  1.00  0.00     0.039 C 
BRANCH  32  33
HETATM   33  C18 UNL     1      20.501 -13.640  25.291  1.00  0.00    -0.020 C 
HETATM   34  C19 UNL     1      20.891 -12.177  25.471  1.00  0.00     0.009 C 
HETATM   35  C20 UNL     1      20.191 -14.209  26.627  1.00  0.00     0.009 C 
ENDBRANCH  32  33
ENDBRANCH  17  32
TORSDOF 9
ENDMDL
MODEL 4
REMARK VINA RESULT: -7.120152942      1.612      2.011
REMARK  9 active torsions:
REMARK  status: ('A' for Active; 'I' for Inactive)
REMARK       I    between atoms: C2_4  and  N3_6 
REMARK    1  A    between atoms: C3_7  and  C4_8 
REMARK    2  A    between atoms: C4_8  and  C5_9 
REMARK    3  A    between atoms: C5_9  and  N4_10 
REMARK    4  A    between atoms: C10_18  and  C11_19 
REMARK    5  A    between atoms: C11_19  and  C12_20 
REMARK    6  A    between atoms: C12_20  and  C13_21 
REMARK    7  A    between atoms: C13_21  and  N6_22 
REMARK    8  A    between atoms: C16_31  and  C17_32 
REMARK    9  A    between atoms: C17_32  and  C18_33 
ROOT
HETATM    1  C1  UNL     1      20.806 -17.149  24.531  1.00  0.00     0.148 C 
HETATM    2  N1  UNL     1      20.414 -17.383  23.185  1.00  0.00    -0.369 N 
ATOM      3  H1  UNL     1      20.849 -18.183  22.725  1.00  0.00     0.161 HD
HETATM    4  C2  UNL     1      19.588 -16.719  22.482  1.00  0.00     0.188 C 
HETATM    5  N2  UNL     1      19.359 -17.154  21.147  1.00  0.00    -0.064 NA
HETATM    6  N3  UNL     1      18.868 -15.570  22.910  1.00  0.00    -0.321 N 
HETATM    7  C3  UNL     1      17.495 -15.863  23.153  1.00  0.00     0.191 C 
HETATM    8  N5  UNL     1      16.798 -15.709  21.867  1.00  0.00    -0.338 N 
ATOM      9  H5  UNL     1      16.383 -16.570  21.510  1.00  0.00     0.164 HD
HETATM   10  C9  UNL     1      16.602 -14.598  21.045  1.00  0.00     0.242 C 
HETATM   11  O1  UNL     1      15.915 -14.860  20.038  1.00  0.00    -0.271 OA
HETATM   12  C10 UNL     1      17.016 -13.180  21.083  1.00  0.00     0.176 C 
HETATM   13  N9  UNL     1      18.448 -13.023  21.009  1.00  0.00    -0.346 N 
ATOM     14  H9  UNL     1      18.757 -12.470  20.209  1.00  0.00     0.163 HD
HETATM   15  C15 UNL     1      19.514 -13.484  21.826  1.00  0.00     0.241 C 
HETATM   16  O2  UNL     1      20.604 -12.994  21.433  1.00  0.00    -0.271 OA
HETATM   17  C16 UNL     1      19.679 -14.374  22.999  1.00  0.00     0.181 C 
ENDROOT
BRANCH  12  18
HETATM   18  C11 UNL     1      16.274 -12.443  20.026  1.00  0.00     0.036 C 
BRANCH  18  19
HETATM   19  C12 UNL     1      15.635 -11.167  20.496  1.00  0.00     0.022 C 
BRANCH  19  20
HETATM   20  C13 UNL     1      14.125 -11.340  20.285  1.00  0.00     0.122 C 
BRANCH  20  21
HETATM   21  N6  UNL     1      13.385 -10.305  20.951  1.00  0.00    -0.367 N 
HETATM   22  C14 UNL     1      12.744 -10.605  22.026  1.00  0.00     0.196 C 
HETATM   23  N7  UNL     1      11.982  -9.663  22.762  1.00  0.00    -0.067 NA
HETATM   24  N8  UNL     1      12.774 -11.939  22.538  1.00  0.00    -0.067 NA
ATOM     25  H6  UNL     1      13.368  -9.354  20.581  1.00  0.00     0.161 HD
ENDBRANCH  20  21
ENDBRANCH  19  20
ENDBRANCH  18  19
ENDBRANCH  12  18
BRANCH   7  26
HETATM   26  C4  UNL     1      17.217 -17.219  23.676  1.00  0.00     0.075 C 
BRANCH  26  27
HETATM   27  C5  UNL     1      15.827 -17.691  23.258  1.00  0.00     0.240 C 
BRANCH  27  28
HETATM   28  N4  UNL     1      15.865 -19.054  22.764  1.00  0.00    -0.078 N 
HETATM   29  C6  UNL     1      17.194 -19.626  22.847  1.00  0.00     0.271 C 
HETATM   30  C7  UNL     1      15.474 -19.056  21.367  1.00  0.00     0.271 C 
HETATM   31  C8  UNL     1      14.984 -19.910  23.533  1.00  0.00     0.271 C 
ENDBRANCH  27  28
ENDBRANCH  26  27
ENDBRANCH   7  26
BRANCH  17  32
HETATM   32  C17 UNL     1      19.354 -13.687  24.291  1.00  0.00     0.039 C 
BRANCH  32  33
HETATM   33  C18 UNL     1      20.455 -13.647  25.283  1.00  0.00    -0.020 C 
HETATM   34  C19 UNL     1      20.866 -12.188  25.454  1.00  0.00     0.009 C 
HETATM   35  C20 UNL     1      20.146 -14.205  26.624  1.00  0.00     0.009 C 
ENDBRANCH  32  33
ENDBRANCH  17  32
TORSDOF 9
ENDMDL
MODEL 5
REMARK VINA RESULT: -7.112361241      1.377      1.718
REMARK  9 active torsions:
REMARK  status: ('A' for Active; 'I' for Inactive)
REMARK       I    between atoms: C2_4  and  N3_6 
REMARK    1  A    between atoms: C3_7  and  C4_8 
REMARK    2  A    between atoms: C4_8  and  C5_9 
REMARK    3  A    between atoms: C5_9  and  N4_10 
REMARK    4  A    between atoms: C10_18  and  C11_19 
REMARK    5  A    between atoms: C11_19  and  C12_20 
REMARK    6  A    between atoms: C12_20  and  C13_21 
REMARK    7  A    between atoms: C13_21  and  N6_22 
REMARK    8  A    between atoms: C16_31  and  C17_32 
REMARK    9  A    between atoms: C17_32  and  C18_33 
ROOT
HETATM    1  C1  UNL     1      21.330 -16.604  25.103  1.00  0.00     0.148 C 
HETATM    2  N1  UNL     1      20.923 -17.025  23.808  1.00  0.00    -0.369 N 
ATOM      3  H1  UNL     1      21.386 -17.858  23.443  1.00  0.00     0.161 HD
HETATM    4  C2  UNL     1      20.055 -16.492  23.048  1.00  0.00     0.188 C 
HETATM    5  N2  UNL     1      19.820 -17.105  21.785  1.00  0.00    -0.064 NA
HETATM    6  N3  UNL     1      19.290 -15.331  23.343  1.00  0.00    -0.321 N 
HETATM    7  C3  UNL     1      17.937 -15.650  23.657  1.00  0.00     0.191 C 
HETATM    8  N5  UNL     1      17.209 -15.692  22.379  1.00  0.00    -0.338 N 
ATOM      9  H5  UNL     1      16.827 -16.608  22.145  1.00  0.00     0.164 HD
HETATM   10  C9  UNL     1      16.946 -14.704  21.428  1.00  0.00     0.242 C 
HETATM   11  O1  UNL     1      16.253 -15.123  20.480  1.00  0.00    -0.271 OA
HETATM   12  C10 UNL     1      17.294 -13.276  21.276  1.00  0.00     0.176 C 
HETATM   13  N9  UNL     1      18.716 -13.068  21.146  1.00  0.00    -0.346 N 
ATOM     14  H9  UNL     1      18.984 -12.610  20.275  1.00  0.00     0.163 HD
HETATM   15  C15 UNL     1      19.818 -13.374  21.988  1.00  0.00     0.241 C 
HETATM   16  O2  UNL     1      20.876 -12.892  21.509  1.00  0.00    -0.271 OA
HETATM   17  C16 UNL     1      20.046 -14.099  23.260  1.00  0.00     0.181 C 
ENDROOT
BRANCH  12  18
HETATM   18  C11 UNL     1      16.499 -12.714  20.152  1.00  0.00     0.036 C 
BRANCH  18  19
HETATM   19  C12 UNL     1      15.716 -11.482  20.507  1.00  0.00     0.022 C 
BRANCH  19  20
HETATM   20  C13 UNL     1      14.244 -11.812  20.225  1.00  0.00     0.122 C 
BRANCH  20  21
HETATM   21  N6  UNL     1      13.949 -13.181  20.543  1.00  0.00    -0.367 N 
HETATM   22  C14 UNL     1      13.342 -13.436  21.649  1.00  0.00     0.196 C 
HETATM   23  N7  UNL     1      13.002 -14.748  22.063  1.00  0.00    -0.067 NA
HETATM   24  N8  UNL     1      12.974 -12.374  22.534  1.00  0.00    -0.067 NA
ATOM     25  H6  UNL     1      14.213 -13.934  19.908  1.00  0.00     0.161 HD
ENDBRANCH  20  21
ENDBRANCH  19  20
ENDBRANCH  18  19
ENDBRANCH  12  18
BRANCH   7  26
HETATM   26  C4  UNL     1      17.732 -16.939  24.354  1.00  0.00     0.075 C 
BRANCH  26  27
HETATM   27  C5  UNL     1      16.351 -17.510  24.049  1.00  0.00     0.240 C 
BRANCH  27  28
HETATM   28  N4  UNL     1      16.231 -18.872  24.535  1.00  0.00    -0.078 N 
HETATM   29  C6  UNL     1      16.738 -19.016  25.884  1.00  0.00     0.271 C 
HETATM   30  C7  UNL     1      17.011 -19.745  23.678  1.00  0.00     0.271 C 
HETATM   31  C8  UNL     1      14.845 -19.297  24.553  1.00  0.00     0.271 C 
ENDBRANCH  27  28
ENDBRANCH  26  27
ENDBRANCH   7  26
BRANCH  17  32
HETATM   32  C17 UNL     1      19.715 -13.267  24.462  1.00  0.00     0.039 C 
BRANCH  32  33
HETATM   33  C18 UNL     1      20.880 -12.790  25.245  1.00  0.00    -0.020 C 
HETATM   34  C19 UNL     1      20.684 -13.246  26.686  1.00  0.00     0.009 C 
HETATM   35  C20 UNL     1      22.212 -13.260  24.783  1.00  0.00     0.009 C 
ENDBRANCH  32  33
ENDBRANCH  17  32
TORSDOF 9
ENDMDL
