MODEL 1
REMARK VINA RESULT: -7.020294526      0.000      0.000
REMARK  4 active torsions:
REMARK  status: ('A' for Active; 'I' for Inactive)
REMARK    1  A    between atoms: N1_5  and  C5_6 
REMARK    2  A    between atoms: C5_6  and  C6_7 
REMARK    3  A    between atoms: C6_7  and  N2_8 
REMARK    4  A    between atoms: C6_7  and  C7_12 
ROOT
HETATM    1  C1  UNL     1      60.247  18.326  27.404  1.00  0.00     0.038 C 
HETATM    2  C2  UNL     1      60.420  17.370  28.302  1.00  0.00    -0.000 C 
HETATM    3  C3  UNL     1      60.848  17.825  29.665  1.00  0.00     0.100 C 
HETATM    4  C4  UNL     1      61.808  16.892  30.341  1.00  0.00     0.064 C 
HETATM    5  N1  UNL     1      62.640  17.515  31.284  1.00  0.00    -0.389 N 
HETATM    6  C8  UNL     1      62.350  17.276  32.663  1.00  0.00     0.149 C 
HETATM    7  C9  UNL     1      61.041  16.687  33.001  1.00  0.00     0.252 C 
HETATM    8  N3  UNL     1      61.101  15.233  33.231  1.00  0.00    -0.074 N 
ATOM      9  H31 UNL     1      61.592  15.016  34.098  1.00  0.00     0.277 HD
ATOM     10  H32 UNL     1      61.731  14.779  32.571  1.00  0.00     0.277 HD
HETATM   11  C10 UNL     1      59.794  14.629  33.206  1.00  0.00     0.234 C 
HETATM   12  C11 UNL     1      59.727  13.613  32.086  1.00  0.00     0.046 C 
HETATM   13  C12 UNL     1      58.514  13.811  31.190  1.00  0.00     0.115 C 
HETATM   14  N4  UNL     1      58.291  15.153  30.796  1.00  0.00    -0.420 N 
ATOM     15  H4  UNL     1      58.124  15.885  31.486  1.00  0.00     0.153 HD
HETATM   16  C13 UNL     1      58.308  15.441  29.402  1.00  0.00     0.133 C 
HETATM   17  C14 UNL     1      59.527  15.004  28.660  1.00  0.00     0.138 C 
HETATM   18  N5  UNL     1      60.206  16.046  27.929  1.00  0.00    -0.392 N 
ATOM     19  H5  UNL     1      60.578  15.778  27.018  1.00  0.00     0.159 HD
ENDROOT
BRANCH   5  20
HETATM   20  C5  UNL     1      64.043  17.538  31.088  1.00  0.00     0.165 C 
BRANCH  20  21
HETATM   21  C6  UNL     1      64.735  16.272  30.759  1.00  0.00     0.301 C 
BRANCH  21  22
HETATM   22  N2  UNL     1      63.825  15.171  30.612  1.00  0.00    -0.064 N 
ATOM     23  H23 UNL     1      63.253  15.053  31.448  1.00  0.00     0.275 HD
ATOM     24  H22 UNL     1      63.090  15.390  29.940  1.00  0.00     0.275 HD
ATOM     25  H21 UNL     1      64.300  14.302  30.366  1.00  0.00     0.275 HD
ENDBRANCH  21  22
BRANCH  21  26
HETATM   26  C7  UNL     1      65.657  15.892  31.884  1.00  0.00     0.206 C 
HETATM   27  O1  UNL     1      66.834  16.311  31.822  1.00  0.00    -0.646 OA
HETATM   28  O2  UNL     1      65.272  15.124  32.951  1.00  0.00    -0.646 OA
ENDBRANCH  21  26
ENDBRANCH  20  21
ENDBRANCH   5  20
TORSDOF 4
ENDMDL
MODEL 2
REMARK VINA RESULT: -7.001446449      3.448      5.682
REMARK  4 active torsions:
REMARK  status: ('A' for Active; 'I' for Inactive)
REMARK    1  A    between atoms: N1_5  and  C5_6 
REMARK    2  A    between atoms: C5_6  and  C6_7 
REMARK    3  A    between atoms: C6_7  and  N2_8 
REMARK    4  A    between atoms: C6_7  and  C7_12 
ROOT
HETATM    1  C1  UNL     1      64.462  18.079  30.689  1.00  0.00     0.038 C 
HETATM    2  C2  UNL     1      63.192  17.713  30.639  1.00  0.00    -0.000 C 
HETATM    3  C3  UNL     1      62.792  16.909  29.439  1.00  0.00     0.100 C 
HETATM    4  C4  UNL     1      61.412  17.215  28.937  1.00  0.00     0.064 C 
HETATM    5  N1  UNL     1      61.232  16.951  27.570  1.00  0.00    -0.389 N 
HETATM    6  C8  UNL     1      60.464  15.794  27.229  1.00  0.00     0.149 C 
HETATM    7  C9  UNL     1      60.205  14.801  28.288  1.00  0.00     0.252 C 
HETATM    8  N3  UNL     1      58.875  14.942  28.904  1.00  0.00    -0.074 N 
ATOM      9  H31 UNL     1      58.136  14.668  28.256  1.00  0.00     0.277 HD
ATOM     10  H32 UNL     1      58.626  15.923  29.026  1.00  0.00     0.277 HD
HETATM   11  C10 UNL     1      58.776  14.219  30.145  1.00  0.00     0.234 C 
HETATM   12  C11 UNL     1      58.487  15.186  31.273  1.00  0.00     0.046 C 
HETATM   13  C12 UNL     1      59.439  15.014  32.447  1.00  0.00     0.115 C 
HETATM   14  N4  UNL     1      60.802  14.906  32.083  1.00  0.00    -0.420 N 
ATOM     15  H4  UNL     1      61.130  14.155  31.477  1.00  0.00     0.153 HD
HETATM   16  C13 UNL     1      61.700  15.886  32.596  1.00  0.00     0.133 C 
HETATM   17  C14 UNL     1      61.328  17.309  32.340  1.00  0.00     0.138 C 
HETATM   18  N5  UNL     1      62.337  18.094  31.670  1.00  0.00    -0.392 N 
ATOM     19  H5  UNL     1      62.438  19.055  31.995  1.00  0.00     0.159 HD
ENDROOT
BRANCH   5  20
HETATM   20  C5  UNL     1      60.927  18.007  26.677  1.00  0.00     0.165 C 
BRANCH  20  21
HETATM   21  C6  UNL     1      59.507  18.359  26.453  1.00  0.00     0.301 C 
BRANCH  21  22
HETATM   22  N2  UNL     1      59.057  18.017  25.133  1.00  0.00    -0.064 N 
ATOM     23  H23 UNL     1      59.714  18.345  24.425  1.00  0.00     0.275 HD
ATOM     24  H22 UNL     1      59.128  17.013  24.970  1.00  0.00     0.275 HD
ATOM     25  H21 UNL     1      58.114  18.354  24.942  1.00  0.00     0.275 HD
ENDBRANCH  21  22
BRANCH  21  26
HETATM   26  C7  UNL     1      59.330  19.847  26.572  1.00  0.00     0.206 C 
HETATM   27  O1  UNL     1      60.130  20.458  27.314  1.00  0.00    -0.646 OA
HETATM   28  O2  UNL     1      58.352  20.547  25.916  1.00  0.00    -0.646 OA
ENDBRANCH  21  26
ENDBRANCH  20  21
ENDBRANCH   5  20
TORSDOF 4
ENDMDL
MODEL 3
REMARK VINA RESULT: -6.284523886      1.131      1.176
REMARK  4 active torsions:
REMARK  status: ('A' for Active; 'I' for Inactive)
REMARK    1  A    between atoms: N1_5  and  C5_6 
REMARK    2  A    between atoms: C5_6  and  C6_7 
REMARK    3  A    between atoms: C6_7  and  N2_8 
REMARK    4  A    between atoms: C6_7  and  C7_12 
ROOT
HETATM    1  C1  UNL     1      60.609  18.441  27.413  1.00  0.00     0.038 C 
HETATM    2  C2  UNL     1      60.707  17.468  28.304  1.00  0.00    -0.000 C 
HETATM    3  C3  UNL     1      61.194  17.875  29.662  1.00  0.00     0.100 C 
HETATM    4  C4  UNL     1      62.073  16.853  30.320  1.00  0.00     0.064 C 
HETATM    5  N1  UNL     1      62.972  17.392  31.254  1.00  0.00    -0.389 N 
HETATM    6  C8  UNL     1      62.679  17.174  32.636  1.00  0.00     0.149 C 
HETATM    7  C9  UNL     1      61.327  16.705  32.990  1.00  0.00     0.252 C 
HETATM    8  N3  UNL     1      61.256  15.251  33.213  1.00  0.00    -0.074 N 
ATOM      9  H31 UNL     1      61.737  14.984  34.073  1.00  0.00     0.277 HD
ATOM     10  H32 UNL     1      61.833  14.745  32.542  1.00  0.00     0.277 HD
HETATM   11  C10 UNL     1      59.899  14.769  33.204  1.00  0.00     0.234 C 
HETATM   12  C11 UNL     1      59.723  13.770  32.082  1.00  0.00     0.046 C 
HETATM   13  C12 UNL     1      58.521  14.084  31.203  1.00  0.00     0.115 C 
HETATM   14  N4  UNL     1      58.417  15.442  30.818  1.00  0.00    -0.420 N 
ATOM     15  H4  UNL     1      58.328  16.183  31.513  1.00  0.00     0.153 HD
HETATM   16  C13 UNL     1      58.442  15.735  29.425  1.00  0.00     0.133 C 
HETATM   17  C14 UNL     1      59.604  15.192  28.664  1.00  0.00     0.138 C 
HETATM   18  N5  UNL     1      60.366  16.171  27.928  1.00  0.00    -0.392 N 
ATOM     19  H5  UNL     1      60.699  15.875  27.011  1.00  0.00     0.159 HD
ENDROOT
BRANCH   5  20
HETATM   20  C5  UNL     1      64.367  17.288  31.038  1.00  0.00     0.165 C 
BRANCH  20  21
HETATM   21  C6  UNL     1      65.132  16.283  31.811  1.00  0.00     0.301 C 
BRANCH  21  22
HETATM   22  N2  UNL     1      66.544  16.540  31.802  1.00  0.00    -0.064 N 
ATOM     23  H23 UNL     1      67.058  15.751  31.410  1.00  0.00     0.275 HD
ATOM     24  H22 UNL     1      66.783  17.251  31.110  1.00  0.00     0.275 HD
ATOM     25  H21 UNL     1      66.901  16.790  32.724  1.00  0.00     0.275 HD
ENDBRANCH  21  22
BRANCH  21  26
HETATM   26  C7  UNL     1      64.959  14.926  31.187  1.00  0.00     0.206 C 
HETATM   27  O1  UNL     1      65.950  14.163  31.199  1.00  0.00    -0.646 OA
HETATM   28  O2  UNL     1      63.789  14.498  30.619  1.00  0.00    -0.646 OA
ENDBRANCH  21  26
ENDBRANCH  20  21
ENDBRANCH   5  20
TORSDOF 4
ENDMDL
MODEL 4
REMARK VINA RESULT: -5.406906804      3.578      5.666
REMARK  4 active torsions:
REMARK  status: ('A' for Active; 'I' for Inactive)
REMARK    1  A    between atoms: N1_5  and  C5_6 
REMARK    2  A    between atoms: C5_6  and  C6_7 
REMARK    3  A    between atoms: C6_7  and  N2_8 
REMARK    4  A    between atoms: C6_7  and  C7_12 
ROOT
HETATM    1  C1  UNL     1      64.498  18.066  30.695  1.00  0.00     0.038 C 
HETATM    2  C2  UNL     1      63.228  17.700  30.644  1.00  0.00    -0.000 C 
HETATM    3  C3  UNL     1      62.836  16.868  29.461  1.00  0.00     0.100 C 
HETATM    4  C4  UNL     1      61.459  17.163  28.943  1.00  0.00     0.064 C 
HETATM    5  N1  UNL     1      61.288  16.867  27.581  1.00  0.00    -0.389 N 
HETATM    6  C8  UNL     1      60.521  15.703  27.263  1.00  0.00     0.149 C 
HETATM    7  C9  UNL     1      60.253  14.736  28.343  1.00  0.00     0.252 C 
HETATM    8  N3  UNL     1      58.919  14.894  28.947  1.00  0.00    -0.074 N 
ATOM      9  H31 UNL     1      58.184  14.605  28.301  1.00  0.00     0.277 HD
ATOM     10  H32 UNL     1      58.670  15.878  29.044  1.00  0.00     0.277 HD
HETATM   11  C10 UNL     1      58.810  14.201  30.205  1.00  0.00     0.234 C 
HETATM   12  C11 UNL     1      58.516  15.195  31.307  1.00  0.00     0.046 C 
HETATM   13  C12 UNL     1      59.459  15.050  32.491  1.00  0.00     0.115 C 
HETATM   14  N4  UNL     1      60.825  14.932  32.139  1.00  0.00    -0.420 N 
ATOM     15  H4  UNL     1      61.156  14.166  31.554  1.00  0.00     0.153 HD
HETATM   16  C13 UNL     1      61.720  15.923  32.634  1.00  0.00     0.133 C 
HETATM   17  C14 UNL     1      61.352  17.339  32.341  1.00  0.00     0.138 C 
HETATM   18  N5  UNL     1      62.367  18.107  31.660  1.00  0.00    -0.392 N 
ATOM     19  H5  UNL     1      62.467  19.075  31.963  1.00  0.00     0.159 HD
ENDROOT
BRANCH   5  20
HETATM   20  C5  UNL     1      60.990  17.902  26.661  1.00  0.00     0.165 C 
BRANCH  20  21
HETATM   21  C6  UNL     1      60.210  19.068  27.132  1.00  0.00     0.301 C 
BRANCH  21  22
HETATM   22  N2  UNL     1      59.472  18.787  28.331  1.00  0.00    -0.064 N 
ATOM     23  H23 UNL     1      59.107  19.644  28.746  1.00  0.00     0.275 HD
ATOM     24  H22 UNL     1      58.591  18.320  28.119  1.00  0.00     0.275 HD
ATOM     25  H21 UNL     1      60.018  18.254  29.009  1.00  0.00     0.275 HD
ENDBRANCH  21  22
BRANCH  21  26
HETATM   26  C7  UNL     1      59.184  19.440  26.098  1.00  0.00     0.206 C 
HETATM   27  O1  UNL     1      58.988  18.625  25.170  1.00  0.00    -0.646 OA
HETATM   28  O2  UNL     1      58.469  20.609  26.129  1.00  0.00    -0.646 OA
ENDBRANCH  21  26
ENDBRANCH  20  21
ENDBRANCH   5  20
TORSDOF 4
ENDMDL
MODEL 5
REMARK VINA RESULT: -5.216117987      3.688      5.775
REMARK  4 active torsions:
REMARK  status: ('A' for Active; 'I' for Inactive)
REMARK    1  A    between atoms: N1_5  and  C5_6 
REMARK    2  A    between atoms: C5_6  and  C6_7 
REMARK    3  A    between atoms: C6_7  and  N2_8 
REMARK    4  A    between atoms: C6_7  and  C7_12 
ROOT
HETATM    1  C1  UNL     1      63.828  18.308  31.201  1.00  0.00     0.038 C 
HETATM    2  C2  UNL     1      62.619  17.773  31.260  1.00  0.00    -0.000 C 
HETATM    3  C3  UNL     1      62.076  17.247  29.966  1.00  0.00     0.100 C 
HETATM    4  C4  UNL     1      60.599  17.451  29.802  1.00  0.00     0.064 C 
HETATM    5  N1  UNL     1      60.178  17.517  28.464  1.00  0.00    -0.389 N 
HETATM    6  C8  UNL     1      59.485  16.379  27.946  1.00  0.00     0.149 C 
HETATM    7  C9  UNL     1      59.548  15.123  28.716  1.00  0.00     0.252 C 
HETATM    8  N3  UNL     1      58.360  14.896  29.556  1.00  0.00    -0.074 N 
ATOM      9  H31 UNL     1      57.540  14.683  28.988  1.00  0.00     0.277 HD
ATOM     10  H32 UNL     1      58.038  15.763  29.985  1.00  0.00     0.277 HD
HETATM   11  C10 UNL     1      58.587  13.876  30.548  1.00  0.00     0.234 C 
HETATM   12  C11 UNL     1      58.429  14.470  31.930  1.00  0.00     0.046 C 
HETATM   13  C12 UNL     1      59.609  14.156  32.839  1.00  0.00     0.115 C 
HETATM   14  N4  UNL     1      60.876  14.357  32.241  1.00  0.00    -0.420 N 
ATOM     15  H4  UNL     1      61.154  13.843  31.405  1.00  0.00     0.153 HD
HETATM   16  C13 UNL     1      61.749  15.303  32.851  1.00  0.00     0.133 C 
HETATM   17  C14 UNL     1      61.186  16.668  33.063  1.00  0.00     0.138 C 
HETATM   18  N5  UNL     1      61.952  17.744  32.482  1.00  0.00    -0.392 N 
ATOM     19  H5  UNL     1      62.014  18.595  33.040  1.00  0.00     0.159 HD
ENDROOT
BRANCH   5  20
HETATM   20  C5  UNL     1      59.592  18.704  27.961  1.00  0.00     0.165 C 
BRANCH  20  21
HETATM   21  C6  UNL     1      60.134  19.290  26.715  1.00  0.00     0.301 C 
BRANCH  21  22
HETATM   22  N2  UNL     1      60.296  20.714  26.804  1.00  0.00    -0.064 N 
ATOM     23  H23 UNL     1      59.395  21.181  26.905  1.00  0.00     0.275 HD
ATOM     24  H22 UNL     1      60.719  20.981  27.692  1.00  0.00     0.275 HD
ATOM     25  H21 UNL     1      60.821  21.097  26.017  1.00  0.00     0.275 HD
ENDBRANCH  21  22
BRANCH  21  26
HETATM   26  C7  UNL     1      59.171  19.058  25.585  1.00  0.00     0.206 C 
HETATM   27  O1  UNL     1      58.342  19.964  25.348  1.00  0.00    -0.646 OA
HETATM   28  O2  UNL     1      59.162  17.922  24.820  1.00  0.00    -0.646 OA
ENDBRANCH  21  26
ENDBRANCH  20  21
ENDBRANCH   5  20
TORSDOF 4
ENDMDL
