MODEL 1
REMARK VINA RESULT: -6.905825921      0.000      0.000
REMARK  5 active torsions:
REMARK  status: ('A' for Active; 'I' for Inactive)
REMARK    1  A    between atoms: C5_5  and  N1_6 
REMARK       I    between atoms: N1_6  and  C6_8 
REMARK    2  A    between atoms: C6_8  and  O2_10 
REMARK    3  A    between atoms: O2_10  and  C7_11 
REMARK    4  A    between atoms: C7_11  and  C8_12 
REMARK    5  A    between atoms: N4_23  and  O3_24 
ROOT
HETATM    1  N1  UNL     1      13.060  16.678  20.844  1.00  0.00    -0.332 N 
ATOM      2  H1  UNL     1      13.725  15.971  21.157  1.00  0.00     0.165 HD
HETATM    3  C6  UNL     1      12.226  17.333  21.816  1.00  0.00     0.361 C 
HETATM    4  O1  UNL     1      11.395  18.207  21.464  1.00  0.00    -0.238 OA
ENDROOT
BRANCH   1   5
HETATM    5  C5  UNL     1      12.981  16.993  19.438  1.00  0.00     0.090 C 
HETATM    6  C4  UNL     1      14.260  17.588  18.960  1.00  0.00     0.052 C 
HETATM    7  C2  UNL     1      15.012  16.788  17.961  1.00  0.00     0.034 C 
HETATM    8  C1  UNL     1      16.019  17.733  17.290  1.00  0.00     0.034 C 
HETATM    9  C3  UNL     1      15.871  15.771  18.720  1.00  0.00     0.034 C 
HETATM   10  N4  UNL     1      14.243  16.192  16.927  1.00  0.00    -0.182 NA
HETATM   11  C12 UNL     1      12.850  16.060  17.180  1.00  0.00     0.034 C 
HETATM   12  C11 UNL     1      12.519  15.805  18.627  1.00  0.00     0.052 C 
HETATM   13  C13 UNL     1      12.160  17.317  16.672  1.00  0.00     0.034 C 
HETATM   14  C14 UNL     1      12.301  14.904  16.360  1.00  0.00     0.034 C 
BRANCH  10  15
HETATM   15  O3  UNL     1      14.809  15.090  16.396  1.00  0.00    -0.312 OA
ATOM     16  H3  UNL     1      14.854  15.102  15.448  1.00  0.00     0.237 HD
ENDBRANCH  10  15
ENDBRANCH   1   5
BRANCH   3  17
HETATM   17  O2  UNL     1      12.308  17.025  23.164  1.00  0.00    -0.297 OA
BRANCH  17  18
HETATM   18  C7  UNL     1      13.384  16.308  23.730  1.00  0.00     0.256 C 
BRANCH  18  19
HETATM   19  C8  UNL     1      14.633  17.137  23.748  1.00  0.00     0.097 C 
HETATM   20  N2  UNL     1      14.885  18.165  24.473  1.00  0.00    -0.377 N 
HETATM   21  C9  UNL     1      16.197  18.668  24.183  1.00  0.00     0.140 C 
ATOM     22  H2  UNL     1      14.245  18.566  25.159  1.00  0.00     0.160 HD
HETATM   23  C10 UNL     1      16.881  17.532  23.491  1.00  0.00     0.140 C 
HETATM   24  N3  UNL     1      15.736  16.837  22.905  1.00  0.00    -0.377 N 
ATOM     25  H3  UNL     1      15.731  16.258  22.066  1.00  0.00     0.160 HD
ENDBRANCH  18  19
ENDBRANCH  17  18
ENDBRANCH   3  17
TORSDOF 5
ENDMDL
MODEL 2
REMARK VINA RESULT: -6.692985078      2.413      3.871
REMARK  5 active torsions:
REMARK  status: ('A' for Active; 'I' for Inactive)
REMARK    1  A    between atoms: C5_5  and  N1_6 
REMARK       I    between atoms: N1_6  and  C6_8 
REMARK    2  A    between atoms: C6_8  and  O2_10 
REMARK    3  A    between atoms: O2_10  and  C7_11 
REMARK    4  A    between atoms: C7_11  and  C8_12 
REMARK    5  A    between atoms: N4_23  and  O3_24 
ROOT
HETATM    1  N1  UNL     1      15.315  17.458  18.502  1.00  0.00    -0.332 N 
ATOM      2  H1  UNL     1      14.534  17.922  18.965  1.00  0.00     0.165 HD
HETATM    3  C6  UNL     1      16.570  17.344  19.195  1.00  0.00     0.361 C 
HETATM    4  O1  UNL     1      17.553  16.780  18.653  1.00  0.00    -0.238 OA
ENDROOT
BRANCH   1   5
HETATM    5  C5  UNL     1      15.130  16.932  17.171  1.00  0.00     0.090 C 
HETATM    6  C4  UNL     1      14.113  15.845  17.171  1.00  0.00     0.052 C 
HETATM    7  C2  UNL     1      12.868  16.123  16.412  1.00  0.00     0.034 C 
HETATM    8  C1  UNL     1      12.176  14.775  16.168  1.00  0.00     0.034 C 
HETATM    9  C3  UNL     1      11.915  16.894  17.334  1.00  0.00     0.034 C 
HETATM   10  N4  UNL     1      13.030  16.747  15.148  1.00  0.00    -0.182 NA
HETATM   11  C12 UNL     1      14.269  17.409  14.931  1.00  0.00     0.034 C 
HETATM   12  C11 UNL     1      14.849  18.032  16.174  1.00  0.00     0.052 C 
HETATM   13  C13 UNL     1      15.235  16.406  14.317  1.00  0.00     0.034 C 
HETATM   14  C14 UNL     1      14.074  18.508  13.899  1.00  0.00     0.034 C 
BRANCH  10  15
HETATM   15  O3  UNL     1      11.954  17.457  14.751  1.00  0.00    -0.312 OA
ATOM     16  H3  UNL     1      11.224  17.416  15.357  1.00  0.00     0.237 HD
ENDBRANCH  10  15
ENDBRANCH   1   5
BRANCH   3  17
HETATM   17  O2  UNL     1      16.740  17.851  20.472  1.00  0.00    -0.297 OA
BRANCH  17  18
HETATM   18  C7  UNL     1      16.950  17.037  21.606  1.00  0.00     0.256 C 
BRANCH  18  19
HETATM   19  C8  UNL     1      15.689  16.888  22.404  1.00  0.00     0.097 C 
HETATM   20  N2  UNL     1      14.502  16.680  21.965  1.00  0.00    -0.377 N 
HETATM   21  C9  UNL     1      13.575  16.601  23.058  1.00  0.00     0.140 C 
ATOM     22  H2  UNL     1      14.251  16.583  20.981  1.00  0.00     0.160 HD
HETATM   23  C10 UNL     1      14.440  16.350  24.254  1.00  0.00     0.140 C 
HETATM   24  N3  UNL     1      15.692  16.966  23.822  1.00  0.00    -0.377 N 
ATOM     25  H3  UNL     1      16.418  17.368  24.415  1.00  0.00     0.160 HD
ENDBRANCH  18  19
ENDBRANCH  17  18
ENDBRANCH   3  17
TORSDOF 5
ENDMDL
MODEL 3
REMARK VINA RESULT: -6.558150433      1.046      1.215
REMARK  5 active torsions:
REMARK  status: ('A' for Active; 'I' for Inactive)
REMARK    1  A    between atoms: C5_5  and  N1_6 
REMARK       I    between atoms: N1_6  and  C6_8 
REMARK    2  A    between atoms: C6_8  and  O2_10 
REMARK    3  A    between atoms: O2_10  and  C7_11 
REMARK    4  A    between atoms: C7_11  and  C8_12 
REMARK    5  A    between atoms: N4_23  and  O3_24 
ROOT
HETATM    1  N1  UNL     1      13.924  16.197  20.832  1.00  0.00    -0.332 N 
ATOM      2  H1  UNL     1      14.782  15.649  20.880  1.00  0.00     0.165 HD
HETATM    3  C6  UNL     1      13.287  16.607  22.055  1.00  0.00     0.361 C 
HETATM    4  O1  UNL     1      12.227  17.282  22.032  1.00  0.00    -0.238 OA
ENDROOT
BRANCH   1   5
HETATM    5  C5  UNL     1      13.382  16.541  19.540  1.00  0.00     0.090 C 
HETATM    6  C4  UNL     1      14.291  17.475  18.819  1.00  0.00     0.052 C 
HETATM    7  C2  UNL     1      14.906  16.949  17.576  1.00  0.00     0.034 C 
HETATM    8  C1  UNL     1      15.423  18.156  16.781  1.00  0.00     0.034 C 
HETATM    9  C3  UNL     1      16.165  16.165  17.966  1.00  0.00     0.034 C 
HETATM   10  N4  UNL     1      14.050  16.215  16.714  1.00  0.00    -0.182 NA
HETATM   11  C12 UNL     1      12.860  15.706  17.300  1.00  0.00     0.034 C 
HETATM   12  C11 UNL     1      13.017  15.309  18.745  1.00  0.00     0.052 C 
HETATM   13  C13 UNL     1      11.769  16.754  17.134  1.00  0.00     0.034 C 
HETATM   14  C14 UNL     1      12.404  14.482  16.522  1.00  0.00     0.034 C 
BRANCH  10  15
HETATM   15  O3  UNL     1      14.698  15.327  15.932  1.00  0.00    -0.312 OA
ATOM     16  H3  UNL     1      14.965  15.681  15.093  1.00  0.00     0.237 HD
ENDBRANCH  10  15
ENDBRANCH   1   5
BRANCH   3  17
HETATM   17  O2  UNL     1      13.813  16.274  23.292  1.00  0.00    -0.297 OA
BRANCH  17  18
HETATM   18  C7  UNL     1      14.467  17.202  24.131  1.00  0.00     0.256 C 
BRANCH  18  19
HETATM   19  C8  UNL     1      15.927  17.291  23.800  1.00  0.00     0.097 C 
HETATM   20  N2  UNL     1      16.918  16.867  24.496  1.00  0.00    -0.377 N 
HETATM   21  C9  UNL     1      18.154  17.150  23.824  1.00  0.00     0.140 C 
ATOM     22  H2  UNL     1      16.839  16.396  25.398  1.00  0.00     0.160 HD
HETATM   23  C10 UNL     1      17.749  17.412  22.408  1.00  0.00     0.140 C 
HETATM   24  N3  UNL     1      16.382  17.892  22.596  1.00  0.00    -0.377 N 
ATOM     25  H3  UNL     1      15.862  18.527  21.990  1.00  0.00     0.160 HD
ENDBRANCH  18  19
ENDBRANCH  17  18
ENDBRANCH   3  17
TORSDOF 5
ENDMDL
MODEL 4
REMARK VINA RESULT: -6.557930145      2.552      4.065
REMARK  5 active torsions:
REMARK  status: ('A' for Active; 'I' for Inactive)
REMARK    1  A    between atoms: C5_5  and  N1_6 
REMARK       I    between atoms: N1_6  and  C6_8 
REMARK    2  A    between atoms: C6_8  and  O2_10 
REMARK    3  A    between atoms: O2_10  and  C7_11 
REMARK    4  A    between atoms: C7_11  and  C8_12 
REMARK    5  A    between atoms: N4_23  and  O3_24 
ROOT
HETATM    1  N1  UNL     1      16.308  17.892  18.761  1.00  0.00    -0.332 N 
ATOM      2  H1  UNL     1      15.768  18.483  19.392  1.00  0.00     0.165 HD
HETATM    3  C6  UNL     1      17.743  17.887  18.863  1.00  0.00     0.361 C 
HETATM    4  O1  UNL     1      18.439  17.172  18.100  1.00  0.00    -0.238 OA
ENDROOT
BRANCH   1   5
HETATM    5  C5  UNL     1      15.612  17.083  17.789  1.00  0.00     0.090 C 
HETATM    6  C4  UNL     1      15.191  15.787  18.389  1.00  0.00     0.052 C 
HETATM    7  C2  UNL     1      13.728  15.567  18.494  1.00  0.00     0.034 C 
HETATM    8  C1  UNL     1      13.510  14.063  18.708  1.00  0.00     0.034 C 
HETATM    9  C3  UNL     1      13.244  16.224  19.793  1.00  0.00     0.034 C 
HETATM   10  N4  UNL     1      12.953  15.948  17.368  1.00  0.00    -0.182 NA
HETATM   11  C12 UNL     1      13.567  16.859  16.465  1.00  0.00     0.034 C 
HETATM   12  C11 UNL     1      14.486  17.848  17.134  1.00  0.00     0.052 C 
HETATM   13  C13 UNL     1      14.306  16.048  15.411  1.00  0.00     0.034 C 
HETATM   14  C14 UNL     1      12.488  17.639  15.732  1.00  0.00     0.034 C 
BRANCH  10  15
HETATM   15  O3  UNL     1      11.674  16.253  17.666  1.00  0.00    -0.312 OA
ATOM     16  H3  UNL     1      11.060  15.553  17.476  1.00  0.00     0.237 HD
ENDBRANCH  10  15
ENDBRANCH   1   5
BRANCH   3  17
HETATM   17  O2  UNL     1      18.404  18.666  19.798  1.00  0.00    -0.297 OA
BRANCH  17  18
HETATM   18  C7  UNL     1      19.163  18.125  20.858  1.00  0.00     0.256 C 
BRANCH  18  19
HETATM   19  C8  UNL     1      18.299  17.844  22.051  1.00  0.00     0.097 C 
HETATM   20  N2  UNL     1      18.556  17.074  23.045  1.00  0.00    -0.377 N 
HETATM   21  C9  UNL     1      17.464  17.082  23.975  1.00  0.00     0.140 C 
ATOM     22  H2  UNL     1      19.414  16.534  23.158  1.00  0.00     0.160 HD
HETATM   23  C10 UNL     1      16.690  18.313  23.621  1.00  0.00     0.140 C 
HETATM   24  N3  UNL     1      17.024  18.451  22.205  1.00  0.00    -0.377 N 
ATOM     25  H3  UNL     1      16.459  18.891  21.479  1.00  0.00     0.160 HD
ENDBRANCH  18  19
ENDBRANCH  17  18
ENDBRANCH   3  17
TORSDOF 5
ENDMDL
MODEL 5
REMARK VINA RESULT: -6.533030954      3.359      5.073
REMARK  5 active torsions:
REMARK  status: ('A' for Active; 'I' for Inactive)
REMARK    1  A    between atoms: C5_5  and  N1_6 
REMARK       I    between atoms: N1_6  and  C6_8 
REMARK    2  A    between atoms: C6_8  and  O2_10 
REMARK    3  A    between atoms: O2_10  and  C7_11 
REMARK    4  A    between atoms: C7_11  and  C8_12 
REMARK    5  A    between atoms: N4_23  and  O3_24 
ROOT
HETATM    1  N1  UNL     1      15.917  17.982  17.054  1.00  0.00    -0.332 N 
ATOM      2  H1  UNL     1      15.744  18.360  17.985  1.00  0.00     0.165 HD
HETATM    3  C6  UNL     1      17.042  18.466  16.300  1.00  0.00     0.361 C 
HETATM    4  O1  UNL     1      17.282  18.022  15.149  1.00  0.00    -0.238 OA
ENDROOT
BRANCH   1   5
HETATM    5  C5  UNL     1      15.026  16.975  16.530  1.00  0.00     0.090 C 
HETATM    6  C4  UNL     1      14.833  15.877  17.518  1.00  0.00     0.052 C 
HETATM    7  C2  UNL     1      13.459  15.726  18.057  1.00  0.00     0.034 C 
HETATM    8  C1  UNL     1      13.369  14.327  18.682  1.00  0.00     0.034 C 
HETATM    9  C3  UNL     1      13.305  16.695  19.236  1.00  0.00     0.034 C 
HETATM   10  N4  UNL     1      12.400  15.836  17.118  1.00  0.00    -0.182 NA
HETATM   11  C12 UNL     1      12.717  16.480  15.891  1.00  0.00     0.034 C 
HETATM   12  C11 UNL     1      13.735  17.581  16.030  1.00  0.00     0.052 C 
HETATM   13  C13 UNL     1      13.187  15.416  14.910  1.00  0.00     0.034 C 
HETATM   14  C14 UNL     1      11.451  17.080  15.301  1.00  0.00     0.034 C 
BRANCH  10  15
HETATM   15  O3  UNL     1      11.232  16.235  17.660  1.00  0.00    -0.312 OA
ATOM     16  H3  UNL     1      10.584  16.500  17.018  1.00  0.00     0.237 HD
ENDBRANCH  10  15
ENDBRANCH   1   5
BRANCH   3  17
HETATM   17  O2  UNL     1      17.892  19.433  16.809  1.00  0.00    -0.297 OA
BRANCH  17  18
HETATM   18  C7  UNL     1      19.111  19.129  17.455  1.00  0.00     0.256 C 
BRANCH  18  19
HETATM   19  C8  UNL     1      18.868  18.552  18.818  1.00  0.00     0.097 C 
HETATM   20  N2  UNL     1      18.892  19.163  19.946  1.00  0.00    -0.377 N 
HETATM   21  C9  UNL     1      18.607  18.247  21.013  1.00  0.00     0.140 C 
ATOM     22  H2  UNL     1      19.085  20.157  20.067  1.00  0.00     0.160 HD
HETATM   23  C10 UNL     1      17.970  17.077  20.332  1.00  0.00     0.140 C 
HETATM   24  N3  UNL     1      18.564  17.177  19.000  1.00  0.00    -0.377 N 
ATOM     25  H3  UNL     1      18.726  16.417  18.339  1.00  0.00     0.160 HD
ENDBRANCH  18  19
ENDBRANCH  17  18
ENDBRANCH   3  17
TORSDOF 5
ENDMDL
