MODEL 1
REMARK VINA RESULT: -8.035599669      0.000      0.000
REMARK  8 active torsions:
REMARK  status: ('A' for Active; 'I' for Inactive)
REMARK    1  A    between atoms: C3_3  and  C4_4 
REMARK    2  A    between atoms: C4_4  and  O1_5 
REMARK    3  A    between atoms: N1_7  and  O2_9 
REMARK    4  A    between atoms: C5_11  and  C6_12 
REMARK    5  A    between atoms: C9_15  and  O3_16 
REMARK    6  A    between atoms: O3_16  and  O4_17 
REMARK    7  A    between atoms: C12_21  and  O5_23 
REMARK    8  A    between atoms: N2_25  and  O6_26 
ROOT
HETATM    1  C1  UNL     1      14.614  14.978  15.511  1.00  0.00     0.029 C 
HETATM    2  C2  UNL     1      14.164  16.164  16.289  1.00  0.00     0.098 C 
HETATM    3  C3  UNL     1      14.242  15.899  17.822  1.00  0.00     0.094 C 
HETATM    4  C5  UNL     1      13.539  17.108  18.291  1.00  0.00     0.083 C 
HETATM    5  C12 UNL     1      12.413  17.252  17.263  1.00  0.00     0.141 C 
HETATM    6  C13 UNL     1      12.505  18.643  16.666  1.00  0.00     0.067 C 
HETATM    7  N2  UNL     1      12.698  16.306  16.200  1.00  0.00    -0.159 NA
ENDROOT
BRANCH   4   8
HETATM    8  C6  UNL     1      13.077  17.179  19.662  1.00  0.00    -0.049 A 
HETATM    9  C7  UNL     1      11.926  17.765  20.132  1.00  0.00     0.010 A 
HETATM   10  C8  UNL     1      11.604  17.771  21.475  1.00  0.00     0.040 A 
HETATM   11  C9  UNL     1      12.421  17.187  22.422  1.00  0.00     0.106 A 
HETATM   12  C10 UNL     1      13.574  16.597  21.963  1.00  0.00     0.040 A 
HETATM   13  C11 UNL     1      13.899  16.588  20.634  1.00  0.00     0.010 A 
BRANCH  11  14
HETATM   14  O3  UNL     1      12.114  17.184  23.773  1.00  0.00    -0.200 OA
BRANCH  14  15
HETATM   15  O4  UNL     1      12.803  17.930  24.633  1.00  0.00    -0.245 OA
ATOM     16  H4  UNL     1      13.404  18.598  24.327  1.00  0.00     0.254 HD
ENDBRANCH  14  15
ENDBRANCH  11  14
ENDBRANCH   4   8
BRANCH   3  17
HETATM   17  C4  UNL     1      13.590  14.603  18.069  1.00  0.00     0.141 C 
HETATM   18  N1  UNL     1      14.321  13.621  18.553  1.00  0.00    -0.251 N 
ATOM     19  H1  UNL     1      13.873  12.721  18.725  1.00  0.00     0.196 HD
BRANCH  17  20
HETATM   20  O1  UNL     1      12.280  14.284  17.845  1.00  0.00    -0.348 OA
ATOM     21  H1  UNL     1      11.877  13.428  17.930  1.00  0.00     0.219 HD
ENDBRANCH  17  20
BRANCH  18  22
HETATM   22  O2  UNL     1      15.640  13.748  18.835  1.00  0.00    -0.288 OA
ATOM     23  H2  UNL     1      16.297  13.132  18.536  1.00  0.00     0.244 HD
ENDBRANCH  18  22
ENDBRANCH   3  17
BRANCH   5  24
HETATM   24  O5  UNL     1      11.195  16.966  17.815  1.00  0.00    -0.373 OA
ATOM     25  H5  UNL     1      10.585  16.644  17.161  1.00  0.00     0.212 HD
ENDBRANCH   5  24
BRANCH   7  26
HETATM   26  O6  UNL     1      12.347  16.799  14.989  1.00  0.00    -0.310 OA
ATOM     27  H6  UNL     1      12.570  17.721  14.932  1.00  0.00     0.237 HD
ENDBRANCH   7  26
TORSDOF 8
ENDMDL
MODEL 2
REMARK VINA RESULT: -7.959859082      1.738      2.339
REMARK  8 active torsions:
REMARK  status: ('A' for Active; 'I' for Inactive)
REMARK    1  A    between atoms: C3_3  and  C4_4 
REMARK    2  A    between atoms: C4_4  and  O1_5 
REMARK    3  A    between atoms: N1_7  and  O2_9 
REMARK    4  A    between atoms: C5_11  and  C6_12 
REMARK    5  A    between atoms: C9_15  and  O3_16 
REMARK    6  A    between atoms: O3_16  and  O4_17 
REMARK    7  A    between atoms: C12_21  and  O5_23 
REMARK    8  A    between atoms: N2_25  and  O6_26 
ROOT
HETATM    1  C1  UNL     1      15.790  16.861  15.515  1.00  0.00     0.029 C 
HETATM    2  C2  UNL     1      14.514  16.988  16.270  1.00  0.00     0.098 C 
HETATM    3  C3  UNL     1      14.772  17.374  17.757  1.00  0.00     0.094 C 
HETATM    4  C5  UNL     1      13.401  17.195  18.272  1.00  0.00     0.083 C 
HETATM    5  C12 UNL     1      12.935  15.936  17.535  1.00  0.00     0.141 C 
HETATM    6  C13 UNL     1      11.645  16.271  16.813  1.00  0.00     0.067 C 
HETATM    7  N2  UNL     1      13.937  15.654  16.523  1.00  0.00    -0.159 NA
ENDROOT
BRANCH   4   8
HETATM    8  C6  UNL     1      13.177  17.139  19.702  1.00  0.00    -0.049 A 
HETATM    9  C7  UNL     1      13.983  16.572  20.659  1.00  0.00     0.010 A 
HETATM   10  C8  UNL     1      13.647  16.580  21.998  1.00  0.00     0.040 A 
HETATM   11  C9  UNL     1      12.479  17.160  22.452  1.00  0.00     0.106 A 
HETATM   12  C10 UNL     1      11.664  17.732  21.504  1.00  0.00     0.040 A 
HETATM   13  C11 UNL     1      11.993  17.727  20.175  1.00  0.00     0.010 A 
BRANCH  11  14
HETATM   14  O3  UNL     1      12.125  17.177  23.791  1.00  0.00    -0.200 OA
BRANCH  14  15
HETATM   15  O4  UNL     1      12.777  17.945  24.661  1.00  0.00    -0.245 OA
ATOM     16  H4  UNL     1      12.626  17.861  25.595  1.00  0.00     0.254 HD
ENDBRANCH  14  15
ENDBRANCH  11  14
ENDBRANCH   4   8
BRANCH   3  17
HETATM   17  C4  UNL     1      15.807  16.461  18.266  1.00  0.00     0.141 C 
HETATM   18  N1  UNL     1      16.952  16.976  18.662  1.00  0.00    -0.251 N 
ATOM     19  H1  UNL     1      17.672  16.346  19.014  1.00  0.00     0.196 HD
BRANCH  17  20
HETATM   20  O1  UNL     1      15.723  15.101  18.378  1.00  0.00    -0.348 OA
ATOM     21  H1  UNL     1      16.123  14.555  19.045  1.00  0.00     0.219 HD
ENDBRANCH  17  20
BRANCH  18  22
HETATM   22  O2  UNL     1      17.220  18.303  18.623  1.00  0.00    -0.288 OA
ATOM     23  H2  UNL     1      16.902  18.917  19.275  1.00  0.00     0.244 HD
ENDBRANCH  18  22
ENDBRANCH   3  17
BRANCH   5  24
HETATM   24  O5  UNL     1      12.833  14.870  18.386  1.00  0.00    -0.373 OA
ATOM     25  H5  UNL     1      12.054  14.357  18.206  1.00  0.00     0.212 HD
ENDBRANCH   5  24
BRANCH   7  26
HETATM   26  O6  UNL     1      13.375  15.164  15.393  1.00  0.00    -0.310 OA
ATOM     27  H6  UNL     1      14.022  15.110  14.700  1.00  0.00     0.237 HD
ENDBRANCH   7  26
TORSDOF 8
ENDMDL
MODEL 3
REMARK VINA RESULT: -7.655551804      2.359      2.877
REMARK  8 active torsions:
REMARK  status: ('A' for Active; 'I' for Inactive)
REMARK    1  A    between atoms: C3_3  and  C4_4 
REMARK    2  A    between atoms: C4_4  and  O1_5 
REMARK    3  A    between atoms: N1_7  and  O2_9 
REMARK    4  A    between atoms: C5_11  and  C6_12 
REMARK    5  A    between atoms: C9_15  and  O3_16 
REMARK    6  A    between atoms: O3_16  and  O4_17 
REMARK    7  A    between atoms: C12_21  and  O5_23 
REMARK    8  A    between atoms: N2_25  and  O6_26 
ROOT
HETATM    1  C1  UNL     1      12.286  14.315  15.714  1.00  0.00     0.029 C 
HETATM    2  C2  UNL     1      12.871  15.591  16.208  1.00  0.00     0.098 C 
HETATM    3  C3  UNL     1      14.021  15.331  17.226  1.00  0.00     0.094 C 
HETATM    4  C5  UNL     1      14.222  16.717  17.690  1.00  0.00     0.083 C 
HETATM    5  C12 UNL     1      12.788  17.247  17.774  1.00  0.00     0.141 C 
HETATM    6  C13 UNL     1      12.707  18.505  16.932  1.00  0.00     0.067 C 
HETATM    7  N2  UNL     1      11.941  16.250  17.144  1.00  0.00    -0.159 NA
ENDROOT
BRANCH   4   8
HETATM    8  C6  UNL     1      14.996  16.964  18.889  1.00  0.00    -0.049 A 
HETATM    9  C7  UNL     1      14.634  16.713  20.191  1.00  0.00     0.010 A 
HETATM   10  C8  UNL     1      15.468  17.005  21.252  1.00  0.00     0.040 A 
HETATM   11  C9  UNL     1      16.715  17.566  21.064  1.00  0.00     0.106 A 
HETATM   12  C10 UNL     1      17.089  17.821  19.767  1.00  0.00     0.040 A 
HETATM   13  C11 UNL     1      16.267  17.533  18.711  1.00  0.00     0.010 A 
BRANCH  11  14
HETATM   14  O3  UNL     1      17.565  17.866  22.117  1.00  0.00    -0.200 OA
BRANCH  14  15
HETATM   15  O4  UNL     1      18.858  17.557  22.061  1.00  0.00    -0.245 OA
ATOM     16  H4  UNL     1      19.282  17.377  21.231  1.00  0.00     0.254 HD
ENDBRANCH  14  15
ENDBRANCH  11  14
ENDBRANCH   4   8
BRANCH   3  17
HETATM   17  C4  UNL     1      13.515  14.359  18.208  1.00  0.00     0.141 C 
HETATM   18  N1  UNL     1      14.385  13.583  18.820  1.00  0.00    -0.251 N 
ATOM     19  H1  UNL     1      14.038  12.908  19.501  1.00  0.00     0.196 HD
BRANCH  17  20
HETATM   20  O1  UNL     1      12.213  14.155  18.570  1.00  0.00    -0.348 OA
ATOM     21  H1  UNL     1      11.549  13.685  18.079  1.00  0.00     0.219 HD
ENDBRANCH  17  20
BRANCH  18  22
HETATM   22  O2  UNL     1      15.719  13.639  18.589  1.00  0.00    -0.288 OA
ATOM     23  H2  UNL     1      16.149  14.394  18.207  1.00  0.00     0.244 HD
ENDBRANCH  18  22
ENDBRANCH   3  17
BRANCH   5  24
HETATM   24  O5  UNL     1      12.397  17.423  19.073  1.00  0.00    -0.373 OA
ATOM     25  H5  UNL     1      13.135  17.354  19.669  1.00  0.00     0.212 HD
ENDBRANCH   5  24
BRANCH   7  26
HETATM   26  O6  UNL     1      10.920  16.825  16.466  1.00  0.00    -0.310 OA
ATOM     27  H6  UNL     1      10.653  17.631  16.893  1.00  0.00     0.237 HD
ENDBRANCH   7  26
TORSDOF 8
ENDMDL
MODEL 4
REMARK VINA RESULT: -7.622459164      3.276      5.037
REMARK  8 active torsions:
REMARK  status: ('A' for Active; 'I' for Inactive)
REMARK    1  A    between atoms: C3_3  and  C4_4 
REMARK    2  A    between atoms: C4_4  and  O1_5 
REMARK    3  A    between atoms: N1_7  and  O2_9 
REMARK    4  A    between atoms: C5_11  and  C6_12 
REMARK    5  A    between atoms: C9_15  and  O3_16 
REMARK    6  A    between atoms: O3_16  and  O4_17 
REMARK    7  A    between atoms: C12_21  and  O5_23 
REMARK    8  A    between atoms: N2_25  and  O6_26 
ROOT
HETATM    1  C1  UNL     1      12.302  17.034  16.173  1.00  0.00     0.029 C 
HETATM    2  C2  UNL     1      12.978  16.934  17.495  1.00  0.00     0.098 C 
HETATM    3  C3  UNL     1      14.378  17.616  17.468  1.00  0.00     0.094 C 
HETATM    4  C5  UNL     1      14.871  17.160  18.781  1.00  0.00     0.083 C 
HETATM    5  C12 UNL     1      14.360  15.718  18.841  1.00  0.00     0.141 C 
HETATM    6  C13 UNL     1      13.546  15.566  20.111  1.00  0.00     0.067 C 
HETATM    7  N2  UNL     1      13.450  15.554  17.722  1.00  0.00    -0.159 NA
ENDROOT
BRANCH   4   8
HETATM    8  C6  UNL     1      16.279  17.283  19.098  1.00  0.00    -0.049 A 
HETATM    9  C7  UNL     1      17.319  17.519  18.232  1.00  0.00     0.010 A 
HETATM   10  C8  UNL     1      18.627  17.608  18.666  1.00  0.00     0.040 A 
HETATM   11  C9  UNL     1      18.965  17.462  19.997  1.00  0.00     0.106 A 
HETATM   12  C10 UNL     1      17.932  17.227  20.873  1.00  0.00     0.040 A 
HETATM   13  C11 UNL     1      16.634  17.139  20.449  1.00  0.00     0.010 A 
BRANCH  11  14
HETATM   14  O3  UNL     1      20.271  17.547  20.450  1.00  0.00    -0.200 OA
BRANCH  14  15
HETATM   15  O4  UNL     1      21.085  16.496  20.390  1.00  0.00    -0.245 OA
ATOM     16  H4  UNL     1      22.028  16.608  20.400  1.00  0.00     0.254 HD
ENDBRANCH  14  15
ENDBRANCH  11  14
ENDBRANCH   4   8
BRANCH   3  17
HETATM   17  C4  UNL     1      15.079  17.115  16.275  1.00  0.00     0.141 C 
HETATM   18  N1  UNL     1      15.555  17.994  15.418  1.00  0.00    -0.251 N 
ATOM     19  H1  UNL     1      16.041  17.650  14.590  1.00  0.00     0.196 HD
BRANCH  17  20
HETATM   20  O1  UNL     1      15.299  15.809  15.936  1.00  0.00    -0.348 OA
ATOM     21  H1  UNL     1      15.948  15.477  15.327  1.00  0.00     0.219 HD
ENDBRANCH  17  20
BRANCH  18  22
HETATM   22  O2  UNL     1      15.431  19.333  15.583  1.00  0.00    -0.288 OA
ATOM     23  H2  UNL     1      16.148  19.941  15.450  1.00  0.00     0.244 HD
ENDBRANCH  18  22
ENDBRANCH   3  17
BRANCH   5  24
HETATM   24  O5  UNL     1      15.387  14.820  18.730  1.00  0.00    -0.373 OA
ATOM     25  H5  UNL     1      15.118  13.951  19.006  1.00  0.00     0.212 HD
ENDBRANCH   5  24
BRANCH   7  26
HETATM   26  O6  UNL     1      12.410  14.749  18.044  1.00  0.00    -0.310 OA
ATOM     27  H6  UNL     1      12.369  14.010  17.448  1.00  0.00     0.237 HD
ENDBRANCH   7  26
TORSDOF 8
ENDMDL
MODEL 5
REMARK VINA RESULT: -7.594532194      3.247      4.825
REMARK  8 active torsions:
REMARK  status: ('A' for Active; 'I' for Inactive)
REMARK    1  A    between atoms: C3_3  and  C4_4 
REMARK    2  A    between atoms: C4_4  and  O1_5 
REMARK    3  A    between atoms: N1_7  and  O2_9 
REMARK    4  A    between atoms: C5_11  and  C6_12 
REMARK    5  A    between atoms: C9_15  and  O3_16 
REMARK    6  A    between atoms: O3_16  and  O4_17 
REMARK    7  A    between atoms: C12_21  and  O5_23 
REMARK    8  A    between atoms: N2_25  and  O6_26 
ROOT
HETATM    1  C1  UNL     1      11.771  16.630  15.777  1.00  0.00     0.029 C 
HETATM    2  C2  UNL     1      12.506  16.428  17.056  1.00  0.00     0.098 C 
HETATM    3  C3  UNL     1      13.648  17.475  17.224  1.00  0.00     0.094 C 
HETATM    4  C5  UNL     1      14.310  16.892  18.406  1.00  0.00     0.083 C 
HETATM    5  C12 UNL     1      14.238  15.390  18.115  1.00  0.00     0.141 C 
HETATM    6  C13 UNL     1      13.560  14.721  19.295  1.00  0.00     0.067 C 
HETATM    7  N2  UNL     1      13.364  15.231  16.967  1.00  0.00    -0.159 NA
ENDROOT
BRANCH   4   8
HETATM    8  C6  UNL     1      15.635  17.341  18.778  1.00  0.00    -0.049 A 
HETATM    9  C7  UNL     1      16.601  17.879  17.962  1.00  0.00     0.010 A 
HETATM   10  C8  UNL     1      17.836  18.263  18.444  1.00  0.00     0.040 A 
HETATM   11  C9  UNL     1      18.172  18.127  19.777  1.00  0.00     0.106 A 
HETATM   12  C10 UNL     1      17.213  17.591  20.603  1.00  0.00     0.040 A 
HETATM   13  C11 UNL     1      15.987  17.209  20.130  1.00  0.00     0.010 A 
BRANCH  11  14
HETATM   14  O3  UNL     1      19.406  18.506  20.278  1.00  0.00    -0.200 OA
BRANCH  14  15
HETATM   15  O4  UNL     1      20.350  17.602  20.529  1.00  0.00    -0.245 OA
ATOM     16  H4  UNL     1      21.141  17.563  20.004  1.00  0.00     0.254 HD
ENDBRANCH  14  15
ENDBRANCH  11  14
ENDBRANCH   4   8
BRANCH   3  17
HETATM   17  C4  UNL     1      14.410  17.487  15.964  1.00  0.00     0.141 C 
HETATM   18  N1  UNL     1      14.338  18.559  15.204  1.00  0.00    -0.251 N 
ATOM     19  H1  UNL     1      14.864  18.571  14.331  1.00  0.00     0.196 HD
BRANCH  17  20
HETATM   20  O1  UNL     1      15.202  16.488  15.471  1.00  0.00    -0.348 OA
ATOM     21  H1  UNL     1      15.900  16.033  15.927  1.00  0.00     0.219 HD
ENDBRANCH  17  20
BRANCH  18  22
HETATM   22  O2  UNL     1      13.601  19.649  15.527  1.00  0.00    -0.288 OA
ATOM     23  H2  UNL     1      13.630  20.062  16.382  1.00  0.00     0.244 HD
ENDBRANCH  18  22
ENDBRANCH   3  17
BRANCH   5  24
HETATM   24  O5  UNL     1      15.473  14.879  17.824  1.00  0.00    -0.373 OA
ATOM     25  H5  UNL     1      15.405  14.080  17.314  1.00  0.00     0.212 HD
ENDBRANCH   5  24
BRANCH   7  26
HETATM   26  O6  UNL     1      12.615  14.108  17.066  1.00  0.00    -0.310 OA
ATOM     27  H6  UNL     1      12.185  13.924  16.238  1.00  0.00     0.237 HD
ENDBRANCH   7  26
TORSDOF 8
ENDMDL
