MODEL 1
REMARK VINA RESULT: -7.632485556      0.000      0.000
REMARK  7 active torsions:
REMARK  status: ('A' for Active; 'I' for Inactive)
REMARK    1  A    between atoms: C2_3  and  C4_6 
REMARK    2  A    between atoms: C4_6  and  S1_10 
REMARK    3  A    between atoms: S1_10  and  C5_11 
REMARK    4  A    between atoms: C5_11  and  C6_12 
REMARK       I    between atoms: C6_12  and  N4_14 
REMARK    5  A    between atoms: N4_14  and  N5_16 
REMARK    6  A    between atoms: N5_16  and  C7_18 
REMARK    7  A    between atoms: C7_18  and  C8_22 
ROOT
HETATM    1  N1  UNL     1      14.113  16.610  20.192  1.00  0.00    -0.195 NA
HETATM    2  C1  UNL     1      14.174  16.458  21.340  1.00  0.00     0.085 C 
HETATM    3  C2  UNL     1      14.231  16.275  22.785  1.00  0.00     0.255 C 
HETATM    4  C3  UNL     1      13.043  16.900  23.369  1.00  0.00     0.085 C 
HETATM    5  N2  UNL     1      12.100  17.391  23.842  1.00  0.00    -0.195 NA
ENDROOT
BRANCH   3   6
HETATM    6  C4  UNL     1      15.493  16.885  23.357  1.00  0.00     0.072 C 
HETATM    7  N3  UNL     1      15.724  16.744  24.597  1.00  0.00    -0.395 N 
ATOM      8  H32 UNL     1      15.129  16.247  25.260  1.00  0.00     0.156 HD
ATOM      9  H31 UNL     1      16.574  17.155  24.982  1.00  0.00     0.156 HD
BRANCH   6  10
HETATM   10  S1  UNL     1      16.529  17.750  22.203  1.00  0.00    -0.105 SA
BRANCH  10  11
HETATM   11  C5  UNL     1      18.239  17.217  22.348  1.00  0.00     0.185 C 
BRANCH  11  12
HETATM   12  C6  UNL     1      18.956  17.537  21.095  1.00  0.00     0.245 C 
HETATM   13  O1  UNL     1      19.987  16.849  20.838  1.00  0.00    -0.271 OA
HETATM   14  N4  UNL     1      18.524  18.565  20.207  1.00  0.00    -0.268 N 
ATOM     15  H4  UNL     1      17.690  19.118  20.405  1.00  0.00     0.190 HD
BRANCH  14  16
HETATM   16  N5  UNL     1      19.285  18.786  19.055  1.00  0.00    -0.286 N 
ATOM     17  H5  UNL     1      20.163  19.300  19.125  1.00  0.00     0.188 HD
BRANCH  16  18
HETATM   18  C7  UNL     1      18.860  18.309  17.793  1.00  0.00     0.093 C 
HETATM   19  N6  UNL     1      19.647  17.588  17.079  1.00  0.00    -0.388 N 
ATOM     20  H62 UNL     1      20.576  17.366  17.436  1.00  0.00     0.157 HD
ATOM     21  H61 UNL     1      19.340  17.244  16.168  1.00  0.00     0.157 HD
BRANCH  18  22
HETATM   22  C8  UNL     1      17.527  18.626  17.281  1.00  0.00     0.054 C 
HETATM   23  C9  UNL     1      17.436  18.513  15.767  1.00  0.00     0.012 C 
HETATM   24  C10 UNL     1      15.923  18.722  15.601  1.00  0.00     0.001 C 
HETATM   25  C11 UNL     1      15.366  17.801  16.673  1.00  0.00     0.001 C 
HETATM   26  C12 UNL     1      16.454  17.669  17.718  1.00  0.00     0.012 C 
ENDBRANCH  18  22
ENDBRANCH  16  18
ENDBRANCH  14  16
ENDBRANCH  11  12
ENDBRANCH  10  11
ENDBRANCH   6  10
ENDBRANCH   3   6
TORSDOF 7
ENDMDL
MODEL 2
REMARK VINA RESULT: -7.544587572      3.696      5.285
REMARK  7 active torsions:
REMARK  status: ('A' for Active; 'I' for Inactive)
REMARK    1  A    between atoms: C2_3  and  C4_6 
REMARK    2  A    between atoms: C4_6  and  S1_10 
REMARK    3  A    between atoms: S1_10  and  C5_11 
REMARK    4  A    between atoms: C5_11  and  C6_12 
REMARK       I    between atoms: C6_12  and  N4_14 
REMARK    5  A    between atoms: N4_14  and  N5_16 
REMARK    6  A    between atoms: N5_16  and  C7_18 
REMARK    7  A    between atoms: C7_18  and  C8_22 
ROOT
HETATM    1  N1  UNL     1      15.776  16.204  20.050  1.00  0.00    -0.195 NA
HETATM    2  C1  UNL     1      15.961  16.799  21.027  1.00  0.00     0.085 C 
HETATM    3  C2  UNL     1      16.215  17.547  22.253  1.00  0.00     0.255 C 
HETATM    4  C3  UNL     1      17.663  17.609  22.455  1.00  0.00     0.085 C 
HETATM    5  N2  UNL     1      18.813  17.667  22.623  1.00  0.00    -0.195 NA
ENDROOT
BRANCH   3   6
HETATM    6  C4  UNL     1      15.536  16.889  23.436  1.00  0.00     0.072 C 
HETATM    7  N3  UNL     1      16.083  16.987  24.577  1.00  0.00    -0.395 N 
ATOM      8  H32 UNL     1      16.954  17.478  24.779  1.00  0.00     0.156 HD
ATOM      9  H31 UNL     1      15.626  16.544  25.374  1.00  0.00     0.156 HD
BRANCH   6  10
HETATM   10  S1  UNL     1      14.020  16.034  23.086  1.00  0.00    -0.105 SA
BRANCH  10  11
HETATM   11  C5  UNL     1      12.606  17.128  23.269  1.00  0.00     0.185 C 
BRANCH  11  12
HETATM   12  C6  UNL     1      12.091  17.486  21.931  1.00  0.00     0.245 C 
HETATM   13  O1  UNL     1      11.073  18.237  21.895  1.00  0.00    -0.271 OA
HETATM   14  N4  UNL     1      12.696  17.018  20.727  1.00  0.00    -0.268 N 
ATOM     15  H4  UNL     1      13.520  16.418  20.749  1.00  0.00     0.190 HD
BRANCH  14  16
HETATM   16  N5  UNL     1      12.118  17.414  19.517  1.00  0.00    -0.286 N 
ATOM     17  H5  UNL     1      11.245  17.941  19.527  1.00  0.00     0.188 HD
BRANCH  16  18
HETATM   18  C7  UNL     1      12.721  17.095  18.279  1.00  0.00     0.093 C 
HETATM   19  N6  UNL     1      13.934  17.446  18.044  1.00  0.00    -0.388 N 
ATOM     20  H62 UNL     1      14.450  17.954  18.762  1.00  0.00     0.157 HD
ATOM     21  H61 UNL     1      14.370  17.216  17.150  1.00  0.00     0.157 HD
BRANCH  18  22
HETATM   22  C8  UNL     1      11.981  16.366  17.248  1.00  0.00     0.054 C 
HETATM   23  C9  UNL     1      12.129  16.986  15.867  1.00  0.00     0.012 C 
HETATM   24  C10 UNL     1      11.411  15.908  15.042  1.00  0.00     0.001 C 
HETATM   25  C11 UNL     1      12.024  14.635  15.599  1.00  0.00     0.001 C 
HETATM   26  C12 UNL     1      12.479  14.969  17.004  1.00  0.00     0.012 C 
ENDBRANCH  18  22
ENDBRANCH  16  18
ENDBRANCH  14  16
ENDBRANCH  11  12
ENDBRANCH  10  11
ENDBRANCH   6  10
ENDBRANCH   3   6
TORSDOF 7
ENDMDL
MODEL 3
REMARK VINA RESULT: -7.528375803      3.689      5.278
REMARK  7 active torsions:
REMARK  status: ('A' for Active; 'I' for Inactive)
REMARK    1  A    between atoms: C2_3  and  C4_6 
REMARK    2  A    between atoms: C4_6  and  S1_10 
REMARK    3  A    between atoms: S1_10  and  C5_11 
REMARK    4  A    between atoms: C5_11  and  C6_12 
REMARK       I    between atoms: C6_12  and  N4_14 
REMARK    5  A    between atoms: N4_14  and  N5_16 
REMARK    6  A    between atoms: N5_16  and  C7_18 
REMARK    7  A    between atoms: C7_18  and  C8_22 
ROOT
HETATM    1  N1  UNL     1      18.791  17.893  23.751  1.00  0.00    -0.195 NA
HETATM    2  C1  UNL     1      17.794  17.408  23.411  1.00  0.00     0.085 C 
HETATM    3  C2  UNL     1      16.544  16.804  22.966  1.00  0.00     0.255 C 
HETATM    4  C3  UNL     1      16.358  17.137  21.552  1.00  0.00     0.085 C 
HETATM    5  N2  UNL     1      16.203  17.394  20.428  1.00  0.00    -0.195 NA
ENDROOT
BRANCH   3   6
HETATM    6  C4  UNL     1      15.378  17.305  23.792  1.00  0.00     0.072 C 
HETATM    7  N3  UNL     1      15.505  18.405  24.411  1.00  0.00    -0.395 N 
ATOM      8  H32 UNL     1      16.335  18.998  24.405  1.00  0.00     0.156 HD
ATOM      9  H31 UNL     1      14.720  18.742  24.968  1.00  0.00     0.156 HD
BRANCH   6  10
HETATM   10  S1  UNL     1      13.933  16.273  23.803  1.00  0.00    -0.105 SA
BRANCH  10  11
HETATM   11  C5  UNL     1      12.457  17.226  23.428  1.00  0.00     0.185 C 
BRANCH  11  12
HETATM   12  C6  UNL     1      12.295  17.315  21.961  1.00  0.00     0.245 C 
HETATM   13  O1  UNL     1      11.390  18.090  21.535  1.00  0.00    -0.271 OA
HETATM   14  N4  UNL     1      13.108  16.574  21.055  1.00  0.00    -0.268 N 
ATOM     15  H4  UNL     1      13.844  15.953  21.392  1.00  0.00     0.190 HD
BRANCH  14  16
HETATM   16  N5  UNL     1      12.860  16.730  19.687  1.00  0.00    -0.286 N 
ATOM     17  H5  UNL     1      12.203  17.446  19.376  1.00  0.00     0.188 HD
BRANCH  16  18
HETATM   18  C7  UNL     1      13.502  15.913  18.729  1.00  0.00     0.093 C 
HETATM   19  N6  UNL     1      14.420  15.092  19.093  1.00  0.00    -0.388 N 
ATOM     20  H62 UNL     1      14.675  15.041  20.080  1.00  0.00     0.157 HD
ATOM     21  H61 UNL     1      14.884  14.502  18.401  1.00  0.00     0.157 HD
BRANCH  18  22
HETATM   22  C8  UNL     1      13.137  15.986  17.313  1.00  0.00     0.054 C 
HETATM   23  C9  UNL     1      12.334  14.780  16.850  1.00  0.00     0.012 C 
HETATM   24  C10 UNL     1      11.980  15.259  15.433  1.00  0.00     0.001 C 
HETATM   25  C11 UNL     1      11.520  16.683  15.696  1.00  0.00     0.001 C 
HETATM   26  C12 UNL     1      12.205  17.115  16.975  1.00  0.00     0.012 C 
ENDBRANCH  18  22
ENDBRANCH  16  18
ENDBRANCH  14  16
ENDBRANCH  11  12
ENDBRANCH  10  11
ENDBRANCH   6  10
ENDBRANCH   3   6
TORSDOF 7
ENDMDL
MODEL 4
REMARK VINA RESULT: -7.317186714      3.688      5.075
REMARK  7 active torsions:
REMARK  status: ('A' for Active; 'I' for Inactive)
REMARK    1  A    between atoms: C2_3  and  C4_6 
REMARK    2  A    between atoms: C4_6  and  S1_10 
REMARK    3  A    between atoms: S1_10  and  C5_11 
REMARK    4  A    between atoms: C5_11  and  C6_12 
REMARK       I    between atoms: C6_12  and  N4_14 
REMARK    5  A    between atoms: N4_14  and  N5_16 
REMARK    6  A    between atoms: N5_16  and  C7_18 
REMARK    7  A    between atoms: C7_18  and  C8_22 
ROOT
HETATM    1  N1  UNL     1      12.065  17.276  23.759  1.00  0.00    -0.195 NA
HETATM    2  C1  UNL     1      12.970  16.846  23.175  1.00  0.00     0.085 C 
HETATM    3  C2  UNL     1      14.121  16.318  22.451  1.00  0.00     0.255 C 
HETATM    4  C3  UNL     1      15.316  17.018  22.926  1.00  0.00     0.085 C 
HETATM    5  N2  UNL     1      16.271  17.566  23.299  1.00  0.00    -0.195 NA
ENDROOT
BRANCH   3   6
HETATM    6  C4  UNL     1      13.950  16.501  20.958  1.00  0.00     0.072 C 
HETATM    7  N3  UNL     1      12.828  16.906  20.524  1.00  0.00    -0.395 N 
ATOM      8  H32 UNL     1      12.013  17.125  21.097  1.00  0.00     0.156 HD
ATOM      9  H31 UNL     1      12.713  17.029  19.518  1.00  0.00     0.156 HD
BRANCH   6  10
HETATM   10  S1  UNL     1      15.368  16.119  19.961  1.00  0.00    -0.105 SA
BRANCH  10  11
HETATM   11  C5  UNL     1      15.136  14.573  19.074  1.00  0.00     0.185 C 
BRANCH  11  12
HETATM   12  C6  UNL     1      14.194  14.790  17.956  1.00  0.00     0.245 C 
HETATM   13  O1  UNL     1      12.973  14.553  18.186  1.00  0.00    -0.271 OA
HETATM   14  N4  UNL     1      14.620  15.244  16.673  1.00  0.00    -0.268 N 
ATOM     15  H4  UNL     1      15.602  15.443  16.483  1.00  0.00     0.190 HD
BRANCH  14  16
HETATM   16  N5  UNL     1      13.642  15.406  15.687  1.00  0.00    -0.286 N 
ATOM     17  H5  UNL     1      13.467  14.649  15.026  1.00  0.00     0.188 HD
BRANCH  16  18
HETATM   18  C7  UNL     1      12.892  16.600  15.589  1.00  0.00     0.093 C 
HETATM   19  N6  UNL     1      11.736  16.682  16.144  1.00  0.00    -0.388 N 
ATOM     20  H62 UNL     1      11.374  15.876  16.654  1.00  0.00     0.157 HD
ATOM     21  H61 UNL     1      11.194  17.544  16.073  1.00  0.00     0.157 HD
BRANCH  18  22
HETATM   22  C8  UNL     1      13.411  17.756  14.858  1.00  0.00     0.054 C 
HETATM   23  C9  UNL     1      14.400  17.369  13.769  1.00  0.00     0.012 C 
HETATM   24  C10 UNL     1      14.588  18.747  13.116  1.00  0.00     0.001 C 
HETATM   25  C11 UNL     1      13.153  19.226  12.990  1.00  0.00     0.001 C 
HETATM   26  C12 UNL     1      12.374  18.504  14.069  1.00  0.00     0.012 C 
ENDBRANCH  18  22
ENDBRANCH  16  18
ENDBRANCH  14  16
ENDBRANCH  11  12
ENDBRANCH  10  11
ENDBRANCH   6  10
ENDBRANCH   3   6
TORSDOF 7
ENDMDL
MODEL 5
REMARK VINA RESULT: -7.303903992      3.970      5.986
REMARK  7 active torsions:
REMARK  status: ('A' for Active; 'I' for Inactive)
REMARK    1  A    between atoms: C2_3  and  C4_6 
REMARK    2  A    between atoms: C4_6  and  S1_10 
REMARK    3  A    between atoms: S1_10  and  C5_11 
REMARK    4  A    between atoms: C5_11  and  C6_12 
REMARK       I    between atoms: C6_12  and  N4_14 
REMARK    5  A    between atoms: N4_14  and  N5_16 
REMARK    6  A    between atoms: N5_16  and  C7_18 
REMARK    7  A    between atoms: C7_18  and  C8_22 
ROOT
HETATM    1  N1  UNL     1      13.019  14.590  17.842  1.00  0.00    -0.195 NA
HETATM    2  C1  UNL     1      13.070  15.494  17.117  1.00  0.00     0.085 C 
HETATM    3  C2  UNL     1      13.112  16.629  16.203  1.00  0.00     0.255 C 
HETATM    4  C3  UNL     1      11.767  16.826  15.662  1.00  0.00     0.085 C 
HETATM    5  N2  UNL     1      10.700  16.993  15.229  1.00  0.00    -0.195 NA
ENDROOT
BRANCH   3   6
HETATM    6  C4  UNL     1      14.108  16.387  15.088  1.00  0.00     0.072 C 
HETATM    7  N3  UNL     1      14.731  15.281  15.065  1.00  0.00    -0.395 N 
ATOM      8  H32 UNL     1      14.622  14.523  15.738  1.00  0.00     0.156 HD
ATOM      9  H31 UNL     1      15.402  15.118  14.314  1.00  0.00     0.156 HD
BRANCH   6  10
HETATM   10  S1  UNL     1      14.298  17.706  13.915  1.00  0.00    -0.105 SA
BRANCH  10  11
HETATM   11  C5  UNL     1      16.033  18.015  13.567  1.00  0.00     0.185 C 
BRANCH  11  12
HETATM   12  C6  UNL     1      16.678  18.581  14.770  1.00  0.00     0.245 C 
HETATM   13  O1  UNL     1      15.996  19.406  15.447  1.00  0.00    -0.271 OA
HETATM   14  N4  UNL     1      18.001  18.229  15.167  1.00  0.00    -0.268 N 
ATOM     15  H4  UNL     1      18.554  17.561  14.630  1.00  0.00     0.190 HD
BRANCH  14  16
HETATM   16  N5  UNL     1      18.514  18.835  16.319  1.00  0.00    -0.286 N 
ATOM     17  H5  UNL     1      18.855  19.795  16.271  1.00  0.00     0.188 HD
BRANCH  16  18
HETATM   18  C7  UNL     1      18.566  18.140  17.550  1.00  0.00     0.093 C 
HETATM   19  N6  UNL     1      19.616  17.471  17.867  1.00  0.00    -0.388 N 
ATOM     20  H62 UNL     1      20.404  17.450  17.220  1.00  0.00     0.157 HD
ATOM     21  H61 UNL     1      19.654  16.969  18.755  1.00  0.00     0.157 HD
BRANCH  18  22
HETATM   22  C8  UNL     1      17.436  18.170  18.478  1.00  0.00     0.054 C 
HETATM   23  C9  UNL     1      16.410  17.084  18.192  1.00  0.00     0.012 C 
HETATM   24  C10 UNL     1      15.501  17.285  19.414  1.00  0.00     0.001 C 
HETATM   25  C11 UNL     1      16.516  17.380  20.539  1.00  0.00     0.001 C 
HETATM   26  C12 UNL     1      17.801  17.868  19.904  1.00  0.00     0.012 C 
ENDBRANCH  18  22
ENDBRANCH  16  18
ENDBRANCH  14  16
ENDBRANCH  11  12
ENDBRANCH  10  11
ENDBRANCH   6  10
ENDBRANCH   3   6
TORSDOF 7
ENDMDL
