MODEL 1
REMARK VINA RESULT: -6.164671055      0.000      0.000
REMARK  7 active torsions:
REMARK  status: ('A' for Active; 'I' for Inactive)
REMARK    1  A    between atoms: N1_2  and  C3_4 
REMARK    2  A    between atoms: C3_4  and  C4_9 
REMARK    3  A    between atoms: N2_5  and  O1_7 
REMARK    4  A    between atoms: C6_12  and  C7_13 
REMARK    5  A    between atoms: N3_14  and  N4_16 
REMARK    6  A    between atoms: N4_16  and  C8_18 
REMARK    7  A    between atoms: C9_21  and  O2_22 
ROOT
HETATM    1  C4  UNL     1      15.750  16.849  18.686  1.00  0.00     0.084 A 
HETATM    2  S1  UNL     1      17.175  17.762  18.522  1.00  0.00    -0.094 SA
HETATM    3  C5  UNL     1      17.611  17.879  20.164  1.00  0.00     0.066 A 
HETATM    4  C6  UNL     1      16.622  17.192  20.819  1.00  0.00     0.022 A 
HETATM    5  C9  UNL     1      15.648  16.655  20.029  1.00  0.00     0.098 A 
ENDROOT
BRANCH   1   6
HETATM    6  C3  UNL     1      14.847  16.361  17.613  1.00  0.00     0.142 C 
HETATM    7  N2  UNL     1      14.735  15.124  17.390  1.00  0.00    -0.252 N 
ATOM      8  H2  UNL     1      14.124  14.826  16.629  1.00  0.00     0.196 HD
BRANCH   6   9
HETATM    9  N1  UNL     1      14.180  17.369  16.877  1.00  0.00    -0.373 N 
HETATM   10  C1  UNL     1      12.849  17.783  17.277  1.00  0.00     0.150 C 
HETATM   11  C2  UNL     1      14.762  18.022  15.723  1.00  0.00     0.150 C 
ENDBRANCH   6   9
BRANCH   7  12
HETATM   12  O1  UNL     1      15.376  14.174  18.101  1.00  0.00    -0.288 OA
ATOM     13  H1  UNL     1      16.221  14.308  18.516  1.00  0.00     0.244 HD
ENDBRANCH   7  12
ENDBRANCH   1   6
BRANCH   5  14
HETATM   14  O2  UNL     1      14.580  15.916  20.619  1.00  0.00    -0.358 OA
ATOM     15  H2  UNL     1      14.725  15.228  21.257  1.00  0.00     0.217 HD
ENDBRANCH   5  14
BRANCH   4  16
HETATM   16  C7  UNL     1      16.677  17.085  22.307  1.00  0.00     0.122 C 
HETATM   17  N3  UNL     1      15.754  17.253  23.095  1.00  0.00    -0.309 N 
ATOM     18  H3  UNL     1      16.093  17.112  24.046  1.00  0.00     0.186 HD
BRANCH  17  19
HETATM   19  N4  UNL     1      14.446  17.559  23.130  1.00  0.00    -0.279 N 
ATOM     20  H4  UNL     1      14.165  18.436  22.692  1.00  0.00     0.189 HD
BRANCH  19  21
HETATM   21  C8  UNL     1      13.419  16.777  23.721  1.00  0.00     0.199 C 
HETATM   22  N5  UNL     1      12.114  17.284  23.759  1.00  0.00    -0.068 NA
HETATM   23  S2  UNL     1      13.752  15.311  24.346  1.00  0.00    -0.043 SA
ENDBRANCH  19  21
ENDBRANCH  17  19
ENDBRANCH   4  16
TORSDOF 7
ENDMDL
MODEL 2
REMARK VINA RESULT: -6.099989113      2.557      3.282
REMARK  7 active torsions:
REMARK  status: ('A' for Active; 'I' for Inactive)
REMARK    1  A    between atoms: N1_2  and  C3_4 
REMARK    2  A    between atoms: C3_4  and  C4_9 
REMARK    3  A    between atoms: N2_5  and  O1_7 
REMARK    4  A    between atoms: C6_12  and  C7_13 
REMARK    5  A    between atoms: N3_14  and  N4_16 
REMARK    6  A    between atoms: N4_16  and  C8_18 
REMARK    7  A    between atoms: C9_21  and  O2_22 
ROOT
HETATM    1  C4  UNL     1      13.800  16.303  16.576  1.00  0.00     0.084 A 
HETATM    2  S1  UNL     1      15.233  16.634  17.428  1.00  0.00    -0.094 SA
HETATM    3  C5  UNL     1      14.556  17.166  18.898  1.00  0.00     0.066 A 
HETATM    4  C6  UNL     1      13.205  17.072  18.692  1.00  0.00     0.022 A 
HETATM    5  C9  UNL     1      12.819  16.617  17.466  1.00  0.00     0.098 A 
ENDROOT
BRANCH   1   6
HETATM    6  C3  UNL     1      13.658  15.774  15.196  1.00  0.00     0.142 C 
HETATM    7  N2  UNL     1      13.035  14.695  14.989  1.00  0.00    -0.252 N 
ATOM      8  H2  UNL     1      12.977  14.349  14.031  1.00  0.00     0.196 HD
BRANCH   6   9
HETATM    9  N1  UNL     1      14.285  16.540  14.184  1.00  0.00    -0.373 N 
HETATM   10  C1  UNL     1      15.395  15.972  13.445  1.00  0.00     0.150 C 
HETATM   11  C2  UNL     1      13.873  17.885  13.842  1.00  0.00     0.150 C 
ENDBRANCH   6   9
BRANCH   7  12
HETATM   12  O1  UNL     1      12.440  13.976  15.963  1.00  0.00    -0.288 OA
ATOM     13  H1  UNL     1      11.679  14.274  16.448  1.00  0.00     0.244 HD
ENDBRANCH   7  12
ENDBRANCH   1   6
BRANCH   5  14
HETATM   14  O2  UNL     1      11.433  16.478  17.160  1.00  0.00    -0.358 OA
ATOM     15  H2  UNL     1      10.748  16.727  17.769  1.00  0.00     0.217 HD
ENDBRANCH   5  14
BRANCH   4  16
HETATM   16  C7  UNL     1      12.275  17.466  19.793  1.00  0.00     0.122 C 
HETATM   17  N3  UNL     1      12.392  17.211  20.985  1.00  0.00    -0.309 N 
ATOM     18  H3  UNL     1      11.604  17.611  21.494  1.00  0.00     0.186 HD
BRANCH  17  19
HETATM   19  N4  UNL     1      13.207  16.583  21.851  1.00  0.00    -0.279 N 
ATOM     20  H4  UNL     1      13.827  15.870  21.467  1.00  0.00     0.189 HD
BRANCH  19  21
HETATM   21  C8  UNL     1      13.286  16.819  23.249  1.00  0.00     0.199 C 
HETATM   22  N5  UNL     1      12.168  17.337  23.914  1.00  0.00    -0.068 NA
HETATM   23  S2  UNL     1      14.655  16.494  24.066  1.00  0.00    -0.043 SA
ENDBRANCH  19  21
ENDBRANCH  17  19
ENDBRANCH   4  16
TORSDOF 7
ENDMDL
MODEL 3
REMARK VINA RESULT: -6.034266420      3.855      4.573
REMARK  7 active torsions:
REMARK  status: ('A' for Active; 'I' for Inactive)
REMARK    1  A    between atoms: N1_2  and  C3_4 
REMARK    2  A    between atoms: C3_4  and  C4_9 
REMARK    3  A    between atoms: N2_5  and  O1_7 
REMARK    4  A    between atoms: C6_12  and  C7_13 
REMARK    5  A    between atoms: N3_14  and  N4_16 
REMARK    6  A    between atoms: N4_16  and  C8_18 
REMARK    7  A    between atoms: C9_21  and  O2_22 
ROOT
HETATM    1  C4  UNL     1      15.244  17.009  16.423  1.00  0.00     0.084 A 
HETATM    2  S1  UNL     1      15.785  17.425  14.866  1.00  0.00    -0.094 SA
HETATM    3  C5  UNL     1      17.176  18.311  15.292  1.00  0.00     0.066 A 
HETATM    4  C6  UNL     1      17.192  18.265  16.661  1.00  0.00     0.022 A 
HETATM    5  C9  UNL     1      16.169  17.576  17.245  1.00  0.00     0.098 A 
ENDROOT
BRANCH   1   6
HETATM    6  C3  UNL     1      14.057  16.199  16.793  1.00  0.00     0.142 C 
HETATM    7  N2  UNL     1      14.199  15.096  17.391  1.00  0.00    -0.252 N 
ATOM      8  H2  UNL     1      13.362  14.554  17.608  1.00  0.00     0.196 HD
BRANCH   6   9
HETATM    9  N1  UNL     1      12.807  16.739  16.402  1.00  0.00    -0.373 N 
HETATM   10  C1  UNL     1      12.442  18.074  16.832  1.00  0.00     0.150 C 
HETATM   11  C2  UNL     1      11.857  16.017  15.583  1.00  0.00     0.150 C 
ENDBRANCH   6   9
BRANCH   7  12
HETATM   12  O1  UNL     1      15.396  14.594  17.759  1.00  0.00    -0.288 OA
ATOM     13  H1  UNL     1      15.972  15.014  18.387  1.00  0.00     0.244 HD
ENDBRANCH   7  12
ENDBRANCH   1   6
BRANCH   5  14
HETATM   14  O2  UNL     1      16.104  17.465  18.666  1.00  0.00    -0.358 OA
ATOM     15  H2  UNL     1      16.734  17.885  19.240  1.00  0.00     0.217 HD
ENDBRANCH   5  14
BRANCH   4  16
HETATM   16  C7  UNL     1      18.295  18.952  17.397  1.00  0.00     0.122 C 
HETATM   17  N3  UNL     1      19.030  18.467  18.248  1.00  0.00    -0.309 N 
ATOM     18  H3  UNL     1      19.686  19.177  18.570  1.00  0.00     0.186 HD
BRANCH  17  19
HETATM   19  N4  UNL     1      19.265  17.315  18.900  1.00  0.00    -0.279 N 
ATOM     20  H4  UNL     1      19.244  16.458  18.347  1.00  0.00     0.189 HD
BRANCH  19  21
HETATM   21  C8  UNL     1      19.540  17.180  20.287  1.00  0.00     0.199 C 
HETATM   22  N5  UNL     1      20.687  16.484  20.688  1.00  0.00    -0.068 NA
HETATM   23  S2  UNL     1      18.535  17.822  21.395  1.00  0.00    -0.043 SA
ENDBRANCH  19  21
ENDBRANCH  17  19
ENDBRANCH   4  16
TORSDOF 7
ENDMDL
MODEL 4
REMARK VINA RESULT: -5.994504843      2.358      2.774
REMARK  7 active torsions:
REMARK  status: ('A' for Active; 'I' for Inactive)
REMARK    1  A    between atoms: N1_2  and  C3_4 
REMARK    2  A    between atoms: C3_4  and  C4_9 
REMARK    3  A    between atoms: N2_5  and  O1_7 
REMARK    4  A    between atoms: C6_12  and  C7_13 
REMARK    5  A    between atoms: N3_14  and  N4_16 
REMARK    6  A    between atoms: N4_16  and  C8_18 
REMARK    7  A    between atoms: C9_21  and  O2_22 
ROOT
HETATM    1  C4  UNL     1      15.396  16.623  17.952  1.00  0.00     0.084 A 
HETATM    2  S1  UNL     1      15.963  17.682  16.748  1.00  0.00    -0.094 SA
HETATM    3  C5  UNL     1      17.326  18.305  17.557  1.00  0.00     0.066 A 
HETATM    4  C6  UNL     1      17.313  17.665  18.768  1.00  0.00     0.022 A 
HETATM    5  C9  UNL     1      16.292  16.782  18.964  1.00  0.00     0.098 A 
ENDROOT
BRANCH   1   6
HETATM    6  C3  UNL     1      14.218  15.723  17.897  1.00  0.00     0.142 C 
HETATM    7  N2  UNL     1      14.353  14.483  18.096  1.00  0.00    -0.252 N 
ATOM      8  H2  UNL     1      13.525  13.891  18.027  1.00  0.00     0.196 HD
BRANCH   6   9
HETATM    9  N1  UNL     1      12.988  16.351  17.584  1.00  0.00    -0.373 N 
HETATM   10  C1  UNL     1      12.491  17.413  18.437  1.00  0.00     0.150 C 
HETATM   11  C2  UNL     1      12.183  15.983  16.438  1.00  0.00     0.150 C 
ENDBRANCH   6   9
BRANCH   7  12
HETATM   12  O1  UNL     1      15.531  13.899  18.396  1.00  0.00    -0.288 OA
ATOM     13  H1  UNL     1      15.609  13.106  18.914  1.00  0.00     0.244 HD
ENDBRANCH   7  12
ENDBRANCH   1   6
BRANCH   5  14
HETATM   14  O2  UNL     1      16.199  16.061  20.192  1.00  0.00    -0.358 OA
ATOM     15  H2  UNL     1      16.786  16.217  20.921  1.00  0.00     0.217 HD
ENDBRANCH   5  14
BRANCH   4  16
HETATM   16  C7  UNL     1      18.386  17.971  19.761  1.00  0.00     0.122 C 
HETATM   17  N3  UNL     1      18.245  18.181  20.960  1.00  0.00    -0.309 N 
ATOM     18  H3  UNL     1      19.156  18.360  21.380  1.00  0.00     0.186 HD
BRANCH  17  19
HETATM   19  N4  UNL     1      17.296  18.253  21.910  1.00  0.00    -0.279 N 
ATOM     20  H4  UNL     1      16.453  18.779  21.681  1.00  0.00     0.189 HD
BRANCH  19  21
HETATM   21  C8  UNL     1      17.358  17.667  23.201  1.00  0.00     0.199 C 
HETATM   22  N5  UNL     1      18.583  17.644  23.879  1.00  0.00    -0.068 NA
HETATM   23  S2  UNL     1      16.025  17.029  23.884  1.00  0.00    -0.043 SA
ENDBRANCH  19  21
ENDBRANCH  17  19
ENDBRANCH   4  16
TORSDOF 7
ENDMDL
MODEL 5
REMARK VINA RESULT: -5.841294533      2.347      3.130
REMARK  7 active torsions:
REMARK  status: ('A' for Active; 'I' for Inactive)
REMARK    1  A    between atoms: N1_2  and  C3_4 
REMARK    2  A    between atoms: C3_4  and  C4_9 
REMARK    3  A    between atoms: N2_5  and  O1_7 
REMARK    4  A    between atoms: C6_12  and  C7_13 
REMARK    5  A    between atoms: N3_14  and  N4_16 
REMARK    6  A    between atoms: N4_16  and  C8_18 
REMARK    7  A    between atoms: C9_21  and  O2_22 
ROOT
HETATM    1  C4  UNL     1      13.479  16.235  16.590  1.00  0.00     0.084 A 
HETATM    2  S1  UNL     1      12.432  17.411  17.231  1.00  0.00    -0.094 SA
HETATM    3  C5  UNL     1      13.064  17.504  18.810  1.00  0.00     0.066 A 
HETATM    4  C6  UNL     1      14.096  16.602  18.806  1.00  0.00     0.022 A 
HETATM    5  C9  UNL     1      14.304  15.940  17.632  1.00  0.00     0.098 A 
ENDROOT
BRANCH   1   6
HETATM    6  C3  UNL     1      13.499  15.681  15.213  1.00  0.00     0.142 C 
HETATM    7  N2  UNL     1      12.856  14.629  14.940  1.00  0.00    -0.252 N 
ATOM      8  H2  UNL     1      12.913  14.264  13.989  1.00  0.00     0.196 HD
BRANCH   6   9
HETATM    9  N1  UNL     1      14.298  16.392  14.285  1.00  0.00    -0.373 N 
HETATM   10  C1  UNL     1      15.450  15.744  13.692  1.00  0.00     0.150 C 
HETATM   11  C2  UNL     1      14.022  17.757  13.889  1.00  0.00     0.150 C 
ENDBRANCH   6   9
BRANCH   7  12
HETATM   12  O1  UNL     1      12.098  13.963  15.835  1.00  0.00    -0.288 OA
ATOM     13  H1  UNL     1      11.365  13.408  15.594  1.00  0.00     0.244 HD
ENDBRANCH   7  12
ENDBRANCH   1   6
BRANCH   5  14
HETATM   14  O2  UNL     1      15.360  14.987  17.528  1.00  0.00    -0.358 OA
ATOM     15  H2  UNL     1      15.621  14.433  18.254  1.00  0.00     0.217 HD
ENDBRANCH   5  14
BRANCH   4  16
HETATM   16  C7  UNL     1      14.896  16.411  20.053  1.00  0.00     0.122 C 
HETATM   17  N3  UNL     1      14.478  16.396  21.204  1.00  0.00    -0.309 N 
ATOM     18  H3  UNL     1      15.258  16.246  21.844  1.00  0.00     0.186 HD
BRANCH  17  19
HETATM   19  N4  UNL     1      13.340  16.509  21.910  1.00  0.00    -0.279 N 
ATOM     20  H4  UNL     1      12.465  16.402  21.397  1.00  0.00     0.189 HD
BRANCH  19  21
HETATM   21  C8  UNL     1      13.241  16.764  23.303  1.00  0.00     0.199 C 
HETATM   22  N5  UNL     1      12.063  17.325  23.810  1.00  0.00    -0.068 NA
HETATM   23  S2  UNL     1      14.481  16.411  24.298  1.00  0.00    -0.043 SA
ENDBRANCH  19  21
ENDBRANCH  17  19
ENDBRANCH   4  16
TORSDOF 7
ENDMDL
