MODEL 1
REMARK VINA RESULT: -6.941183736      0.000      0.000
REMARK  7 active torsions:
REMARK  status: ('A' for Active; 'I' for Inactive)
REMARK    1  A    between atoms: C2_2  and  O1_4 
REMARK    2  A    between atoms: C2_2  and  C4_6 
REMARK    3  A    between atoms: C4_6  and  C5_8 
REMARK    4  A    between atoms: C5_8  and  N1_9 
REMARK    5  A    between atoms: C6_10  and  O3_11 
REMARK    6  A    between atoms: C9_15  and  O4_16 
REMARK    7  A    between atoms: C14_22  and  O5_23 
ROOT
HETATM    1  N1  UNL     1      15.182  17.536  18.240  1.00  0.00    -0.300 N 
HETATM    2  C6  UNL     1      15.242  17.252  19.547  1.00  0.00     0.152 A 
HETATM    3  C7  UNL     1      16.545  17.307  19.967  1.00  0.00     0.008 A 
HETATM    4  C8  UNL     1      17.297  17.640  18.858  1.00  0.00     0.011 A 
HETATM    5  C9  UNL     1      16.424  17.777  17.785  1.00  0.00     0.152 A 
HETATM    6  C10 UNL     1      18.732  17.704  19.305  1.00  0.00     0.053 C 
HETATM    7  C11 UNL     1      18.699  16.566  20.343  1.00  0.00     0.021 C 
HETATM    8  C12 UNL     1      17.504  17.165  21.109  1.00  0.00     0.027 C 
HETATM    9  C13 UNL     1      18.031  18.528  21.415  1.00  0.00     0.042 C 
HETATM   10  C14 UNL     1      18.936  18.880  20.222  1.00  0.00     0.127 C 
ENDROOT
BRANCH   1  11
HETATM   11  C5  UNL     1      13.969  17.582  17.407  1.00  0.00     0.215 C 
BRANCH  11  12
HETATM   12  C4  UNL     1      13.789  16.291  16.692  1.00  0.00     0.178 C 
HETATM   13  O2  UNL     1      14.533  15.941  15.797  1.00  0.00    -0.293 OA
BRANCH  12  14
HETATM   14  C2  UNL     1      12.667  15.419  17.092  1.00  0.00     0.112 C 
HETATM   15  C1  UNL     1      12.176  14.689  15.860  1.00  0.00     0.054 C 
HETATM   16  C3  UNL     1      13.099  14.361  18.092  1.00  0.00     0.054 C 
BRANCH  14  17
HETATM   17  O1  UNL     1      11.630  16.131  17.679  1.00  0.00    -0.383 OA
ATOM     18  H1  UNL     1      11.946  16.617  18.432  1.00  0.00     0.211 HD
ENDBRANCH  14  17
ENDBRANCH  12  14
ENDBRANCH  11  12
ENDBRANCH   1  11
BRANCH   2  19
HETATM   19  O3  UNL     1      14.150  16.952  20.345  1.00  0.00    -0.345 OA
ATOM     20  H3  UNL     1      14.112  17.079  21.286  1.00  0.00     0.219 HD
ENDBRANCH   2  19
BRANCH   5  21
HETATM   21  O4  UNL     1      16.799  18.106  16.499  1.00  0.00    -0.345 OA
ATOM     22  H4  UNL     1      16.867  18.974  16.119  1.00  0.00     0.219 HD
ENDBRANCH   5  21
BRANCH  10  23
HETATM   23  O5  UNL     1      20.247  18.817  20.693  1.00  0.00    -0.395 OA
ATOM     24  H5  UNL     1      20.788  19.315  20.092  1.00  0.00     0.210 HD
ENDBRANCH  10  23
TORSDOF 7
ENDMDL
MODEL 2
REMARK VINA RESULT: -6.817887283      1.965      3.269
REMARK  7 active torsions:
REMARK  status: ('A' for Active; 'I' for Inactive)
REMARK    1  A    between atoms: C2_2  and  O1_4 
REMARK    2  A    between atoms: C2_2  and  C4_6 
REMARK    3  A    between atoms: C4_6  and  C5_8 
REMARK    4  A    between atoms: C5_8  and  N1_9 
REMARK    5  A    between atoms: C6_10  and  O3_11 
REMARK    6  A    between atoms: C9_15  and  O4_16 
REMARK    7  A    between atoms: C14_22  and  O5_23 
ROOT
HETATM    1  N1  UNL     1      14.794  16.063  20.233  1.00  0.00    -0.300 N 
HETATM    2  C6  UNL     1      16.031  16.377  19.829  1.00  0.00     0.152 A 
HETATM    3  C7  UNL     1      16.686  17.039  20.834  1.00  0.00     0.008 A 
HETATM    4  C8  UNL     1      15.797  17.122  21.888  1.00  0.00     0.011 A 
HETATM    5  C9  UNL     1      14.617  16.504  21.490  1.00  0.00     0.152 A 
HETATM    6  C10 UNL     1      16.504  17.846  23.001  1.00  0.00     0.053 C 
HETATM    7  C11 UNL     1      17.331  18.826  22.147  1.00  0.00     0.021 C 
HETATM    8  C12 UNL     1      17.948  17.709  21.284  1.00  0.00     0.027 C 
HETATM    9  C13 UNL     1      18.551  16.847  22.344  1.00  0.00     0.042 C 
HETATM   10  C14 UNL     1      17.611  16.992  23.554  1.00  0.00     0.127 C 
ENDROOT
BRANCH   1  11
HETATM   11  C5  UNL     1      13.770  15.349  19.452  1.00  0.00     0.215 C 
BRANCH  11  12
HETATM   12  C4  UNL     1      13.244  16.228  18.374  1.00  0.00     0.178 C 
HETATM   13  O2  UNL     1      12.692  17.284  18.616  1.00  0.00    -0.293 OA
BRANCH  12  14
HETATM   14  C2  UNL     1      13.404  15.792  16.973  1.00  0.00     0.112 C 
HETATM   15  C1  UNL     1      12.271  14.843  16.643  1.00  0.00     0.054 C 
HETATM   16  C3  UNL     1      13.306  16.954  16.001  1.00  0.00     0.054 C 
BRANCH  14  17
HETATM   17  O1  UNL     1      14.629  15.179  16.749  1.00  0.00    -0.383 OA
ATOM     18  H1  UNL     1      14.834  14.579  17.457  1.00  0.00     0.211 HD
ENDBRANCH  14  17
ENDBRANCH  12  14
ENDBRANCH  11  12
ENDBRANCH   1  11
BRANCH   2  19
HETATM   19  O3  UNL     1      16.560  16.077  18.584  1.00  0.00    -0.345 OA
ATOM     20  H3  UNL     1      17.005  16.697  18.018  1.00  0.00     0.219 HD
ENDBRANCH   2  19
BRANCH   5  21
HETATM   21  O4  UNL     1      13.487  16.384  22.272  1.00  0.00    -0.345 OA
ATOM     22  H4  UNL     1      13.362  16.695  23.161  1.00  0.00     0.219 HD
ENDBRANCH   5  21
BRANCH  10  23
HETATM   23  O5  UNL     1      18.299  17.758  24.494  1.00  0.00    -0.395 OA
ATOM     24  H5  UNL     1      19.077  18.098  24.068  1.00  0.00     0.210 HD
ENDBRANCH  10  23
TORSDOF 7
ENDMDL
MODEL 3
REMARK VINA RESULT: -6.767941277      1.871      3.158
REMARK  7 active torsions:
REMARK  status: ('A' for Active; 'I' for Inactive)
REMARK    1  A    between atoms: C2_2  and  O1_4 
REMARK    2  A    between atoms: C2_2  and  C4_6 
REMARK    3  A    between atoms: C4_6  and  C5_8 
REMARK    4  A    between atoms: C5_8  and  N1_9 
REMARK    5  A    between atoms: C6_10  and  O3_11 
REMARK    6  A    between atoms: C9_15  and  O4_16 
REMARK    7  A    between atoms: C14_22  and  O5_23 
ROOT
HETATM    1  N1  UNL     1      14.875  16.215  20.177  1.00  0.00    -0.300 N 
HETATM    2  C6  UNL     1      16.082  16.525  19.684  1.00  0.00     0.152 A 
HETATM    3  C7  UNL     1      16.831  17.132  20.657  1.00  0.00     0.008 A 
HETATM    4  C8  UNL     1      16.034  17.187  21.784  1.00  0.00     0.011 A 
HETATM    5  C9  UNL     1      14.812  16.607  21.461  1.00  0.00     0.152 A 
HETATM    6  C10 UNL     1      16.846  17.851  22.862  1.00  0.00     0.053 C 
HETATM    7  C11 UNL     1      17.619  18.851  21.982  1.00  0.00     0.021 C 
HETATM    8  C12 UNL     1      18.140  17.760  21.026  1.00  0.00     0.027 C 
HETATM    9  C13 UNL     1      18.810  16.844  21.996  1.00  0.00     0.042 C 
HETATM   10  C14 UNL     1      17.977  16.954  23.286  1.00  0.00     0.127 C 
ENDROOT
BRANCH   1  11
HETATM   11  C5  UNL     1      13.776  15.554  19.456  1.00  0.00     0.215 C 
BRANCH  11  12
HETATM   12  C4  UNL     1      12.838  16.570  18.908  1.00  0.00     0.178 C 
HETATM   13  O2  UNL     1      12.416  17.487  19.584  1.00  0.00    -0.293 OA
BRANCH  12  14
HETATM   14  C2  UNL     1      12.417  16.446  17.499  1.00  0.00     0.112 C 
HETATM   15  C1  UNL     1      13.222  17.431  16.678  1.00  0.00     0.054 C 
HETATM   16  C3  UNL     1      12.703  15.064  16.939  1.00  0.00     0.054 C 
BRANCH  14  17
HETATM   17  O1  UNL     1      11.058  16.676  17.334  1.00  0.00    -0.383 OA
ATOM     18  H1  UNL     1      10.913  17.508  16.899  1.00  0.00     0.211 HD
ENDBRANCH  14  17
ENDBRANCH  12  14
ENDBRANCH  11  12
ENDBRANCH   1  11
BRANCH   2  19
HETATM   19  O3  UNL     1      16.499  16.268  18.388  1.00  0.00    -0.345 OA
ATOM     20  H3  UNL     1      16.625  16.927  17.716  1.00  0.00     0.219 HD
ENDBRANCH   2  19
BRANCH   5  21
HETATM   21  O4  UNL     1      13.749  16.474  22.330  1.00  0.00    -0.345 OA
ATOM     22  H4  UNL     1      13.549  15.735  22.891  1.00  0.00     0.219 HD
ENDBRANCH   5  21
BRANCH  10  23
HETATM   23  O5  UNL     1      18.756  17.669  24.195  1.00  0.00    -0.395 OA
ATOM     24  H5  UNL     1      18.243  17.772  24.988  1.00  0.00     0.210 HD
ENDBRANCH  10  23
TORSDOF 7
ENDMDL
MODEL 4
REMARK VINA RESULT: -6.738356684      0.940      1.519
REMARK  7 active torsions:
REMARK  status: ('A' for Active; 'I' for Inactive)
REMARK    1  A    between atoms: C2_2  and  O1_4 
REMARK    2  A    between atoms: C2_2  and  C4_6 
REMARK    3  A    between atoms: C4_6  and  C5_8 
REMARK    4  A    between atoms: C5_8  and  N1_9 
REMARK    5  A    between atoms: C6_10  and  O3_11 
REMARK    6  A    between atoms: C9_15  and  O4_16 
REMARK    7  A    between atoms: C14_22  and  O5_23 
ROOT
HETATM    1  N1  UNL     1      14.918  17.155  19.146  1.00  0.00    -0.300 N 
HETATM    2  C6  UNL     1      15.229  16.941  20.431  1.00  0.00     0.152 A 
HETATM    3  C7  UNL     1      16.578  17.093  20.607  1.00  0.00     0.008 A 
HETATM    4  C8  UNL     1      17.098  17.413  19.367  1.00  0.00     0.011 A 
HETATM    5  C9  UNL     1      16.040  17.447  18.466  1.00  0.00     0.152 A 
HETATM    6  C10 UNL     1      18.582  17.584  19.546  1.00  0.00     0.053 C 
HETATM    7  C11 UNL     1      18.810  16.498  20.615  1.00  0.00     0.021 C 
HETATM    8  C12 UNL     1      17.733  17.063  21.561  1.00  0.00     0.027 C 
HETATM    9  C13 UNL     1      18.214  18.468  21.715  1.00  0.00     0.042 C 
HETATM   10  C14 UNL     1      18.867  18.813  20.365  1.00  0.00     0.127 C 
ENDROOT
BRANCH   1  11
HETATM   11  C5  UNL     1      13.576  17.090  18.544  1.00  0.00     0.215 C 
BRANCH  11  12
HETATM   12  C4  UNL     1      13.382  15.780  17.867  1.00  0.00     0.178 C 
HETATM   13  O2  UNL     1      13.289  14.741  18.489  1.00  0.00    -0.293 OA
BRANCH  12  14
HETATM   14  C2  UNL     1      13.302  15.759  16.393  1.00  0.00     0.112 C 
HETATM   15  C1  UNL     1      12.214  14.783  15.995  1.00  0.00     0.054 C 
HETATM   16  C3  UNL     1      12.912  17.113  15.825  1.00  0.00     0.054 C 
BRANCH  14  17
HETATM   17  O1  UNL     1      14.509  15.406  15.805  1.00  0.00    -0.383 OA
ATOM     18  H1  UNL     1      15.231  15.841  16.243  1.00  0.00     0.211 HD
ENDBRANCH  14  17
ENDBRANCH  12  14
ENDBRANCH  11  12
ENDBRANCH   1  11
BRANCH   2  19
HETATM   19  O3  UNL     1      14.318  16.616  21.423  1.00  0.00    -0.345 OA
ATOM     20  H3  UNL     1      13.532  16.099  21.292  1.00  0.00     0.219 HD
ENDBRANCH   2  19
BRANCH   5  21
HETATM   21  O4  UNL     1      16.159  17.733  17.122  1.00  0.00    -0.345 OA
ATOM     22  H4  UNL     1      15.678  18.382  16.623  1.00  0.00     0.219 HD
ENDBRANCH   5  21
BRANCH  10  23
HETATM   23  O5  UNL     1      20.242  18.851  20.594  1.00  0.00    -0.395 OA
ATOM     24  H5  UNL     1      20.450  19.714  20.931  1.00  0.00     0.210 HD
ENDBRANCH  10  23
TORSDOF 7
ENDMDL
MODEL 5
REMARK VINA RESULT: -6.597510616      1.859      2.923
REMARK  7 active torsions:
REMARK  status: ('A' for Active; 'I' for Inactive)
REMARK    1  A    between atoms: C2_2  and  O1_4 
REMARK    2  A    between atoms: C2_2  and  C4_6 
REMARK    3  A    between atoms: C4_6  and  C5_8 
REMARK    4  A    between atoms: C5_8  and  N1_9 
REMARK    5  A    between atoms: C6_10  and  O3_11 
REMARK    6  A    between atoms: C9_15  and  O4_16 
REMARK    7  A    between atoms: C14_22  and  O5_23 
ROOT
HETATM    1  N1  UNL     1      15.751  16.331  19.234  1.00  0.00    -0.300 N 
HETATM    2  C6  UNL     1      16.974  16.874  19.293  1.00  0.00     0.152 A 
HETATM    3  C7  UNL     1      17.218  17.314  20.566  1.00  0.00     0.008 A 
HETATM    4  C8  UNL     1      16.087  17.020  21.303  1.00  0.00     0.011 A 
HETATM    5  C9  UNL     1      15.179  16.405  20.448  1.00  0.00     0.152 A 
HETATM    6  C10 UNL     1      16.342  17.498  22.706  1.00  0.00     0.053 C 
HETATM    7  C11 UNL     1      17.173  18.751  22.373  1.00  0.00     0.021 C 
HETATM    8  C12 UNL     1      18.181  17.974  21.505  1.00  0.00     0.027 C 
HETATM    9  C13 UNL     1      18.633  16.934  22.477  1.00  0.00     0.042 C 
HETATM   10  C14 UNL     1      17.403  16.653  23.357  1.00  0.00     0.127 C 
ENDROOT
BRANCH   1  11
HETATM   11  C5  UNL     1      15.109  15.742  18.048  1.00  0.00     0.215 C 
BRANCH  11  12
HETATM   12  C4  UNL     1      14.166  16.718  17.439  1.00  0.00     0.178 C 
HETATM   13  O2  UNL     1      14.545  17.773  16.968  1.00  0.00    -0.293 OA
BRANCH  12  14
HETATM   14  C2  UNL     1      12.729  16.381  17.412  1.00  0.00     0.112 C 
HETATM   15  C1  UNL     1      12.096  17.109  16.245  1.00  0.00     0.054 C 
HETATM   16  C3  UNL     1      12.497  14.897  17.187  1.00  0.00     0.054 C 
BRANCH  14  17
HETATM   17  O1  UNL     1      12.088  16.715  18.597  1.00  0.00    -0.383 OA
ATOM     18  H1  UNL     1      11.991  15.949  19.149  1.00  0.00     0.211 HD
ENDBRANCH  14  17
ENDBRANCH  12  14
ENDBRANCH  11  12
ENDBRANCH   1  11
BRANCH   2  19
HETATM   19  O3  UNL     1      17.851  16.971  18.225  1.00  0.00    -0.345 OA
ATOM     20  H3  UNL     1      18.336  17.753  17.988  1.00  0.00     0.219 HD
ENDBRANCH   2  19
BRANCH   5  21
HETATM   21  O4  UNL     1      13.926  15.961  20.816  1.00  0.00    -0.345 OA
ATOM     22  H4  UNL     1      13.714  15.265  21.426  1.00  0.00     0.219 HD
ENDBRANCH   5  21
BRANCH  10  23
HETATM   23  O5  UNL     1      17.676  17.215  24.603  1.00  0.00    -0.395 OA
ATOM     24  H5  UNL     1      17.736  18.155  24.483  1.00  0.00     0.210 HD
ENDBRANCH  10  23
TORSDOF 7
ENDMDL
