MODEL 1
REMARK VINA RESULT: -6.839006633      0.000      0.000
REMARK  4 active torsions:
REMARK  status: ('A' for Active; 'I' for Inactive)
REMARK       I    between atoms: C1_2  and  N4_13 
REMARK    1  A    between atoms: N2_3  and  N3_5 
REMARK    2  A    between atoms: C2_7  and  C3_8 
REMARK    3  A    between atoms: N4_13  and  N5_15 
REMARK    4  A    between atoms: N5_15  and  C7_17 
ROOT
HETATM    1  N1  UNL     1      14.372  13.442  19.666  1.00  0.00    -0.061 NA
HETATM    2  C1  UNL     1      13.836  14.552  18.949  1.00  0.00     0.222 C 
HETATM    3  N2  UNL     1      14.105  15.729  19.326  1.00  0.00    -0.273 N 
ATOM      4  H2  UNL     1      13.711  16.507  18.799  1.00  0.00     0.189 HD
HETATM    5  N4  UNL     1      13.012  14.321  17.843  1.00  0.00    -0.272 N 
ATOM      6  H4  UNL     1      13.030  13.417  17.371  1.00  0.00     0.189 HD
ENDROOT
BRANCH   3   7
HETATM    7  N3  UNL     1      14.901  16.012  20.406  1.00  0.00    -0.308 N 
HETATM    8  C2  UNL     1      15.785  16.945  20.457  1.00  0.00     0.126 C 
ATOM      9  H3  UNL     1      14.783  15.434  21.238  1.00  0.00     0.186 HD
BRANCH   8  10
HETATM   10  C3  UNL     1      16.546  17.091  21.723  1.00  0.00     0.021 A 
HETATM   11  C4  UNL     1      16.036  17.138  22.994  1.00  0.00     0.021 A 
HETATM   12  C5  UNL     1      16.903  17.269  24.000  1.00  0.00     0.008 A 
HETATM   13  C6  UNL     1      18.233  17.346  23.677  1.00  0.00     0.050 A 
HETATM   14  S1  UNL     1      18.221  17.231  21.975  1.00  0.00    -0.101 SA
ENDBRANCH   8  10
ENDBRANCH   3   7
BRANCH   5  15
HETATM   15  N5  UNL     1      12.168  15.326  17.390  1.00  0.00    -0.298 N 
ATOM     16  H5  UNL     1      11.200  15.335  17.710  1.00  0.00     0.187 HD
BRANCH  15  17
HETATM   17  C7  UNL     1      12.601  16.343  16.498  1.00  0.00     0.048 A 
HETATM   18  C8  UNL     1      12.381  17.661  16.811  1.00  0.00     0.031 A 
HETATM   19  C9  UNL     1      12.798  18.656  15.936  1.00  0.00     0.002 A 
HETATM   20  C10 UNL     1      13.432  18.345  14.751  1.00  0.00     0.000 A 
HETATM   21  C11 UNL     1      13.655  17.024  14.433  1.00  0.00     0.002 A 
HETATM   22  C12 UNL     1      13.240  16.036  15.305  1.00  0.00     0.031 A 
ENDBRANCH  15  17
ENDBRANCH   5  15
TORSDOF 4
ENDMDL
MODEL 2
REMARK VINA RESULT: -6.823446946      0.056      1.121
REMARK  4 active torsions:
REMARK  status: ('A' for Active; 'I' for Inactive)
REMARK       I    between atoms: C1_2  and  N4_13 
REMARK    1  A    between atoms: N2_3  and  N3_5 
REMARK    2  A    between atoms: C2_7  and  C3_8 
REMARK    3  A    between atoms: N4_13  and  N5_15 
REMARK    4  A    between atoms: N5_15  and  C7_17 
ROOT
HETATM    1  N1  UNL     1      14.328  13.446  19.723  1.00  0.00    -0.061 NA
HETATM    2  C1  UNL     1      13.802  14.550  18.990  1.00  0.00     0.222 C 
HETATM    3  N2  UNL     1      14.080  15.730  19.352  1.00  0.00    -0.273 N 
ATOM      4  H2  UNL     1      13.693  16.504  18.814  1.00  0.00     0.189 HD
HETATM    5  N4  UNL     1      12.980  14.311  17.885  1.00  0.00    -0.272 N 
ATOM      6  H4  UNL     1      12.993  13.401  17.425  1.00  0.00     0.189 HD
ENDROOT
BRANCH   3   7
HETATM    7  N3  UNL     1      14.875  16.021  20.431  1.00  0.00    -0.308 N 
HETATM    8  C2  UNL     1      15.784  16.931  20.464  1.00  0.00     0.126 C 
ATOM      9  H3  UNL     1      14.734  15.470  21.277  1.00  0.00     0.186 HD
BRANCH   8  10
HETATM   10  C3  UNL     1      16.538  17.091  21.731  1.00  0.00     0.021 A 
HETATM   11  C4  UNL     1      16.021  17.187  22.997  1.00  0.00     0.021 A 
HETATM   12  C5  UNL     1      16.883  17.322  24.005  1.00  0.00     0.008 A 
HETATM   13  C6  UNL     1      18.217  17.355  23.692  1.00  0.00     0.050 A 
HETATM   14  S1  UNL     1      18.215  17.193  21.993  1.00  0.00    -0.101 SA
ENDBRANCH   8  10
ENDBRANCH   3   7
BRANCH   5  15
HETATM   15  N5  UNL     1      12.145  15.317  17.416  1.00  0.00    -0.298 N 
ATOM     16  H5  UNL     1      11.176  15.337  17.734  1.00  0.00     0.187 HD
BRANCH  15  17
HETATM   17  C7  UNL     1      12.587  16.319  16.512  1.00  0.00     0.048 A 
HETATM   18  C8  UNL     1      13.194  15.954  15.337  1.00  0.00     0.031 A 
HETATM   19  C9  UNL     1      13.633  16.934  14.455  1.00  0.00     0.002 A 
HETATM   20  C10 UNL     1      13.471  18.274  14.738  1.00  0.00     0.000 A 
HETATM   21  C11 UNL     1      12.862  18.645  15.916  1.00  0.00     0.002 A 
HETATM   22  C12 UNL     1      12.426  17.668  16.792  1.00  0.00     0.031 A 
ENDBRANCH  15  17
ENDBRANCH   5  15
TORSDOF 4
ENDMDL
MODEL 3
REMARK VINA RESULT: -6.519119303      2.918      6.940
REMARK  4 active torsions:
REMARK  status: ('A' for Active; 'I' for Inactive)
REMARK       I    between atoms: C1_2  and  N4_13 
REMARK    1  A    between atoms: N2_3  and  N3_5 
REMARK    2  A    between atoms: C2_7  and  C3_8 
REMARK    3  A    between atoms: N4_13  and  N5_15 
REMARK    4  A    between atoms: N5_15  and  C7_17 
ROOT
HETATM    1  N1  UNL     1      12.197  17.715  17.211  1.00  0.00    -0.061 NA
HETATM    2  C1  UNL     1      13.039  17.121  18.198  1.00  0.00     0.222 C 
HETATM    3  N2  UNL     1      14.227  16.808  17.899  1.00  0.00    -0.273 N 
ATOM      4  H2  UNL     1      14.811  16.384  18.619  1.00  0.00     0.189 HD
HETATM    5  N4  UNL     1      12.534  16.887  19.481  1.00  0.00    -0.272 N 
ATOM      6  H4  UNL     1      11.707  17.389  19.804  1.00  0.00     0.189 HD
ENDROOT
BRANCH   3   7
HETATM    7  N3  UNL     1      14.771  17.008  16.656  1.00  0.00    -0.308 N 
HETATM    8  C2  UNL     1      15.814  17.718  16.404  1.00  0.00     0.126 C 
ATOM      9  H3  UNL     1      14.310  16.558  15.866  1.00  0.00     0.186 HD
BRANCH   8  10
HETATM   10  C3  UNL     1      16.246  17.810  14.987  1.00  0.00     0.021 A 
HETATM   11  C4  UNL     1      15.597  17.308  13.890  1.00  0.00     0.021 A 
HETATM   12  C5  UNL     1      16.160  17.509  12.697  1.00  0.00     0.008 A 
HETATM   13  C6  UNL     1      17.342  18.202  12.669  1.00  0.00     0.050 A 
HETATM   14  S1  UNL     1      17.622  18.549  14.316  1.00  0.00    -0.101 SA
ENDBRANCH   8  10
ENDBRANCH   3   7
BRANCH   5  15
HETATM   15  N5  UNL     1      13.161  15.970  20.312  1.00  0.00    -0.298 N 
ATOM     16  H5  UNL     1      13.039  14.975  20.125  1.00  0.00     0.187 HD
BRANCH  15  17
HETATM   17  C7  UNL     1      13.967  16.362  21.415  1.00  0.00     0.048 A 
HETATM   18  C8  UNL     1      15.273  16.726  21.206  1.00  0.00     0.031 A 
HETATM   19  C9  UNL     1      16.063  17.104  22.285  1.00  0.00     0.002 A 
HETATM   20  C10 UNL     1      15.559  17.120  23.569  1.00  0.00     0.000 A 
HETATM   21  C11 UNL     1      14.248  16.756  23.782  1.00  0.00     0.002 A 
HETATM   22  C12 UNL     1      13.464  16.381  22.708  1.00  0.00     0.031 A 
ENDBRANCH  15  17
ENDBRANCH   5  15
TORSDOF 4
ENDMDL
MODEL 4
REMARK VINA RESULT: -6.508117627      2.916      6.882
REMARK  4 active torsions:
REMARK  status: ('A' for Active; 'I' for Inactive)
REMARK       I    between atoms: C1_2  and  N4_13 
REMARK    1  A    between atoms: N2_3  and  N3_5 
REMARK    2  A    between atoms: C2_7  and  C3_8 
REMARK    3  A    between atoms: N4_13  and  N5_15 
REMARK    4  A    between atoms: N5_15  and  C7_17 
ROOT
HETATM    1  N1  UNL     1      12.192  17.709  17.196  1.00  0.00    -0.061 NA
HETATM    2  C1  UNL     1      13.035  17.116  18.182  1.00  0.00     0.222 C 
HETATM    3  N2  UNL     1      14.224  16.806  17.883  1.00  0.00    -0.273 N 
ATOM      4  H2  UNL     1      14.808  16.382  18.603  1.00  0.00     0.189 HD
HETATM    5  N4  UNL     1      12.530  16.879  19.464  1.00  0.00    -0.272 N 
ATOM      6  H4  UNL     1      11.702  17.379  19.789  1.00  0.00     0.189 HD
ENDROOT
BRANCH   3   7
HETATM    7  N3  UNL     1      14.767  17.010  16.641  1.00  0.00    -0.308 N 
HETATM    8  C2  UNL     1      15.811  17.719  16.390  1.00  0.00     0.126 C 
ATOM      9  H3  UNL     1      14.305  16.563  15.849  1.00  0.00     0.186 HD
BRANCH   8  10
HETATM   10  C3  UNL     1      16.242  17.815  14.974  1.00  0.00     0.021 A 
HETATM   11  C4  UNL     1      15.592  17.318  13.874  1.00  0.00     0.021 A 
HETATM   12  C5  UNL     1      16.155  17.522  12.682  1.00  0.00     0.008 A 
HETATM   13  C6  UNL     1      17.339  18.213  12.656  1.00  0.00     0.050 A 
HETATM   14  S1  UNL     1      17.620  18.553  14.304  1.00  0.00    -0.101 SA
ENDBRANCH   8  10
ENDBRANCH   3   7
BRANCH   5  15
HETATM   15  N5  UNL     1      13.159  15.962  20.295  1.00  0.00    -0.298 N 
ATOM     16  H5  UNL     1      13.025  14.967  20.116  1.00  0.00     0.187 HD
BRANCH  15  17
HETATM   17  C7  UNL     1      13.982  16.354  21.384  1.00  0.00     0.048 A 
HETATM   18  C8  UNL     1      13.468  16.365  22.655  1.00  0.00     0.031 A 
HETATM   19  C9  UNL     1      14.271  16.755  23.720  1.00  0.00     0.002 A 
HETATM   20  C10 UNL     1      15.583  17.135  23.523  1.00  0.00     0.000 A 
HETATM   21  C11 UNL     1      16.103  17.126  22.248  1.00  0.00     0.002 A 
HETATM   22  C12 UNL     1      15.302  16.737  21.191  1.00  0.00     0.031 A 
ENDBRANCH  15  17
ENDBRANCH   5  15
TORSDOF 4
ENDMDL
MODEL 5
REMARK VINA RESULT: -6.470361381      1.023      1.798
REMARK  4 active torsions:
REMARK  status: ('A' for Active; 'I' for Inactive)
REMARK       I    between atoms: C1_2  and  N4_13 
REMARK    1  A    between atoms: N2_3  and  N3_5 
REMARK    2  A    between atoms: C2_7  and  C3_8 
REMARK    3  A    between atoms: N4_13  and  N5_15 
REMARK    4  A    between atoms: N5_15  and  C7_17 
ROOT
HETATM    1  N1  UNL     1      12.559  17.050  19.985  1.00  0.00    -0.061 NA
HETATM    2  C1  UNL     1      13.169  16.163  19.049  1.00  0.00     0.222 C 
HETATM    3  N2  UNL     1      14.341  15.740  19.263  1.00  0.00    -0.273 N 
ATOM      4  H2  UNL     1      14.759  15.107  18.580  1.00  0.00     0.189 HD
HETATM    5  N4  UNL     1      12.464  15.782  17.904  1.00  0.00    -0.272 N 
ATOM      6  H4  UNL     1      11.449  15.877  17.873  1.00  0.00     0.189 HD
ENDROOT
BRANCH   3   7
HETATM    7  N3  UNL     1      15.080  16.086  20.365  1.00  0.00    -0.308 N 
HETATM    8  C2  UNL     1      16.085  16.890  20.367  1.00  0.00     0.126 C 
ATOM      9  H3  UNL     1      14.811  15.671  21.257  1.00  0.00     0.186 HD
BRANCH   8  10
HETATM   10  C3  UNL     1      16.753  17.137  21.668  1.00  0.00     0.021 A 
HETATM   11  C4  UNL     1      16.151  17.360  22.879  1.00  0.00     0.021 A 
HETATM   12  C5  UNL     1      16.945  17.556  23.934  1.00  0.00     0.008 A 
HETATM   13  C6  UNL     1      18.298  17.517  23.718  1.00  0.00     0.050 A 
HETATM   14  S1  UNL     1      18.410  17.207  22.044  1.00  0.00    -0.101 SA
ENDBRANCH   8  10
ENDBRANCH   3   7
BRANCH   5  15
HETATM   15  N5  UNL     1      13.149  15.275  16.808  1.00  0.00    -0.298 N 
ATOM     16  H5  UNL     1      13.357  14.277  16.779  1.00  0.00     0.187 HD
BRANCH  15  17
HETATM   17  C7  UNL     1      13.572  16.091  15.725  1.00  0.00     0.048 A 
HETATM   18  C8  UNL     1      14.457  15.592  14.803  1.00  0.00     0.031 A 
HETATM   19  C9  UNL     1      14.876  16.393  13.747  1.00  0.00     0.002 A 
HETATM   20  C10 UNL     1      14.419  17.687  13.607  1.00  0.00     0.000 A 
HETATM   21  C11 UNL     1      13.531  18.192  14.531  1.00  0.00     0.002 A 
HETATM   22  C12 UNL     1      13.115  17.394  15.580  1.00  0.00     0.031 A 
ENDBRANCH  15  17
ENDBRANCH   5  15
TORSDOF 4
ENDMDL
