MODEL 1
REMARK VINA RESULT: -7.301893731      0.000      0.000
REMARK  6 active torsions:
REMARK  status: ('A' for Active; 'I' for Inactive)
REMARK    1  A    between atoms: C1_2  and  C2_3 
REMARK    2  A    between atoms: C1_2  and  C3_10 
REMARK    3  A    between atoms: C2_3  and  O2_4 
REMARK    4  A    between atoms: N1_6  and  O3_8 
REMARK    5  A    between atoms: C8_15  and  N2_16 
REMARK    6  A    between atoms: N2_16  and  C9_18 
ROOT
HETATM    1  C3  UNL     1      17.364  17.534  21.879  1.00  0.00     0.045 A 
HETATM    2  C4  UNL     1      17.729  17.464  23.227  1.00  0.00     0.018 A 
HETATM    3  C5  UNL     1      16.850  17.124  24.249  1.00  0.00     0.001 A 
HETATM    4  C6  UNL     1      15.557  16.841  23.945  1.00  0.00     0.002 A 
HETATM    5  C7  UNL     1      15.167  16.900  22.629  1.00  0.00     0.030 A 
HETATM    6  C8  UNL     1      16.045  17.240  21.590  1.00  0.00     0.042 A 
ENDROOT
BRANCH   1   7
HETATM    7  C1  UNL     1      18.302  17.954  20.877  1.00  0.00     0.236 C 
HETATM    8  O1  UNL     1      18.804  19.125  20.943  1.00  0.00    -0.283 OA
BRANCH   7   9
HETATM    9  C2  UNL     1      18.761  17.177  19.759  1.00  0.00     0.212 C 
HETATM   10  N1  UNL     1      20.000  16.725  19.703  1.00  0.00    -0.244 N 
ATOM     11  H1  UNL     1      20.292  16.177  18.893  1.00  0.00     0.196 HD
BRANCH   9  12
HETATM   12  O2  UNL     1      18.018  16.818  18.657  1.00  0.00    -0.342 OA
ATOM     13  H2  UNL     1      17.071  16.753  18.615  1.00  0.00     0.219 HD
ENDBRANCH   9  12
BRANCH  10  14
HETATM   14  O3  UNL     1      20.893  16.970  20.689  1.00  0.00    -0.288 OA
ATOM     15  H3  UNL     1      21.411  16.276  21.079  1.00  0.00     0.244 HD
ENDBRANCH  10  14
ENDBRANCH   7   9
ENDBRANCH   1   7
BRANCH   6  16
HETATM   16  N2  UNL     1      15.513  17.186  20.280  1.00  0.00    -0.382 N 
ATOM     17  H2  UNL     1      15.895  17.785  19.549  1.00  0.00     0.160 HD
BRANCH  16  18
HETATM   18  C9  UNL     1      14.416  16.271  19.975  1.00  0.00     0.113 C 
HETATM   19  C10 UNL     1      13.756  16.628  18.628  1.00  0.00     0.059 C 
HETATM   20  C11 UNL     1      14.102  15.330  17.912  1.00  0.00     0.126 C 
HETATM   21  C12 UNL     1      13.802  14.238  18.889  1.00  0.00     0.066 C 
HETATM   22  O4  UNL     1      15.456  15.174  18.275  1.00  0.00    -0.378 OA
HETATM   23  C13 UNL     1      14.967  14.929  19.565  1.00  0.00     0.147 C 
ENDBRANCH  16  18
ENDBRANCH   6  16
TORSDOF 6
ENDMDL
MODEL 2
REMARK VINA RESULT: -7.298686372      3.658      5.496
REMARK  6 active torsions:
REMARK  status: ('A' for Active; 'I' for Inactive)
REMARK    1  A    between atoms: C1_2  and  C2_3 
REMARK    2  A    between atoms: C1_2  and  C3_10 
REMARK    3  A    between atoms: C2_3  and  O2_4 
REMARK    4  A    between atoms: N1_6  and  O3_8 
REMARK    5  A    between atoms: C8_15  and  N2_16 
REMARK    6  A    between atoms: N2_16  and  C9_18 
ROOT
HETATM    1  C3  UNL     1      15.140  16.590  19.087  1.00  0.00     0.045 A 
HETATM    2  C4  UNL     1      16.096  16.934  20.047  1.00  0.00     0.018 A 
HETATM    3  C5  UNL     1      17.246  17.663  19.766  1.00  0.00     0.001 A 
HETATM    4  C6  UNL     1      17.475  18.074  18.492  1.00  0.00     0.002 A 
HETATM    5  C7  UNL     1      16.554  17.752  17.525  1.00  0.00     0.030 A 
HETATM    6  C8  UNL     1      15.390  17.019  17.798  1.00  0.00     0.042 A 
ENDROOT
BRANCH   1   7
HETATM    7  C1  UNL     1      14.004  15.780  19.427  1.00  0.00     0.236 C 
HETATM    8  O1  UNL     1      13.155  16.220  20.271  1.00  0.00    -0.283 OA
BRANCH   7   9
HETATM    9  C2  UNL     1      13.697  14.477  18.905  1.00  0.00     0.212 C 
HETATM   10  N1  UNL     1      12.676  14.290  18.091  1.00  0.00    -0.244 N 
ATOM     11  H1  UNL     1      12.487  13.351  17.740  1.00  0.00     0.196 HD
BRANCH   9  12
HETATM   12  O2  UNL     1      14.384  13.313  19.168  1.00  0.00    -0.342 OA
ATOM     13  H2  UNL     1      15.328  13.217  19.217  1.00  0.00     0.219 HD
ENDBRANCH   9  12
BRANCH  10  14
HETATM   14  O3  UNL     1      11.873  15.309  17.709  1.00  0.00    -0.288 OA
ATOM     15  H3  UNL     1      11.063  15.158  17.235  1.00  0.00     0.244 HD
ENDBRANCH  10  14
ENDBRANCH   7   9
ENDBRANCH   1   7
BRANCH   6  16
HETATM   16  N2  UNL     1      14.502  16.831  16.712  1.00  0.00    -0.382 N 
ATOM     17  H2  UNL     1      14.128  15.904  16.513  1.00  0.00     0.160 HD
BRANCH  16  18
HETATM   18  C9  UNL     1      14.121  17.967  15.876  1.00  0.00     0.113 C 
HETATM   19  C10 UNL     1      13.630  17.495  14.493  1.00  0.00     0.059 C 
HETATM   20  C11 UNL     1      12.206  18.016  14.623  1.00  0.00     0.126 C 
HETATM   21  C12 UNL     1      12.331  19.390  15.200  1.00  0.00     0.066 C 
HETATM   22  O4  UNL     1      11.878  17.585  15.925  1.00  0.00    -0.378 OA
HETATM   23  C13 UNL     1      12.811  18.539  16.356  1.00  0.00     0.147 C 
ENDBRANCH  16  18
ENDBRANCH   6  16
TORSDOF 6
ENDMDL
MODEL 3
REMARK VINA RESULT: -7.293760565      3.199      4.659
REMARK  6 active torsions:
REMARK  status: ('A' for Active; 'I' for Inactive)
REMARK    1  A    between atoms: C1_2  and  C2_3 
REMARK    2  A    between atoms: C1_2  and  C3_10 
REMARK    3  A    between atoms: C2_3  and  O2_4 
REMARK    4  A    between atoms: N1_6  and  O3_8 
REMARK    5  A    between atoms: C8_15  and  N2_16 
REMARK    6  A    between atoms: N2_16  and  C9_18 
ROOT
HETATM    1  C3  UNL     1      15.293  16.949  21.486  1.00  0.00     0.045 A 
HETATM    2  C4  UNL     1      16.536  17.333  21.999  1.00  0.00     0.018 A 
HETATM    3  C5  UNL     1      17.610  17.727  21.209  1.00  0.00     0.001 A 
HETATM    4  C6  UNL     1      17.467  17.748  19.859  1.00  0.00     0.002 A 
HETATM    5  C7  UNL     1      16.258  17.378  19.323  1.00  0.00     0.030 A 
HETATM    6  C8  UNL     1      15.168  16.980  20.110  1.00  0.00     0.042 A 
ENDROOT
BRANCH   1   7
HETATM    7  C1  UNL     1      14.242  16.490  22.349  1.00  0.00     0.236 C 
HETATM    8  O1  UNL     1      13.290  15.797  21.858  1.00  0.00    -0.283 OA
BRANCH   7   9
HETATM    9  C2  UNL     1      14.132  16.728  23.761  1.00  0.00     0.212 C 
HETATM   10  N1  UNL     1      13.011  17.176  24.294  1.00  0.00    -0.244 N 
ATOM     11  H1  UNL     1      12.968  17.334  25.301  1.00  0.00     0.196 HD
BRANCH   9  12
HETATM   12  O2  UNL     1      15.122  16.535  24.699  1.00  0.00    -0.342 OA
ATOM     13  H2  UNL     1      15.542  17.211  25.219  1.00  0.00     0.219 HD
ENDBRANCH   9  12
BRANCH  10  14
HETATM   14  O3  UNL     1      11.916  17.430  23.541  1.00  0.00    -0.288 OA
ATOM     15  H3  UNL     1      11.640  18.318  23.343  1.00  0.00     0.244 HD
ENDBRANCH  10  14
ENDBRANCH   7   9
ENDBRANCH   1   7
BRANCH   6  16
HETATM   16  N2  UNL     1      13.966  16.699  19.416  1.00  0.00    -0.382 N 
ATOM     17  H2  UNL     1      13.074  17.016  19.793  1.00  0.00     0.160 HD
BRANCH  16  18
HETATM   18  C9  UNL     1      14.006  15.954  18.161  1.00  0.00     0.113 C 
HETATM   19  C10 UNL     1      13.204  14.642  18.270  1.00  0.00     0.059 C 
HETATM   20  C11 UNL     1      12.160  14.984  17.217  1.00  0.00     0.126 C 
HETATM   21  C12 UNL     1      12.920  15.572  16.072  1.00  0.00     0.066 C 
HETATM   22  O4  UNL     1      11.835  16.308  17.578  1.00  0.00    -0.378 OA
HETATM   23  C13 UNL     1      13.126  16.628  17.137  1.00  0.00     0.147 C 
ENDBRANCH  16  18
ENDBRANCH   6  16
TORSDOF 6
ENDMDL
MODEL 4
REMARK VINA RESULT: -7.201472366      2.303      5.816
REMARK  6 active torsions:
REMARK  status: ('A' for Active; 'I' for Inactive)
REMARK    1  A    between atoms: C1_2  and  C2_3 
REMARK    2  A    between atoms: C1_2  and  C3_10 
REMARK    3  A    between atoms: C2_3  and  O2_4 
REMARK    4  A    between atoms: N1_6  and  O3_8 
REMARK    5  A    between atoms: C8_15  and  N2_16 
REMARK    6  A    between atoms: N2_16  and  C9_18 
ROOT
HETATM    1  C3  UNL     1      15.210  16.605  18.741  1.00  0.00     0.045 A 
HETATM    2  C4  UNL     1      15.295  17.048  17.418  1.00  0.00     0.018 A 
HETATM    3  C5  UNL     1      16.332  17.835  16.931  1.00  0.00     0.001 A 
HETATM    4  C6  UNL     1      17.331  18.208  17.771  1.00  0.00     0.002 A 
HETATM    5  C7  UNL     1      17.278  17.789  19.078  1.00  0.00     0.030 A 
HETATM    6  C8  UNL     1      16.237  16.994  19.579  1.00  0.00     0.042 A 
ENDROOT
BRANCH   1   7
HETATM    7  C1  UNL     1      14.080  15.848  19.201  1.00  0.00     0.236 C 
HETATM    8  O1  UNL     1      13.277  16.374  20.041  1.00  0.00    -0.283 OA
BRANCH   7   9
HETATM    9  C2  UNL     1      13.732  14.510  18.809  1.00  0.00     0.212 C 
HETATM   10  N1  UNL     1      12.663  14.269  18.074  1.00  0.00    -0.244 N 
ATOM     11  H1  UNL     1      12.446  13.306  17.815  1.00  0.00     0.196 HD
BRANCH   9  12
HETATM   12  O2  UNL     1      14.424  13.364  19.128  1.00  0.00    -0.342 OA
ATOM     13  H2  UNL     1      14.243  12.783  19.858  1.00  0.00     0.219 HD
ENDBRANCH   9  12
BRANCH  10  14
HETATM   14  O3  UNL     1      11.847  15.263  17.656  1.00  0.00    -0.288 OA
ATOM     15  H3  UNL     1      12.112  15.878  16.982  1.00  0.00     0.244 HD
ENDBRANCH  10  14
ENDBRANCH   7   9
ENDBRANCH   1   7
BRANCH   6  16
HETATM   16  N2  UNL     1      16.361  16.581  20.928  1.00  0.00    -0.382 N 
ATOM     17  H2  UNL     1      16.757  15.668  21.148  1.00  0.00     0.160 HD
BRANCH  16  18
HETATM   18  C9  UNL     1      15.920  17.465  22.004  1.00  0.00     0.113 C 
HETATM   19  C10 UNL     1      15.217  16.668  23.121  1.00  0.00     0.059 C 
HETATM   20  C11 UNL     1      16.217  16.986  24.223  1.00  0.00     0.126 C 
HETATM   21  C12 UNL     1      16.504  18.448  24.098  1.00  0.00     0.066 C 
HETATM   22  O4  UNL     1      17.438  16.769  23.550  1.00  0.00    -0.378 OA
HETATM   23  C13 UNL     1      17.109  17.916  22.815  1.00  0.00     0.147 C 
ENDBRANCH  16  18
ENDBRANCH   6  16
TORSDOF 6
ENDMDL
MODEL 5
REMARK VINA RESULT: -7.124282260      3.436      5.054
REMARK  6 active torsions:
REMARK  status: ('A' for Active; 'I' for Inactive)
REMARK    1  A    between atoms: C1_2  and  C2_3 
REMARK    2  A    between atoms: C1_2  and  C3_10 
REMARK    3  A    between atoms: C2_3  and  O2_4 
REMARK    4  A    between atoms: N1_6  and  O3_8 
REMARK    5  A    between atoms: C8_15  and  N2_16 
REMARK    6  A    between atoms: N2_16  and  C9_18 
ROOT
HETATM    1  C3  UNL     1      16.099  16.850  18.651  1.00  0.00     0.045 A 
HETATM    2  C4  UNL     1      17.482  17.051  18.676  1.00  0.00     0.018 A 
HETATM    3  C5  UNL     1      18.170  17.813  17.739  1.00  0.00     0.001 A 
HETATM    4  C6  UNL     1      17.480  18.406  16.732  1.00  0.00     0.002 A 
HETATM    5  C7  UNL     1      16.118  18.231  16.680  1.00  0.00     0.030 A 
HETATM    6  C8  UNL     1      15.414  17.465  17.621  1.00  0.00     0.042 A 
ENDROOT
BRANCH   1   7
HETATM    7  C1  UNL     1      15.453  16.000  19.611  1.00  0.00     0.236 C 
HETATM    8  O1  UNL     1      15.503  16.306  20.849  1.00  0.00    -0.283 OA
BRANCH   7   9
HETATM    9  C2  UNL     1      14.726  14.793  19.329  1.00  0.00     0.212 C 
HETATM   10  N1  UNL     1      13.408  14.762  19.376  1.00  0.00    -0.244 N 
ATOM     11  H1  UNL     1      12.924  13.888  19.170  1.00  0.00     0.196 HD
BRANCH   9  12
HETATM   12  O2  UNL     1      15.271  13.574  18.994  1.00  0.00    -0.342 OA
ATOM     13  H2  UNL     1      15.975  13.129  19.452  1.00  0.00     0.219 HD
ENDBRANCH   9  12
BRANCH  10  14
HETATM   14  O3  UNL     1      12.680  15.859  19.688  1.00  0.00    -0.288 OA
ATOM     15  H3  UNL     1      12.440  16.504  19.032  1.00  0.00     0.244 HD
ENDBRANCH  10  14
ENDBRANCH   7   9
ENDBRANCH   1   7
BRANCH   6  16
HETATM   16  N2  UNL     1      14.006  17.439  17.476  1.00  0.00    -0.382 N 
ATOM     17  H2  UNL     1      13.407  17.666  18.269  1.00  0.00     0.160 HD
BRANCH  16  18
HETATM   18  C9  UNL     1      13.412  17.084  16.190  1.00  0.00     0.113 C 
HETATM   19  C10 UNL     1      13.723  15.620  15.821  1.00  0.00     0.059 C 
HETATM   20  C11 UNL     1      12.284  15.126  15.825  1.00  0.00     0.126 C 
HETATM   21  C12 UNL     1      11.497  16.171  15.100  1.00  0.00     0.066 C 
HETATM   22  O4  UNL     1      11.802  15.705  17.018  1.00  0.00    -0.378 OA
HETATM   23  C13 UNL     1      11.919  16.927  16.341  1.00  0.00     0.147 C 
ENDBRANCH  16  18
ENDBRANCH   6  16
TORSDOF 6
ENDMDL
