MODEL 1
REMARK VINA RESULT: -6.842868006      0.000      0.000
REMARK  7 active torsions:
REMARK  status: ('A' for Active; 'I' for Inactive)
REMARK    1  A    between atoms: C2_2  and  C10_17 
REMARK    2  A    between atoms: C3_3  and  C4_4 
REMARK    3  A    between atoms: C4_4  and  C5_5 
REMARK    4  A    between atoms: C7_9  and  C8_10 
REMARK    5  A    between atoms: C8_10  and  O1_11 
REMARK    6  A    between atoms: C10_17  and  O2_18 
REMARK    7  A    between atoms: N2_20  and  N3_22 
ROOT
HETATM    1  C5  UNL     1      15.340  16.251  19.662  1.00  0.00     0.094 C 
HETATM    2  S1  UNL     1      13.721  16.307  20.504  1.00  0.00    -0.090 SA
HETATM    3  S2  UNL     1      12.641  17.041  18.785  1.00  0.00    -0.088 SA
HETATM    4  C6  UNL     1      14.069  17.035  17.672  1.00  0.00     0.123 C 
HETATM    5  C7  UNL     1      13.888  15.850  16.707  1.00  0.00     0.226 C 
HETATM    6  N1  UNL     1      14.505  15.027  17.731  1.00  0.00    -0.061 N 
ATOM      7  H11 UNL     1      15.057  14.205  17.484  1.00  0.00     0.278 HD
ATOM      8  H12 UNL     1      13.940  14.437  18.342  1.00  0.00     0.278 HD
HETATM    9  C9  UNL     1      15.134  16.218  18.227  1.00  0.00     0.217 C 
ENDROOT
BRANCH   1  10
HETATM   10  C4  UNL     1      16.254  17.344  20.170  1.00  0.00     0.046 C 
BRANCH  10  11
HETATM   11  C3  UNL     1      16.409  17.403  21.588  1.00  0.00    -0.014 C 
HETATM   12  C2  UNL     1      17.528  17.263  22.250  1.00  0.00    -0.013 C 
HETATM   13  C1  UNL     1      18.854  17.017  21.642  1.00  0.00     0.052 C 
BRANCH  12  14
HETATM   14  C10 UNL     1      17.523  17.348  23.736  1.00  0.00     0.160 C 
HETATM   15  N2  UNL     1      16.572  17.088  24.490  1.00  0.00    -0.286 N 
ATOM     16  H2  UNL     1      16.778  17.209  25.482  1.00  0.00     0.188 HD
BRANCH  14  17
HETATM   17  O2  UNL     1      18.742  17.771  24.320  1.00  0.00    -0.345 OA
ATOM     18  H2  UNL     1      19.270  17.078  24.699  1.00  0.00     0.219 HD
ENDBRANCH  14  17
BRANCH  15  19
HETATM   19  N3  UNL     1      15.304  16.670  24.232  1.00  0.00    -0.343 N 
ATOM     20  H32 UNL     1      15.211  16.222  23.320  1.00  0.00     0.176 HD
ATOM     21  H31 UNL     1      14.448  16.726  24.782  1.00  0.00     0.176 HD
ENDBRANCH  15  19
ENDBRANCH  12  14
ENDBRANCH  10  11
ENDBRANCH   1  10
BRANCH   5  22
HETATM   22  C8  UNL     1      14.725  15.948  15.454  1.00  0.00     0.198 C 
BRANCH  22  23
HETATM   23  O1  UNL     1      14.477  14.883  14.610  1.00  0.00    -0.399 OA
ATOM     24  H1  UNL     1      13.863  15.126  13.927  1.00  0.00     0.209 HD
ENDBRANCH  22  23
ENDBRANCH   5  22
TORSDOF 7
ENDMDL
MODEL 2
REMARK VINA RESULT: -6.668374984      2.713      3.151
REMARK  7 active torsions:
REMARK  status: ('A' for Active; 'I' for Inactive)
REMARK    1  A    between atoms: C2_2  and  C10_17 
REMARK    2  A    between atoms: C3_3  and  C4_4 
REMARK    3  A    between atoms: C4_4  and  C5_5 
REMARK    4  A    between atoms: C7_9  and  C8_10 
REMARK    5  A    between atoms: C8_10  and  O1_11 
REMARK    6  A    between atoms: C10_17  and  O2_18 
REMARK    7  A    between atoms: N2_20  and  N3_22 
ROOT
HETATM    1  C5  UNL     1      15.110  16.151  17.991  1.00  0.00     0.094 C 
HETATM    2  S1  UNL     1      14.953  14.583  18.914  1.00  0.00    -0.090 SA
HETATM    3  S2  UNL     1      12.828  14.386  18.593  1.00  0.00    -0.088 SA
HETATM    4  C6  UNL     1      12.672  15.875  17.574  1.00  0.00     0.123 C 
HETATM    5  C7  UNL     1      12.472  15.413  16.120  1.00  0.00     0.226 C 
HETATM    6  N1  UNL     1      13.918  15.333  16.032  1.00  0.00    -0.061 N 
ATOM      7  H11 UNL     1      14.401  15.497  15.148  1.00  0.00     0.278 HD
ATOM      8  H12 UNL     1      14.401  14.437  16.105  1.00  0.00     0.278 HD
HETATM    9  C9  UNL     1      13.978  16.295  17.096  1.00  0.00     0.217 C 
ENDROOT
BRANCH   1  10
HETATM   10  C4  UNL     1      15.358  17.310  18.929  1.00  0.00     0.046 C 
BRANCH  10  11
HETATM   11  C3  UNL     1      16.718  17.503  19.320  1.00  0.00    -0.014 C 
HETATM   12  C2  UNL     1      17.204  17.361  20.525  1.00  0.00    -0.013 C 
HETATM   13  C1  UNL     1      16.424  16.969  21.719  1.00  0.00     0.052 C 
BRANCH  12  14
HETATM   14  C10 UNL     1      18.652  17.604  20.771  1.00  0.00     0.160 C 
HETATM   15  N2  UNL     1      19.559  17.598  19.924  1.00  0.00    -0.286 N 
ATOM     16  H2  UNL     1      20.487  17.790  20.302  1.00  0.00     0.188 HD
BRANCH  14  17
HETATM   17  O2  UNL     1      18.998  17.867  22.119  1.00  0.00    -0.345 OA
ATOM     18  H2  UNL     1      18.331  17.643  22.758  1.00  0.00     0.219 HD
ENDBRANCH  14  17
BRANCH  15  19
HETATM   19  N3  UNL     1      19.538  17.380  18.582  1.00  0.00    -0.343 N 
ATOM     20  H32 UNL     1      19.050  16.522  18.325  1.00  0.00     0.176 HD
ATOM     21  H31 UNL     1      19.919  17.917  17.804  1.00  0.00     0.176 HD
ENDBRANCH  15  19
ENDBRANCH  12  14
ENDBRANCH  10  11
ENDBRANCH   1  10
BRANCH   5  22
HETATM   22  C8  UNL     1      11.888  16.472  15.216  1.00  0.00     0.198 C 
BRANCH  22  23
HETATM   23  O1  UNL     1      10.573  16.735  15.547  1.00  0.00    -0.399 OA
ATOM     24  H1  UNL     1      10.102  17.096  14.806  1.00  0.00     0.209 HD
ENDBRANCH  22  23
ENDBRANCH   5  22
TORSDOF 7
ENDMDL
MODEL 3
REMARK VINA RESULT: -6.665388929      2.629      2.989
REMARK  7 active torsions:
REMARK  status: ('A' for Active; 'I' for Inactive)
REMARK    1  A    between atoms: C2_2  and  C10_17 
REMARK    2  A    between atoms: C3_3  and  C4_4 
REMARK    3  A    between atoms: C4_4  and  C5_5 
REMARK    4  A    between atoms: C7_9  and  C8_10 
REMARK    5  A    between atoms: C8_10  and  O1_11 
REMARK    6  A    between atoms: C10_17  and  O2_18 
REMARK    7  A    between atoms: N2_20  and  N3_22 
ROOT
HETATM    1  C5  UNL     1      15.325  16.195  17.787  1.00  0.00     0.094 C 
HETATM    2  S1  UNL     1      15.181  14.758  18.903  1.00  0.00    -0.090 SA
HETATM    3  S2  UNL     1      13.034  14.610  18.745  1.00  0.00    -0.088 SA
HETATM    4  C6  UNL     1      12.857  15.971  17.564  1.00  0.00     0.123 C 
HETATM    5  C7  UNL     1      12.542  15.346  16.194  1.00  0.00     0.226 C 
HETATM    6  N1  UNL     1      13.977  15.198  16.023  1.00  0.00    -0.061 N 
ATOM      7  H11 UNL     1      14.403  15.235  15.096  1.00  0.00     0.278 HD
ATOM      8  H12 UNL     1      14.433  14.298  16.174  1.00  0.00     0.278 HD
HETATM    9  C9  UNL     1      14.140  16.277  16.955  1.00  0.00     0.217 C 
ENDROOT
BRANCH   1  10
HETATM   10  C4  UNL     1      15.675  17.448  18.559  1.00  0.00     0.046 C 
BRANCH  10  11
HETATM   11  C3  UNL     1      16.515  17.253  19.696  1.00  0.00    -0.014 C 
HETATM   12  C2  UNL     1      17.719  17.736  19.862  1.00  0.00    -0.013 C 
HETATM   13  C1  UNL     1      18.437  18.587  18.887  1.00  0.00     0.052 C 
BRANCH  12  14
HETATM   14  C10 UNL     1      18.471  17.436  21.110  1.00  0.00     0.160 C 
HETATM   15  N2  UNL     1      19.584  16.893  21.193  1.00  0.00    -0.286 N 
ATOM     16  H2  UNL     1      19.925  16.780  22.148  1.00  0.00     0.188 HD
BRANCH  14  17
HETATM   17  O2  UNL     1      17.824  17.820  22.310  1.00  0.00    -0.345 OA
ATOM     18  H2  UNL     1      17.793  18.757  22.470  1.00  0.00     0.219 HD
ENDBRANCH  14  17
BRANCH  15  19
HETATM   19  N3  UNL     1      20.430  16.423  20.239  1.00  0.00    -0.343 N 
ATOM     20  H32 UNL     1      20.328  15.421  20.076  1.00  0.00     0.176 HD
ATOM     21  H31 UNL     1      21.136  16.890  19.671  1.00  0.00     0.176 HD
ENDBRANCH  15  19
ENDBRANCH  12  14
ENDBRANCH  10  11
ENDBRANCH   1  10
BRANCH   5  22
HETATM   22  C8  UNL     1      11.933  16.312  15.206  1.00  0.00     0.198 C 
BRANCH  22  23
HETATM   23  O1  UNL     1      10.643  16.644  15.571  1.00  0.00    -0.399 OA
ATOM     24  H1  UNL     1      10.609  17.519  15.938  1.00  0.00     0.209 HD
ENDBRANCH  22  23
ENDBRANCH   5  22
TORSDOF 7
ENDMDL
MODEL 4
REMARK VINA RESULT: -6.653929695      2.420      2.787
REMARK  7 active torsions:
REMARK  status: ('A' for Active; 'I' for Inactive)
REMARK    1  A    between atoms: C2_2  and  C10_17 
REMARK    2  A    between atoms: C3_3  and  C4_4 
REMARK    3  A    between atoms: C4_4  and  C5_5 
REMARK    4  A    between atoms: C7_9  and  C8_10 
REMARK    5  A    between atoms: C8_10  and  O1_11 
REMARK    6  A    between atoms: C10_17  and  O2_18 
REMARK    7  A    between atoms: N2_20  and  N3_22 
ROOT
HETATM    1  C5  UNL     1      15.324  16.165  17.878  1.00  0.00     0.094 C 
HETATM    2  S1  UNL     1      15.119  14.639  18.859  1.00  0.00    -0.090 SA
HETATM    3  S2  UNL     1      12.968  14.592  18.687  1.00  0.00    -0.088 SA
HETATM    4  C6  UNL     1      12.850  16.060  17.635  1.00  0.00     0.123 C 
HETATM    5  C7  UNL     1      12.516  15.576  16.213  1.00  0.00     0.226 C 
HETATM    6  N1  UNL     1      13.944  15.386  16.030  1.00  0.00    -0.061 N 
ATOM      7  H11 UNL     1      14.375  15.490  15.111  1.00  0.00     0.278 HD
ATOM      8  H12 UNL     1      14.364  14.459  16.100  1.00  0.00     0.278 HD
HETATM    9  C9  UNL     1      14.147  16.369  17.057  1.00  0.00     0.217 C 
ENDROOT
BRANCH   1  10
HETATM   10  C4  UNL     1      15.720  17.327  18.760  1.00  0.00     0.046 C 
BRANCH  10  11
HETATM   11  C3  UNL     1      16.775  17.063  19.686  1.00  0.00    -0.014 C 
HETATM   12  C2  UNL     1      17.981  17.567  19.650  1.00  0.00    -0.013 C 
HETATM   13  C1  UNL     1      18.478  18.517  18.629  1.00  0.00     0.052 C 
BRANCH  12  14
HETATM   14  C10 UNL     1      18.973  17.186  20.692  1.00  0.00     0.160 C 
HETATM   15  N2  UNL     1      18.830  17.282  21.921  1.00  0.00    -0.286 N 
ATOM     16  H2  UNL     1      19.634  16.962  22.462  1.00  0.00     0.188 HD
BRANCH  14  17
HETATM   17  O2  UNL     1      20.194  16.664  20.199  1.00  0.00    -0.345 OA
ATOM     18  H2  UNL     1      20.969  17.164  20.430  1.00  0.00     0.219 HD
ENDBRANCH  14  17
BRANCH  15  19
HETATM   19  N3  UNL     1      17.795  17.735  22.676  1.00  0.00    -0.343 N 
ATOM     20  H32 UNL     1      16.998  17.098  22.683  1.00  0.00     0.176 HD
ATOM     21  H31 UNL     1      17.681  18.586  23.226  1.00  0.00     0.176 HD
ENDBRANCH  15  19
ENDBRANCH  12  14
ENDBRANCH  10  11
ENDBRANCH   1  10
BRANCH   5  22
HETATM   22  C8  UNL     1      11.950  16.651  15.317  1.00  0.00     0.198 C 
BRANCH  22  23
HETATM   23  O1  UNL     1      10.569  16.633  15.336  1.00  0.00    -0.399 OA
ATOM     24  H1  UNL     1      10.239  16.859  16.198  1.00  0.00     0.209 HD
ENDBRANCH  22  23
ENDBRANCH   5  22
TORSDOF 7
ENDMDL
MODEL 5
REMARK VINA RESULT: -6.508857233      2.176      2.408
REMARK  7 active torsions:
REMARK  status: ('A' for Active; 'I' for Inactive)
REMARK    1  A    between atoms: C2_2  and  C10_17 
REMARK    2  A    between atoms: C3_3  and  C4_4 
REMARK    3  A    between atoms: C4_4  and  C5_5 
REMARK    4  A    between atoms: C7_9  and  C8_10 
REMARK    5  A    between atoms: C8_10  and  O1_11 
REMARK    6  A    between atoms: C10_17  and  O2_18 
REMARK    7  A    between atoms: N2_20  and  N3_22 
ROOT
HETATM    1  C5  UNL     1      15.343  16.055  18.336  1.00  0.00     0.094 C 
HETATM    2  S1  UNL     1      15.129  14.424  19.129  1.00  0.00    -0.090 SA
HETATM    3  S2  UNL     1      12.988  14.363  18.859  1.00  0.00    -0.088 SA
HETATM    4  C6  UNL     1      12.884  15.940  17.975  1.00  0.00     0.123 C 
HETATM    5  C7  UNL     1      12.620  15.615  16.494  1.00  0.00     0.226 C 
HETATM    6  N1  UNL     1      14.057  15.470  16.354  1.00  0.00    -0.061 N 
ATOM      7  H11 UNL     1      14.524  15.684  15.472  1.00  0.00     0.278 HD
ATOM      8  H12 UNL     1      14.493  14.548  16.336  1.00  0.00     0.278 HD
HETATM    9  C9  UNL     1      14.197  16.333  17.493  1.00  0.00     0.217 C 
ENDROOT
BRANCH   1  10
HETATM   10  C4  UNL     1      15.678  17.116  19.361  1.00  0.00     0.046 C 
BRANCH  10  11
HETATM   11  C3  UNL     1      15.196  16.866  20.681  1.00  0.00    -0.014 C 
HETATM   12  C2  UNL     1      15.825  17.129  21.797  1.00  0.00    -0.013 C 
HETATM   13  C1  UNL     1      17.168  17.741  21.895  1.00  0.00     0.052 C 
BRANCH  12  14
HETATM   14  C10 UNL     1      15.184  16.803  23.101  1.00  0.00     0.160 C 
HETATM   15  N2  UNL     1      15.742  16.753  24.209  1.00  0.00    -0.286 N 
ATOM     16  H2  UNL     1      15.119  16.511  24.980  1.00  0.00     0.188 HD
BRANCH  14  17
HETATM   17  O2  UNL     1      13.797  16.526  23.037  1.00  0.00    -0.345 OA
ATOM     18  H2  UNL     1      13.550  15.640  23.274  1.00  0.00     0.219 HD
ENDBRANCH  14  17
BRANCH  15  19
HETATM   19  N3  UNL     1      17.033  16.962  24.579  1.00  0.00    -0.343 N 
ATOM     20  H32 UNL     1      17.515  17.631  23.978  1.00  0.00     0.176 HD
ATOM     21  H31 UNL     1      17.590  16.573  25.338  1.00  0.00     0.176 HD
ENDBRANCH  15  19
ENDBRANCH  12  14
ENDBRANCH  10  11
ENDBRANCH   1  10
BRANCH   5  22
HETATM   22  C8  UNL     1      12.069  16.776  15.701  1.00  0.00     0.198 C 
BRANCH  22  23
HETATM   23  O1  UNL     1      10.709  16.638  15.504  1.00  0.00    -0.399 OA
ATOM     24  H1  UNL     1      10.521  15.890  14.950  1.00  0.00     0.209 HD
ENDBRANCH  22  23
ENDBRANCH   5  22
TORSDOF 7
ENDMDL
