MODEL 1
REMARK VINA RESULT: -7.437126839      0.000      0.000
REMARK  4 active torsions:
REMARK  status: ('A' for Active; 'I' for Inactive)
REMARK       I    between atoms: C1_2  and  N1_3 
REMARK       I    between atoms: C1_2  and  N3_13 
REMARK    1  A    between atoms: N1_3  and  N2_5 
REMARK    2  A    between atoms: C2_7  and  C3_8 
REMARK    3  A    between atoms: N3_13  and  N4_14 
REMARK    4  A    between atoms: N4_14  and  C7_16 
ROOT
HETATM    1  O1  UNL     1      11.689  17.198  23.919  1.00  0.00    -0.227 OA
HETATM    2  C1  UNL     1      12.443  17.045  23.116  1.00  0.00     0.430 C 
HETATM    3  N1  UNL     1      13.877  16.777  23.329  1.00  0.00    -0.238 N 
ATOM      4  H1  UNL     1      14.215  16.539  22.397  1.00  0.00     0.193 HD
HETATM    5  N3  UNL     1      12.413  17.119  21.690  1.00  0.00    -0.264 NA
ENDROOT
BRANCH   3   6
HETATM    6  N2  UNL     1      14.904  16.685  24.043  1.00  0.00    -0.306 N 
HETATM    7  C2  UNL     1      16.147  16.815  24.037  1.00  0.00     0.126 C 
ATOM      8  H2  UNL     1      14.618  16.398  24.979  1.00  0.00     0.186 HD
BRANCH   7   9
HETATM    9  C3  UNL     1      16.787  17.229  22.768  1.00  0.00     0.021 A 
HETATM   10  C4  UNL     1      16.058  17.153  21.589  1.00  0.00     0.021 A 
HETATM   11  C5  UNL     1      16.699  17.430  20.446  1.00  0.00     0.008 A 
HETATM   12  C6  UNL     1      18.029  17.774  20.553  1.00  0.00     0.050 A 
HETATM   13  S1  UNL     1      18.312  17.675  22.230  1.00  0.00    -0.101 SA
ENDBRANCH   7   9
ENDBRANCH   3   6
BRANCH   5  14
HETATM   14  N4  UNL     1      12.355  17.190  20.372  1.00  0.00    -0.231 N 
ATOM     15  H4  UNL     1      11.780  17.884  19.893  1.00  0.00     0.202 HD
BRANCH  14  16
HETATM   16  C7  UNL     1      13.157  16.223  19.645  1.00  0.00     0.061 A 
HETATM   17  C8  UNL     1      13.601  15.064  20.140  1.00  0.00     0.032 A 
HETATM   18  C9  UNL     1      14.618  14.339  19.422  1.00  0.00     0.002 A 
HETATM   19  C10 UNL     1      15.117  14.859  18.249  1.00  0.00     0.000 A 
HETATM   20  C11 UNL     1      14.615  16.056  17.752  1.00  0.00     0.002 A 
HETATM   21  C12 UNL     1      13.654  16.704  18.435  1.00  0.00     0.032 A 
ENDBRANCH  14  16
ENDBRANCH   5  14
TORSDOF 4
ENDMDL
MODEL 2
REMARK VINA RESULT: -7.261227371      1.847      4.581
REMARK  4 active torsions:
REMARK  status: ('A' for Active; 'I' for Inactive)
REMARK       I    between atoms: C1_2  and  N1_3 
REMARK       I    between atoms: C1_2  and  N3_13 
REMARK    1  A    between atoms: N1_3  and  N2_5 
REMARK    2  A    between atoms: C2_7  and  C3_8 
REMARK    3  A    between atoms: N3_13  and  N4_14 
REMARK    4  A    between atoms: N4_14  and  C7_16 
ROOT
HETATM    1  O1  UNL     1      10.471  18.358  21.922  1.00  0.00    -0.227 OA
HETATM    2  C1  UNL     1      11.383  17.749  21.734  1.00  0.00     0.430 C 
HETATM    3  N1  UNL     1      11.899  17.371  20.406  1.00  0.00    -0.238 N 
ATOM      4  H1  UNL     1      12.810  16.963  20.613  1.00  0.00     0.193 HD
HETATM    5  N3  UNL     1      12.311  17.054  22.568  1.00  0.00    -0.264 NA
ENDROOT
BRANCH   3   6
HETATM    6  N2  UNL     1      11.817  17.282  19.157  1.00  0.00    -0.306 N 
HETATM    7  C2  UNL     1      12.303  16.714  18.156  1.00  0.00     0.126 C 
ATOM      8  H2  UNL     1      11.076  17.908  18.840  1.00  0.00     0.186 HD
BRANCH   7   9
HETATM    9  C3  UNL     1      13.406  15.752  18.382  1.00  0.00     0.021 A 
HETATM   10  C4  UNL     1      13.142  14.570  19.060  1.00  0.00     0.021 A 
HETATM   11  C5  UNL     1      14.181  13.774  19.345  1.00  0.00     0.008 A 
HETATM   12  C6  UNL     1      15.420  14.205  18.926  1.00  0.00     0.050 A 
HETATM   13  S1  UNL     1      15.070  15.695  18.179  1.00  0.00    -0.101 SA
ENDBRANCH   7   9
ENDBRANCH   3   6
BRANCH   5  14
HETATM   14  N4  UNL     1      13.156  16.424  23.364  1.00  0.00    -0.231 N 
ATOM     15  H4  UNL     1      12.839  15.759  24.070  1.00  0.00     0.202 HD
BRANCH  14  16
HETATM   16  C7  UNL     1      14.561  16.733  23.175  1.00  0.00     0.061 A 
HETATM   17  C8  UNL     1      15.362  17.271  24.101  1.00  0.00     0.032 A 
HETATM   18  C9  UNL     1      16.645  17.791  23.700  1.00  0.00     0.002 A 
HETATM   19  C10 UNL     1      17.013  17.731  22.375  1.00  0.00     0.000 A 
HETATM   20  C11 UNL     1      16.165  17.143  21.445  1.00  0.00     0.002 A 
HETATM   21  C12 UNL     1      14.979  16.651  21.849  1.00  0.00     0.032 A 
ENDBRANCH  14  16
ENDBRANCH   5  14
TORSDOF 4
ENDMDL
MODEL 3
REMARK VINA RESULT: -7.255290483      3.243      5.622
REMARK  4 active torsions:
REMARK  status: ('A' for Active; 'I' for Inactive)
REMARK       I    between atoms: C1_2  and  N1_3 
REMARK       I    between atoms: C1_2  and  N3_13 
REMARK    1  A    between atoms: N1_3  and  N2_5 
REMARK    2  A    between atoms: C2_7  and  C3_8 
REMARK    3  A    between atoms: N3_13  and  N4_14 
REMARK    4  A    between atoms: N4_14  and  C7_16 
ROOT
HETATM    1  O1  UNL     1      13.925  12.991  19.770  1.00  0.00    -0.227 OA
HETATM    2  C1  UNL     1      13.689  14.064  19.597  1.00  0.00     0.430 C 
HETATM    3  N1  UNL     1      12.937  14.598  18.448  1.00  0.00    -0.238 N 
ATOM      4  H1  UNL     1      12.780  15.574  18.700  1.00  0.00     0.193 HD
HETATM    5  N3  UNL     1      14.034  15.282  20.257  1.00  0.00    -0.264 NA
ENDROOT
BRANCH   3   6
HETATM    6  N2  UNL     1      12.385  14.496  17.325  1.00  0.00    -0.306 N 
HETATM    7  C2  UNL     1      12.311  15.015  16.191  1.00  0.00     0.126 C 
ATOM      8  H2  UNL     1      11.765  13.686  17.346  1.00  0.00     0.186 HD
BRANCH   7   9
HETATM    9  C3  UNL     1      13.134  16.218  15.932  1.00  0.00     0.021 A 
HETATM   10  C4  UNL     1      14.420  16.061  15.434  1.00  0.00     0.021 A 
HETATM   11  C5  UNL     1      15.177  17.160  15.316  1.00  0.00     0.008 A 
HETATM   12  C6  UNL     1      14.598  18.351  15.696  1.00  0.00     0.050 A 
HETATM   13  S1  UNL     1      13.046  17.871  16.209  1.00  0.00    -0.101 SA
ENDBRANCH   7   9
ENDBRANCH   3   6
BRANCH   5  14
HETATM   14  N4  UNL     1      14.365  16.393  20.891  1.00  0.00    -0.231 N 
ATOM     15  H4  UNL     1      13.837  16.735  21.693  1.00  0.00     0.202 HD
BRANCH  14  16
HETATM   16  C7  UNL     1      15.525  17.099  20.377  1.00  0.00     0.061 A 
HETATM   17  C8  UNL     1      15.778  17.325  19.084  1.00  0.00     0.032 A 
HETATM   18  C9  UNL     1      17.090  17.775  18.695  1.00  0.00     0.002 A 
HETATM   19  C10 UNL     1      18.056  17.953  19.660  1.00  0.00     0.000 A 
HETATM   20  C11 UNL     1      17.750  17.731  20.997  1.00  0.00     0.002 A 
HETATM   21  C12 UNL     1      16.511  17.327  21.334  1.00  0.00     0.032 A 
ENDBRANCH  14  16
ENDBRANCH   5  14
TORSDOF 4
ENDMDL
MODEL 4
REMARK VINA RESULT: -7.248441236      3.191      5.768
REMARK  4 active torsions:
REMARK  status: ('A' for Active; 'I' for Inactive)
REMARK       I    between atoms: C1_2  and  N1_3 
REMARK       I    between atoms: C1_2  and  N3_13 
REMARK    1  A    between atoms: N1_3  and  N2_5 
REMARK    2  A    between atoms: C2_7  and  C3_8 
REMARK    3  A    between atoms: N3_13  and  N4_14 
REMARK    4  A    between atoms: N4_14  and  C7_16 
ROOT
HETATM    1  O1  UNL     1      14.150  13.190  19.545  1.00  0.00    -0.227 OA
HETATM    2  C1  UNL     1      13.775  14.237  19.499  1.00  0.00     0.430 C 
HETATM    3  N1  UNL     1      12.840  14.766  18.491  1.00  0.00    -0.238 N 
ATOM      4  H1  UNL     1      12.604  15.691  18.849  1.00  0.00     0.193 HD
HETATM    5  N3  UNL     1      14.054  15.431  20.231  1.00  0.00    -0.264 NA
ENDROOT
BRANCH   3   6
HETATM    6  N2  UNL     1      12.177  14.687  17.428  1.00  0.00    -0.306 N 
HETATM    7  C2  UNL     1      12.171  15.014  16.221  1.00  0.00     0.126 C 
ATOM      8  H2  UNL     1      11.326  14.160  17.621  1.00  0.00     0.186 HD
BRANCH   7   9
HETATM    9  C3  UNL     1      13.322  15.796  15.717  1.00  0.00     0.021 A 
HETATM   10  C4  UNL     1      13.928  15.413  14.528  1.00  0.00     0.021 A 
HETATM   11  C5  UNL     1      15.033  16.072  14.156  1.00  0.00     0.008 A 
HETATM   12  C6  UNL     1      15.460  17.081  14.993  1.00  0.00     0.050 A 
HETATM   13  S1  UNL     1      14.312  17.040  16.251  1.00  0.00    -0.101 SA
ENDBRANCH   7   9
ENDBRANCH   3   6
BRANCH   5  14
HETATM   14  N4  UNL     1      14.328  16.520  20.928  1.00  0.00    -0.231 N 
ATOM     15  H4  UNL     1      13.601  17.054  21.403  1.00  0.00     0.202 HD
BRANCH  14  16
HETATM   16  C7  UNL     1      15.725  16.910  20.978  1.00  0.00     0.061 A 
HETATM   17  C8  UNL     1      16.401  17.209  22.092  1.00  0.00     0.032 A 
HETATM   18  C9  UNL     1      17.684  17.856  21.980  1.00  0.00     0.002 A 
HETATM   19  C10 UNL     1      18.180  18.160  20.733  1.00  0.00     0.000 A 
HETATM   20  C11 UNL     1      17.460  17.813  19.596  1.00  0.00     0.002 A 
HETATM   21  C12 UNL     1      16.272  17.195  19.729  1.00  0.00     0.032 A 
ENDBRANCH  14  16
ENDBRANCH   5  14
TORSDOF 4
ENDMDL
MODEL 5
REMARK VINA RESULT: -7.238366079      3.795      6.426
REMARK  4 active torsions:
REMARK  status: ('A' for Active; 'I' for Inactive)
REMARK       I    between atoms: C1_2  and  N1_3 
REMARK       I    between atoms: C1_2  and  N3_13 
REMARK    1  A    between atoms: N1_3  and  N2_5 
REMARK    2  A    between atoms: C2_7  and  C3_8 
REMARK    3  A    between atoms: N3_13  and  N4_14 
REMARK    4  A    between atoms: N4_14  and  C7_16 
ROOT
HETATM    1  O1  UNL     1      14.391  13.328  19.516  1.00  0.00    -0.227 OA
HETATM    2  C1  UNL     1      14.491  14.263  18.921  1.00  0.00     0.430 C 
HETATM    3  N1  UNL     1      13.577  14.695  17.848  1.00  0.00    -0.238 N 
ATOM      4  H1  UNL     1      13.883  15.647  17.646  1.00  0.00     0.193 HD
HETATM    5  N3  UNL     1      15.469  15.301  18.848  1.00  0.00    -0.264 NA
ENDROOT
BRANCH   3   6
HETATM    6  N2  UNL     1      12.625  14.519  17.051  1.00  0.00    -0.306 N 
HETATM    7  C2  UNL     1      12.179  14.847  15.930  1.00  0.00     0.126 C 
ATOM      8  H2  UNL     1      11.969  13.864  17.476  1.00  0.00     0.186 HD
BRANCH   7   9
HETATM    9  C3  UNL     1      12.976  15.802  15.127  1.00  0.00     0.021 A 
HETATM   10  C4  UNL     1      14.044  15.327  14.379  1.00  0.00     0.021 A 
HETATM   11  C5  UNL     1      14.811  16.229  13.753  1.00  0.00     0.008 A 
HETATM   12  C6  UNL     1      14.458  17.552  13.907  1.00  0.00     0.050 A 
HETATM   13  S1  UNL     1      13.095  17.463  14.925  1.00  0.00    -0.101 SA
ENDBRANCH   7   9
ENDBRANCH   3   6
BRANCH   5  14
HETATM   14  N4  UNL     1      16.388  16.250  18.805  1.00  0.00    -0.231 N 
ATOM     15  H4  UNL     1      16.875  16.491  17.942  1.00  0.00     0.202 HD
BRANCH  14  16
HETATM   16  C7  UNL     1      16.663  16.928  20.058  1.00  0.00     0.061 A 
HETATM   17  C8  UNL     1      17.845  17.443  20.411  1.00  0.00     0.032 A 
HETATM   18  C9  UNL     1      18.060  17.827  21.784  1.00  0.00     0.002 A 
HETATM   19  C10 UNL     1      17.050  17.648  22.701  1.00  0.00     0.000 A 
HETATM   20  C11 UNL     1      15.826  17.132  22.293  1.00  0.00     0.002 A 
HETATM   21  C12 UNL     1      15.647  16.796  21.002  1.00  0.00     0.032 A 
ENDBRANCH  14  16
ENDBRANCH   5  14
TORSDOF 4
ENDMDL
