MODEL 1
REMARK VINA RESULT: -6.035407895      0.000      0.000
REMARK  11 active torsions:
REMARK  status: ('A' for Active; 'I' for Inactive)
REMARK    1  A    between atoms: C2_2  and  C3_3 
REMARK    2  A    between atoms: C3_3  and  N1_5 
REMARK       I    between atoms: N1_5  and  C5_7 
REMARK    3  A    between atoms: C5_7  and  C6_9 
REMARK    4  A    between atoms: C6_9  and  C7_10 
REMARK    5  A    between atoms: C11_14  and  C12_15 
REMARK    6  A    between atoms: C17_28  and  C18_29 
REMARK    7  A    between atoms: C18_29  and  C20_31 
REMARK    8  A    between atoms: C20_31  and  C21_32 
REMARK    9  A    between atoms: C21_32  and  N6_33 
REMARK   10  A    between atoms: C26_41  and  C27_42 
REMARK   11  A    between atoms: C27_42  and  C28_43 
ROOT
HETATM    1  C7  UNL     1       4.189  -8.015  15.923  1.00  0.00     0.096 C 
HETATM    2  C8  UNL     1       3.820  -9.440  15.601  1.00  0.00     0.052 C 
HETATM    3  C9  UNL     1       2.576  -9.875  16.282  1.00  0.00    -0.026 C 
HETATM    4  C10 UNL     1       2.372 -10.849  17.119  1.00  0.00     0.003 C 
HETATM    5  C11 UNL     1       3.355 -11.836  17.650  1.00  0.00     0.194 C 
HETATM    6  N3  UNL     1       4.328 -11.202  18.495  1.00  0.00    -0.370 N 
ATOM      7  H3  UNL     1       4.980 -10.591  18.002  1.00  0.00     0.161 HD
HETATM    8  C13 UNL     1       4.539 -11.278  19.883  1.00  0.00     0.174 C 
HETATM    9  N4  UNL     1       5.134 -12.200  20.555  1.00  0.00    -0.373 N 
HETATM   10  C14 UNL     1       5.218 -12.040  22.021  1.00  0.00     0.150 C 
HETATM   11  C15 UNL     1       5.769 -13.388  20.033  1.00  0.00     0.225 C 
HETATM   12  C16 UNL     1       7.249 -13.261  20.000  1.00  0.00     0.236 C 
HETATM   13  O3  UNL     1       7.847 -14.360  20.325  1.00  0.00    -0.272 OA
HETATM   14  N5  UNL     1       8.033 -12.169  19.684  1.00  0.00    -0.346 N 
ATOM     15  H5  UNL     1       8.746 -11.956  20.381  1.00  0.00     0.163 HD
HETATM   16  C17 UNL     1       8.035 -11.269  18.548  1.00  0.00     0.180 C 
HETATM   17  C25 UNL     1       8.146  -9.856  19.026  1.00  0.00     0.241 C 
HETATM   18  O4  UNL     1       9.261  -9.662  19.663  1.00  0.00    -0.271 OA
HETATM   19  N7  UNL     1       7.295  -8.790  18.907  1.00  0.00    -0.346 N 
ATOM     20  H7  UNL     1       6.893  -8.464  19.786  1.00  0.00     0.163 HD
HETATM   21  C26 UNL     1       6.863  -8.034  17.709  1.00  0.00     0.177 C 
HETATM   22  C31 UNL     1       5.506  -7.527  18.052  1.00  0.00     0.240 C 
HETATM   23  O5  UNL     1       5.454  -6.893  19.166  1.00  0.00    -0.271 OA
HETATM   24  N8  UNL     1       4.330  -7.685  17.288  1.00  0.00    -0.354 N 
ATOM     25  H8  UNL     1       3.458  -7.541  17.795  1.00  0.00     0.162 HD
ENDROOT
BRANCH   1  26
HETATM   26  C6  UNL     1       3.325  -7.099  15.118  1.00  0.00     0.128 C 
BRANCH  26  27
HETATM   27  C5  UNL     1       3.656  -5.695  15.404  1.00  0.00     0.219 C 
HETATM   28  N1  UNL     1       2.662  -4.690  15.602  1.00  0.00    -0.357 N 
ATOM     29  H1  UNL     1       1.680  -4.958  15.539  1.00  0.00     0.162 HD
HETATM   30  O1  UNL     1       4.849  -5.324  15.484  1.00  0.00    -0.274 OA
BRANCH  28  31
HETATM   31  C3  UNL     1       2.981  -3.320  15.887  1.00  0.00     0.080 C 
HETATM   32  C4  UNL     1       2.892  -2.952  17.332  1.00  0.00     0.032 C 
BRANCH  31  33
HETATM   33  C2  UNL     1       2.108  -2.370  15.087  1.00  0.00     0.020 C 
HETATM   34  C1  UNL     1       2.867  -1.305  14.370  1.00  0.00     0.007 C 
ENDBRANCH  31  33
ENDBRANCH  28  31
ENDBRANCH  26  27
ENDBRANCH   1  26
BRANCH  21  35
HETATM   35  C27 UNL     1       7.834  -6.892  17.632  1.00  0.00     0.038 C 
BRANCH  35  36
HETATM   36  C28 UNL     1       9.105  -7.025  16.926  1.00  0.00    -0.020 C 
HETATM   37  C29 UNL     1       9.252  -6.608  15.515  1.00  0.00     0.009 C 
HETATM   38  C30 UNL     1      10.155  -6.190  17.716  1.00  0.00     0.009 C 
ENDBRANCH  35  36
ENDBRANCH  21  35
BRANCH   5  39
HETATM   39  C12 UNL     1       3.955 -12.624  16.542  1.00  0.00     0.257 C 
HETATM   40  N2  UNL     1       5.363 -12.715  16.513  1.00  0.00    -0.060 NA
HETATM   41  O2  UNL     1       3.318 -13.204  15.651  1.00  0.00    -0.274 OA
ENDBRANCH   5  39
BRANCH  16  42
HETATM   42  C18 UNL     1       9.337 -11.504  17.747  1.00  0.00     0.015 C 
HETATM   43  C19 UNL     1       8.877 -12.125  16.449  1.00  0.00     0.012 C 
BRANCH  42  44
HETATM   44  C20 UNL     1      10.149 -12.563  18.454  1.00  0.00     0.034 C 
BRANCH  44  45
HETATM   45  C21 UNL     1      10.297 -13.823  17.705  1.00  0.00     0.236 C 
BRANCH  45  46
HETATM   46  N6  UNL     1      11.002 -14.893  18.340  1.00  0.00    -0.079 N 
HETATM   47  C22 UNL     1      12.147 -15.380  17.592  1.00  0.00     0.271 C 
HETATM   48  C23 UNL     1      10.061 -16.031  18.369  1.00  0.00     0.271 C 
HETATM   49  C24 UNL     1      11.361 -14.647  19.703  1.00  0.00     0.271 C 
ENDBRANCH  45  46
ENDBRANCH  44  45
ENDBRANCH  42  44
ENDBRANCH  16  42
TORSDOF 11
ENDMDL
MODEL 2
REMARK VINA RESULT: -6.003457540      3.037      7.108
REMARK  11 active torsions:
REMARK  status: ('A' for Active; 'I' for Inactive)
REMARK    1  A    between atoms: C2_2  and  C3_3 
REMARK    2  A    between atoms: C3_3  and  N1_5 
REMARK       I    between atoms: N1_5  and  C5_7 
REMARK    3  A    between atoms: C5_7  and  C6_9 
REMARK    4  A    between atoms: C6_9  and  C7_10 
REMARK    5  A    between atoms: C11_14  and  C12_15 
REMARK    6  A    between atoms: C17_28  and  C18_29 
REMARK    7  A    between atoms: C18_29  and  C20_31 
REMARK    8  A    between atoms: C20_31  and  C21_32 
REMARK    9  A    between atoms: C21_32  and  N6_33 
REMARK   10  A    between atoms: C26_41  and  C27_42 
REMARK   11  A    between atoms: C27_42  and  C28_43 
ROOT
HETATM    1  C7  UNL     1       6.772  -8.503  18.088  1.00  0.00     0.096 C 
HETATM    2  C8  UNL     1       7.207  -9.892  18.480  1.00  0.00     0.052 C 
HETATM    3  C9  UNL     1       7.880 -10.614  17.373  1.00  0.00    -0.026 C 
HETATM    4  C10 UNL     1       7.571 -11.734  16.790  1.00  0.00     0.003 C 
HETATM    5  C11 UNL     1       6.424 -12.642  17.073  1.00  0.00     0.194 C 
HETATM    6  N3  UNL     1       5.172 -12.024  16.734  1.00  0.00    -0.370 N 
ATOM      7  H3  UNL     1       4.906 -11.249  17.342  1.00  0.00     0.161 HD
HETATM    8  C13 UNL     1       4.251 -12.301  15.708  1.00  0.00     0.174 C 
HETATM    9  N4  UNL     1       3.358 -13.227  15.662  1.00  0.00    -0.373 N 
HETATM   10  C14 UNL     1       2.510 -13.306  14.454  1.00  0.00     0.150 C 
HETATM   11  C15 UNL     1       3.059 -14.203  16.683  1.00  0.00     0.225 C 
HETATM   12  C16 UNL     1       1.830 -13.857  17.444  1.00  0.00     0.236 C 
HETATM   13  O3  UNL     1       1.113 -14.894  17.725  1.00  0.00    -0.272 OA
HETATM   14  N5  UNL     1       1.373 -12.623  17.868  1.00  0.00    -0.346 N 
ATOM     15  H5  UNL     1       0.406 -12.429  17.609  1.00  0.00     0.163 HD
HETATM   16  C17 UNL     1       2.009 -11.554  18.610  1.00  0.00     0.180 C 
HETATM   17  C25 UNL     1       1.709 -10.241  17.959  1.00  0.00     0.241 C 
HETATM   18  O4  UNL     1       0.434  -9.996  17.962  1.00  0.00    -0.271 OA
HETATM   19  N7  UNL     1       2.529  -9.308  17.385  1.00  0.00    -0.346 N 
ATOM     20  H7  UNL     1       2.410  -9.197  16.378  1.00  0.00     0.163 HD
HETATM   21  C26 UNL     1       3.560  -8.431  17.988  1.00  0.00     0.177 C 
HETATM   22  C31 UNL     1       4.540  -8.194  16.894  1.00  0.00     0.240 C 
HETATM   23  O5  UNL     1       4.012  -7.772  15.803  1.00  0.00    -0.271 OA
HETATM   24  N8  UNL     1       5.936  -8.392  16.957  1.00  0.00    -0.354 N 
ATOM     25  H8  UNL     1       6.408  -8.465  16.056  1.00  0.00     0.162 HD
ENDROOT
BRANCH   1  26
HETATM   26  C6  UNL     1       7.964  -7.601  18.108  1.00  0.00     0.128 C 
BRANCH  26  27
HETATM   27  C5  UNL     1       7.587  -6.241  17.696  1.00  0.00     0.219 C 
HETATM   28  N1  UNL     1       7.931  -5.695  16.422  1.00  0.00    -0.357 N 
ATOM     29  H1  UNL     1       8.464  -6.273  15.773  1.00  0.00     0.162 HD
HETATM   30  O1  UNL     1       6.938  -5.498  18.466  1.00  0.00    -0.274 OA
BRANCH  28  31
HETATM   31  C3  UNL     1       7.560  -4.369  16.014  1.00  0.00     0.080 C 
HETATM   32  C4  UNL     1       6.274  -4.293  15.257  1.00  0.00     0.032 C 
BRANCH  31  33
HETATM   33  C2  UNL     1       8.653  -3.719  15.185  1.00  0.00     0.020 C 
HETATM   34  C1  UNL     1       9.744  -4.651  14.781  1.00  0.00     0.007 C 
ENDBRANCH  31  33
ENDBRANCH  28  31
ENDBRANCH  26  27
ENDBRANCH   1  26
BRANCH  21  35
HETATM   35  C27 UNL     1       2.820  -7.163  18.299  1.00  0.00     0.038 C 
BRANCH  35  36
HETATM   36  C28 UNL     1       3.525  -5.894  18.458  1.00  0.00    -0.020 C 
HETATM   37  C29 UNL     1       3.203  -4.721  17.618  1.00  0.00     0.009 C 
HETATM   38  C30 UNL     1       3.298  -5.427  19.926  1.00  0.00     0.009 C 
ENDBRANCH  35  36
ENDBRANCH  21  35
BRANCH   5  39
HETATM   39  C12 UNL     1       6.480 -13.135  18.475  1.00  0.00     0.257 C 
HETATM   40  N2  UNL     1       5.327 -12.945  19.265  1.00  0.00    -0.060 NA
HETATM   41  O2  UNL     1       7.455 -13.696  18.995  1.00  0.00    -0.274 OA
ENDBRANCH   5  39
BRANCH  16  42
HETATM   42  C18 UNL     1       1.328 -11.457  19.996  1.00  0.00     0.015 C 
HETATM   43  C19 UNL     1       2.378 -11.939  20.969  1.00  0.00     0.012 C 
BRANCH  42  44
HETATM   44  C20 UNL     1       0.209 -12.469  20.051  1.00  0.00     0.034 C 
BRANCH  44  45
HETATM   45  C21 UNL     1      -0.993 -12.015  20.773  1.00  0.00     0.236 C 
BRANCH  45  46
HETATM   46  N6  UNL     1      -2.168 -11.753  20.002  1.00  0.00    -0.079 N 
HETATM   47  C22 UNL     1      -2.515 -10.346  19.900  1.00  0.00     0.271 C 
HETATM   48  C23 UNL     1      -3.285 -12.360  20.756  1.00  0.00     0.271 C 
HETATM   49  C24 UNL     1      -2.188 -12.369  18.711  1.00  0.00     0.271 C 
ENDBRANCH  45  46
ENDBRANCH  44  45
ENDBRANCH  42  44
ENDBRANCH  16  42
TORSDOF 11
ENDMDL
MODEL 3
REMARK VINA RESULT: -5.924563673      1.021      1.317
REMARK  11 active torsions:
REMARK  status: ('A' for Active; 'I' for Inactive)
REMARK    1  A    between atoms: C2_2  and  C3_3 
REMARK    2  A    between atoms: C3_3  and  N1_5 
REMARK       I    between atoms: N1_5  and  C5_7 
REMARK    3  A    between atoms: C5_7  and  C6_9 
REMARK    4  A    between atoms: C6_9  and  C7_10 
REMARK    5  A    between atoms: C11_14  and  C12_15 
REMARK    6  A    between atoms: C17_28  and  C18_29 
REMARK    7  A    between atoms: C18_29  and  C20_31 
REMARK    8  A    between atoms: C20_31  and  C21_32 
REMARK    9  A    between atoms: C21_32  and  N6_33 
REMARK   10  A    between atoms: C26_41  and  C27_42 
REMARK   11  A    between atoms: C27_42  and  C28_43 
ROOT
HETATM    1  C7  UNL     1       4.187  -8.099  15.885  1.00  0.00     0.096 C 
HETATM    2  C8  UNL     1       3.830  -9.531  15.577  1.00  0.00     0.052 C 
HETATM    3  C9  UNL     1       2.583  -9.966  16.253  1.00  0.00    -0.026 C 
HETATM    4  C10 UNL     1       2.380 -10.931  17.100  1.00  0.00     0.003 C 
HETATM    5  C11 UNL     1       3.365 -11.904  17.652  1.00  0.00     0.194 C 
HETATM    6  N3  UNL     1       4.327 -11.254  18.496  1.00  0.00    -0.370 N 
ATOM      7  H3  UNL     1       4.978 -10.644  18.001  1.00  0.00     0.161 HD
HETATM    8  C13 UNL     1       4.527 -11.311  19.887  1.00  0.00     0.174 C 
HETATM    9  N4  UNL     1       5.123 -12.221  20.574  1.00  0.00    -0.373 N 
HETATM   10  C14 UNL     1       5.194 -12.042  22.039  1.00  0.00     0.150 C 
HETATM   11  C15 UNL     1       5.770 -13.411  20.072  1.00  0.00     0.225 C 
HETATM   12  C16 UNL     1       7.250 -13.274  20.049  1.00  0.00     0.236 C 
HETATM   13  O3  UNL     1       7.852 -14.364  20.392  1.00  0.00    -0.272 OA
HETATM   14  N5  UNL     1       8.029 -12.180  19.726  1.00  0.00    -0.346 N 
ATOM     15  H5  UNL     1       8.735 -11.954  20.426  1.00  0.00     0.163 HD
HETATM   16  C17 UNL     1       8.033 -11.294  18.580  1.00  0.00     0.180 C 
HETATM   17  C25 UNL     1       8.131  -9.875  19.041  1.00  0.00     0.241 C 
HETATM   18  O4  UNL     1       9.240  -9.665  19.684  1.00  0.00    -0.271 OA
HETATM   19  N7  UNL     1       7.274  -8.817  18.902  1.00  0.00    -0.346 N 
ATOM     20  H7  UNL     1       6.863  -8.483  19.774  1.00  0.00     0.163 HD
HETATM   21  C26 UNL     1       6.847  -8.078  17.691  1.00  0.00     0.177 C 
HETATM   22  C31 UNL     1       5.484  -7.576  18.018  1.00  0.00     0.240 C 
HETATM   23  O5  UNL     1       5.418  -6.929  19.124  1.00  0.00    -0.271 OA
HETATM   24  N8  UNL     1       4.315  -7.752  17.246  1.00  0.00    -0.354 N 
ATOM     25  H8  UNL     1       3.437  -7.607  17.745  1.00  0.00     0.162 HD
ENDROOT
BRANCH   1  26
HETATM   26  C6  UNL     1       3.323  -7.199  15.062  1.00  0.00     0.128 C 
BRANCH  26  27
HETATM   27  C5  UNL     1       3.547  -5.793  15.429  1.00  0.00     0.219 C 
HETATM   28  N1  UNL     1       4.740  -5.085  15.090  1.00  0.00    -0.357 N 
ATOM     29  H1  UNL     1       5.469  -5.579  14.576  1.00  0.00     0.162 HD
HETATM   30  O1  UNL     1       2.680  -5.153  16.065  1.00  0.00    -0.274 OA
BRANCH  28  31
HETATM   31  C3  UNL     1       4.960  -3.710  15.441  1.00  0.00     0.080 C 
HETATM   32  C4  UNL     1       5.379  -2.841  14.300  1.00  0.00     0.032 C 
BRANCH  31  33
HETATM   33  C2  UNL     1       5.983  -3.580  16.555  1.00  0.00     0.020 C 
HETATM   34  C1  UNL     1       7.391  -3.472  16.076  1.00  0.00     0.007 C 
ENDBRANCH  31  33
ENDBRANCH  28  31
ENDBRANCH  26  27
ENDBRANCH   1  26
BRANCH  21  35
HETATM   35  C27 UNL     1       7.810  -6.930  17.608  1.00  0.00     0.038 C 
BRANCH  35  36
HETATM   36  C28 UNL     1       9.107  -7.076  16.954  1.00  0.00    -0.020 C 
HETATM   37  C29 UNL     1       9.293  -6.742  15.526  1.00  0.00     0.009 C 
HETATM   38  C30 UNL     1      10.113  -6.171  17.725  1.00  0.00     0.009 C 
ENDBRANCH  35  36
ENDBRANCH  21  35
BRANCH   5  39
HETATM   39  C12 UNL     1       3.979 -12.702  16.558  1.00  0.00     0.257 C 
HETATM   40  N2  UNL     1       5.389 -12.723  16.498  1.00  0.00    -0.060 NA
HETATM   41  O2  UNL     1       3.352 -13.345  15.704  1.00  0.00    -0.274 OA
ENDBRANCH   5  39
BRANCH  16  42
HETATM   42  C18 UNL     1       9.344 -11.530  17.791  1.00  0.00     0.015 C 
HETATM   43  C19 UNL     1       8.895 -12.140  16.484  1.00  0.00     0.012 C 
BRANCH  42  44
HETATM   44  C20 UNL     1      10.142 -12.598  18.500  1.00  0.00     0.034 C 
BRANCH  44  45
HETATM   45  C21 UNL     1      10.331 -13.837  17.725  1.00  0.00     0.236 C 
BRANCH  45  46
HETATM   46  N6  UNL     1      11.006 -14.923  18.365  1.00  0.00    -0.079 N 
HETATM   47  C22 UNL     1      12.143 -15.439  17.623  1.00  0.00     0.271 C 
HETATM   48  C23 UNL     1      10.038 -16.038  18.392  1.00  0.00     0.271 C 
HETATM   49  C24 UNL     1      11.366 -14.684  19.729  1.00  0.00     0.271 C 
ENDBRANCH  45  46
ENDBRANCH  44  45
ENDBRANCH  42  44
ENDBRANCH  16  42
TORSDOF 11
ENDMDL
MODEL 4
REMARK VINA RESULT: -5.890104917      3.048      6.598
REMARK  11 active torsions:
REMARK  status: ('A' for Active; 'I' for Inactive)
REMARK    1  A    between atoms: C2_2  and  C3_3 
REMARK    2  A    between atoms: C3_3  and  N1_5 
REMARK       I    between atoms: N1_5  and  C5_7 
REMARK    3  A    between atoms: C5_7  and  C6_9 
REMARK    4  A    between atoms: C6_9  and  C7_10 
REMARK    5  A    between atoms: C11_14  and  C12_15 
REMARK    6  A    between atoms: C17_28  and  C18_29 
REMARK    7  A    between atoms: C18_29  and  C20_31 
REMARK    8  A    between atoms: C20_31  and  C21_32 
REMARK    9  A    between atoms: C21_32  and  N6_33 
REMARK   10  A    between atoms: C26_41  and  C27_42 
REMARK   11  A    between atoms: C27_42  and  C28_43 
ROOT
HETATM    1  C7  UNL     1       7.337  -7.465  17.558  1.00  0.00     0.096 C 
HETATM    2  C8  UNL     1       6.111  -6.731  17.078  1.00  0.00     0.052 C 
HETATM    3  C9  UNL     1       5.328  -6.141  18.191  1.00  0.00    -0.026 C 
HETATM    4  C10 UNL     1       4.094  -6.341  18.549  1.00  0.00     0.003 C 
HETATM    5  C11 UNL     1       3.084  -7.245  17.930  1.00  0.00     0.194 C 
HETATM    6  N3  UNL     1       3.445  -8.626  18.097  1.00  0.00    -0.370 N 
ATOM      7  H3  UNL     1       4.259  -8.917  17.556  1.00  0.00     0.161 HD
HETATM    8  C13 UNL     1       2.870  -9.645  18.877  1.00  0.00     0.174 C 
HETATM    9  N4  UNL     1       1.827 -10.355  18.625  1.00  0.00    -0.373 N 
HETATM   10  C14 UNL     1       1.427 -11.369  19.623  1.00  0.00     0.150 C 
HETATM   11  C15 UNL     1       0.996 -10.298  17.445  1.00  0.00     0.225 C 
HETATM   12  C16 UNL     1       1.274 -11.421  16.512  1.00  0.00     0.236 C 
HETATM   13  O3  UNL     1       0.201 -11.884  15.962  1.00  0.00    -0.272 OA
HETATM   14  N5  UNL     1       2.478 -12.008  16.174  1.00  0.00    -0.346 N 
ATOM     15  H5  UNL     1       2.481 -13.024  16.262  1.00  0.00     0.163 HD
HETATM   16  C17 UNL     1       3.736 -11.454  15.718  1.00  0.00     0.180 C 
HETATM   17  C25 UNL     1       4.866 -12.088  16.465  1.00  0.00     0.241 C 
HETATM   18  O4  UNL     1       4.916 -13.367  16.245  1.00  0.00    -0.271 OA
HETATM   19  N7  UNL     1       5.806 -11.556  17.306  1.00  0.00    -0.346 N 
ATOM     20  H7  UNL     1       5.732 -11.863  18.277  1.00  0.00     0.163 HD
HETATM   21  C26 UNL     1       6.913 -10.609  17.037  1.00  0.00     0.177 C 
HETATM   22  C31 UNL     1       7.112  -9.887  18.323  1.00  0.00     0.240 C 
HETATM   23  O5  UNL     1       7.268 -10.660  19.336  1.00  0.00    -0.271 OA
HETATM   24  N8  UNL     1       7.138  -8.488  18.508  1.00  0.00    -0.354 N 
ATOM     25  H8  UNL     1       6.990  -8.172  19.467  1.00  0.00     0.162 HD
ENDROOT
BRANCH   1  26
HETATM   26  C6  UNL     1       8.398  -6.466  17.890  1.00  0.00     0.128 C 
BRANCH  26  27
HETATM   27  C5  UNL     1       8.782  -5.704  16.692  1.00  0.00     0.219 C 
HETATM   28  N1  UNL     1       8.615  -4.291  16.587  1.00  0.00    -0.357 N 
ATOM     29  H1  UNL     1       8.208  -3.789  17.376  1.00  0.00     0.162 HD
HETATM   30  O1  UNL     1       9.280  -6.283  15.701  1.00  0.00    -0.274 OA
BRANCH  28  31
HETATM   31  C3  UNL     1       8.995  -3.543  15.421  1.00  0.00     0.080 C 
HETATM   32  C4  UNL     1      10.331  -2.883  15.519  1.00  0.00     0.032 C 
BRANCH  31  33
HETATM   33  C2  UNL     1       7.956  -2.491  15.075  1.00  0.00     0.020 C 
HETATM   34  C1  UNL     1       8.533  -1.169  14.698  1.00  0.00     0.007 C 
ENDBRANCH  31  33
ENDBRANCH  28  31
ENDBRANCH  26  27
ENDBRANCH   1  26
BRANCH  21  35
HETATM   35  C27 UNL     1       8.090 -11.497  16.758  1.00  0.00     0.038 C 
BRANCH  35  36
HETATM   36  C28 UNL     1       8.289 -12.743  17.492  1.00  0.00    -0.020 C 
HETATM   37  C29 UNL     1       8.215 -14.056  16.817  1.00  0.00     0.009 C 
HETATM   38  C30 UNL     1       9.713 -12.681  18.120  1.00  0.00     0.009 C 
ENDBRANCH  35  36
ENDBRANCH  21  35
BRANCH   5  39
HETATM   39  C12 UNL     1       2.839  -6.864  16.514  1.00  0.00     0.257 C 
HETATM   40  N2  UNL     1       3.183  -7.814  15.529  1.00  0.00    -0.060 NA
HETATM   41  O2  UNL     1       2.359  -5.785  16.138  1.00  0.00    -0.274 OA
ENDBRANCH   5  39
BRANCH  16  42
HETATM   42  C18 UNL     1       3.955 -11.894  14.250  1.00  0.00     0.015 C 
HETATM   43  C19 UNL     1       3.888 -10.612  13.455  1.00  0.00     0.012 C 
BRANCH  42  44
HETATM   44  C20 UNL     1       2.766 -12.719  13.817  1.00  0.00     0.034 C 
BRANCH  44  45
HETATM   45  C21 UNL     1       2.002 -12.148  12.693  1.00  0.00     0.236 C 
BRANCH  45  46
HETATM   46  N6  UNL     1       1.862 -12.947  11.515  1.00  0.00    -0.079 N 
HETATM   47  C22 UNL     1       2.548 -12.417  10.350  1.00  0.00     0.271 C 
HETATM   48  C23 UNL     1       0.428 -12.892  11.163  1.00  0.00     0.271 C 
HETATM   49  C24 UNL     1       2.170 -14.332  11.690  1.00  0.00     0.271 C 
ENDBRANCH  45  46
ENDBRANCH  44  45
ENDBRANCH  42  44
ENDBRANCH  16  42
TORSDOF 11
ENDMDL
MODEL 5
REMARK VINA RESULT: -5.777002761      2.906      6.752
REMARK  11 active torsions:
REMARK  status: ('A' for Active; 'I' for Inactive)
REMARK    1  A    between atoms: C2_2  and  C3_3 
REMARK    2  A    between atoms: C3_3  and  N1_5 
REMARK       I    between atoms: N1_5  and  C5_7 
REMARK    3  A    between atoms: C5_7  and  C6_9 
REMARK    4  A    between atoms: C6_9  and  C7_10 
REMARK    5  A    between atoms: C11_14  and  C12_15 
REMARK    6  A    between atoms: C17_28  and  C18_29 
REMARK    7  A    between atoms: C18_29  and  C20_31 
REMARK    8  A    between atoms: C20_31  and  C21_32 
REMARK    9  A    between atoms: C21_32  and  N6_33 
REMARK   10  A    between atoms: C26_41  and  C27_42 
REMARK   11  A    between atoms: C27_42  and  C28_43 
ROOT
HETATM    1  C7  UNL     1       6.621  -7.411  18.078  1.00  0.00     0.096 C 
HETATM    2  C8  UNL     1       7.280  -8.707  18.475  1.00  0.00     0.052 C 
HETATM    3  C9  UNL     1       8.078  -9.302  17.375  1.00  0.00    -0.026 C 
HETATM    4  C10 UNL     1       7.970 -10.457  16.788  1.00  0.00     0.003 C 
HETATM    5  C11 UNL     1       6.989 -11.546  17.058  1.00  0.00     0.194 C 
HETATM    6  N3  UNL     1       5.655 -11.148  16.705  1.00  0.00    -0.370 N 
ATOM      7  H3  UNL     1       5.255 -10.431  17.311  1.00  0.00     0.161 HD
HETATM    8  C13 UNL     1       4.805 -11.575  15.669  1.00  0.00     0.174 C 
HETATM    9  N4  UNL     1       4.082 -12.638  15.613  1.00  0.00    -0.373 N 
HETATM   10  C14 UNL     1       3.272 -12.857  14.396  1.00  0.00     0.150 C 
HETATM   11  C15 UNL     1       3.941 -13.654  16.630  1.00  0.00     0.225 C 
HETATM   12  C16 UNL     1       2.663 -13.521  17.377  1.00  0.00     0.236 C 
HETATM   13  O3  UNL     1       2.130 -14.666  17.650  1.00  0.00    -0.272 OA
HETATM   14  N5  UNL     1       2.000 -12.384  17.796  1.00  0.00    -0.346 N 
ATOM     15  H5  UNL     1       1.017 -12.356  17.527  1.00  0.00     0.163 HD
HETATM   16  C17 UNL     1       2.438 -11.224  18.546  1.00  0.00     0.180 C 
HETATM   17  C25 UNL     1       1.927  -9.980  17.892  1.00  0.00     0.241 C 
HETATM   18  O4  UNL     1       0.629  -9.954  17.882  1.00  0.00    -0.271 OA
HETATM   19  N7  UNL     1       2.583  -8.920  17.328  1.00  0.00    -0.346 N 
ATOM     20  H7  UNL     1       2.459  -8.829  16.319  1.00  0.00     0.163 HD
HETATM   21  C26 UNL     1       3.444  -7.883  17.943  1.00  0.00     0.177 C 
HETATM   22  C31 UNL     1       4.383  -7.481  16.860  1.00  0.00     0.240 C 
HETATM   23  O5  UNL     1       3.802  -7.152  15.763  1.00  0.00    -0.271 OA
HETATM   24  N8  UNL     1       5.791  -7.440  16.939  1.00  0.00    -0.354 N 
ATOM     25  H8  UNL     1       6.278  -7.430  16.042  1.00  0.00     0.162 HD
ENDROOT
BRANCH   1  26
HETATM   26  C6  UNL     1       7.643  -6.320  18.112  1.00  0.00     0.128 C 
BRANCH  26  27
HETATM   27  C5  UNL     1       7.407  -5.359  17.025  1.00  0.00     0.219 C 
HETATM   28  N1  UNL     1       6.477  -4.281  17.133  1.00  0.00    -0.357 N 
ATOM     29  H1  UNL     1       5.952  -4.177  18.001  1.00  0.00     0.162 HD
HETATM   30  O1  UNL     1       8.027  -5.455  15.942  1.00  0.00    -0.274 OA
BRANCH  28  31
HETATM   31  C3  UNL     1       6.248  -3.337  16.076  1.00  0.00     0.080 C 
HETATM   32  C4  UNL     1       5.850  -1.974  16.541  1.00  0.00     0.032 C 
BRANCH  31  33
HETATM   33  C2  UNL     1       5.204  -3.843  15.098  1.00  0.00     0.020 C 
HETATM   34  C1  UNL     1       4.156  -2.838  14.755  1.00  0.00     0.007 C 
ENDBRANCH  31  33
ENDBRANCH  28  31
ENDBRANCH  26  27
ENDBRANCH   1  26
BRANCH  21  35
HETATM   35  C27 UNL     1       2.497  -6.758  18.246  1.00  0.00     0.038 C 
BRANCH  35  36
HETATM   36  C28 UNL     1       2.936  -5.575  18.978  1.00  0.00    -0.020 C 
HETATM   37  C29 UNL     1       4.228  -5.547  19.697  1.00  0.00     0.009 C 
HETATM   38  C30 UNL     1       3.008  -4.404  17.954  1.00  0.00     0.009 C 
ENDBRANCH  35  36
ENDBRANCH  21  35
BRANCH   5  39
HETATM   39  C12 UNL     1       7.113 -12.025  18.460  1.00  0.00     0.257 C 
HETATM   40  N2  UNL     1       5.949 -11.976  19.256  1.00  0.00    -0.060 NA
HETATM   41  O2  UNL     1       8.152 -12.462  18.975  1.00  0.00    -0.274 OA
ENDBRANCH   5  39
BRANCH  16  42
HETATM   42  C18 UNL     1       1.735 -11.247  19.925  1.00  0.00     0.015 C 
HETATM   43  C19 UNL     1       2.767 -11.821  20.867  1.00  0.00     0.012 C 
BRANCH  42  44
HETATM   44  C20 UNL     1       0.610 -12.253  19.871  1.00  0.00     0.034 C 
BRANCH  44  45
HETATM   45  C21 UNL     1      -0.520 -11.956  20.770  1.00  0.00     0.236 C 
BRANCH  45  46
HETATM   46  N6  UNL     1      -1.813 -11.807  20.180  1.00  0.00    -0.079 N 
HETATM   47  C22 UNL     1      -1.902 -12.277  18.809  1.00  0.00     0.271 C 
HETATM   48  C23 UNL     1      -2.049 -10.351  20.094  1.00  0.00     0.271 C 
HETATM   49  C24 UNL     1      -2.892 -12.333  20.960  1.00  0.00     0.271 C 
ENDBRANCH  45  46
ENDBRANCH  44  45
ENDBRANCH  42  44
ENDBRANCH  16  42
TORSDOF 11
ENDMDL
