MODEL 1
REMARK VINA RESULT: -8.979378002      0.000      0.000
REMARK  12 active torsions:
REMARK  status: ('A' for Active; 'I' for Inactive)
REMARK    1  A    between atoms: C2_2  and  C4_4 
REMARK    2  A    between atoms: C4_4  and  N1_5 
REMARK    3  A    between atoms: C4_4  and  C25_37 
REMARK       I    between atoms: N1_5  and  C5_7 
REMARK    4  A    between atoms: C5_7  and  C6_9 
REMARK    5  A    between atoms: C6_9  and  C7_10 
REMARK    6  A    between atoms: C6_9  and  N2_17 
REMARK    7  A    between atoms: C7_10  and  C8_11 
REMARK       I    between atoms: N2_17  and  C14_19 
REMARK       I    between atoms: C14_19  and  N3_21 
REMARK    8  A    between atoms: C17_24  and  N4_25 
REMARK       I    between atoms: C25_37  and  N7_39 
REMARK    9  A    between atoms: N7_39  and  C26_41 
REMARK   10  A    between atoms: C26_41  and  C27_42 
REMARK   11  A    between atoms: C27_42  and  C28_43 
REMARK   12  A    between atoms: C28_43  and  N8_44 
ROOT
HETATM    1  C6  UNL     1       5.703   2.514  11.228  1.00  0.00     0.178 C 
ENDROOT
BRANCH   1   2
HETATM    2  C5  UNL     1       4.313   2.913  11.007  1.00  0.00     0.241 C 
HETATM    3  N1  UNL     1       3.367   2.304  10.182  1.00  0.00    -0.346 N 
ATOM      4  H1  UNL     1       3.637   1.478   9.649  1.00  0.00     0.163 HD
HETATM    5  O1  UNL     1       3.926   3.953  11.652  1.00  0.00    -0.271 OA
BRANCH   3   6
HETATM    6  C4  UNL     1       2.014   2.806  10.059  1.00  0.00     0.180 C 
BRANCH   6   7
HETATM    7  C2  UNL     1       0.993   1.738   9.918  1.00  0.00     0.009 C 
HETATM    8  C1  UNL     1      -0.162   1.998  10.895  1.00  0.00     0.012 C 
HETATM    9  C3  UNL     1       1.557   0.351  10.198  1.00  0.00     0.012 C 
ENDBRANCH   6   7
BRANCH   6  10
HETATM   10  C25 UNL     1       1.897   3.750   8.907  1.00  0.00     0.241 C 
HETATM   11  O3  UNL     1       1.146   4.722   8.998  1.00  0.00    -0.271 OA
HETATM   12  N7  UNL     1       2.643   3.501   7.745  1.00  0.00    -0.350 N 
ATOM     13  H7  UNL     1       3.251   2.683   7.756  1.00  0.00     0.163 HD
BRANCH  12  14
HETATM   14  C26 UNL     1       2.635   4.292   6.534  1.00  0.00     0.034 C 
HETATM   15  C30 UNL     1       1.416   4.323   5.701  1.00  0.00     0.031 C 
HETATM   16  C31 UNL     1       2.302   4.127   4.460  1.00  0.00     0.005 C 
HETATM   17  C32 UNL     1       3.367   3.589   5.381  1.00  0.00     0.031 C 
BRANCH  14  18
HETATM   18  C27 UNL     1       3.290   5.636   6.738  1.00  0.00     0.050 C 
BRANCH  18  19
HETATM   19  C28 UNL     1       2.425   6.806   6.410  1.00  0.00     0.124 C 
BRANCH  19  20
HETATM   20  N8  UNL     1       1.822   7.462   7.531  1.00  0.00    -0.367 N 
HETATM   21  C29 UNL     1       0.612   7.929   7.513  1.00  0.00     0.196 C 
HETATM   22  N9  UNL     1       0.122   8.553   8.669  1.00  0.00    -0.067 NA
HETATM   23  N10 UNL     1      -0.114   7.768   6.315  1.00  0.00    -0.067 NA
ATOM     24  H8  UNL     1       2.371   7.569   8.384  1.00  0.00     0.161 HD
ENDBRANCH  19  20
ENDBRANCH  18  19
ENDBRANCH  14  18
ENDBRANCH  12  14
ENDBRANCH   6  10
ENDBRANCH   3   6
ENDBRANCH   1   2
BRANCH   1  25
HETATM   25  C7  UNL     1       6.448   2.246   9.936  1.00  0.00     0.039 C 
BRANCH  25  26
HETATM   26  C8  UNL     1       6.941   3.493   9.254  1.00  0.00    -0.012 C 
HETATM   27  C9  UNL     1       8.414   3.519   9.056  1.00  0.00     0.005 C 
HETATM   28  C10 UNL     1       8.754   4.347   7.836  1.00  0.00     0.000 C 
HETATM   29  C11 UNL     1       8.260   3.739   6.554  1.00  0.00     0.000 C 
HETATM   30  C12 UNL     1       7.095   2.849   6.843  1.00  0.00     0.000 C 
HETATM   31  C13 UNL     1       6.257   3.545   7.904  1.00  0.00     0.005 C 
ENDBRANCH  25  26
ENDBRANCH   1  25
BRANCH   1  32
HETATM   32  N2  UNL     1       5.631   1.191  11.888  1.00  0.00    -0.329 N 
HETATM   33  C14 UNL     1       6.481   0.841  12.939  1.00  0.00     0.324 C 
HETATM   34  O2  UNL     1       7.342   1.713  13.297  1.00  0.00    -0.247 OA
HETATM   35  N3  UNL     1       6.468  -0.382  13.633  1.00  0.00    -0.287 N 
HETATM   36  C15 UNL     1       5.476  -1.418  13.328  1.00  0.00     0.138 C 
HETATM   37  C24 UNL     1       7.307  -0.861  14.670  1.00  0.00     0.115 C 
HETATM   38  C16 UNL     1       5.219  -2.053  14.687  1.00  0.00     0.064 C 
HETATM   39  C17 UNL     1       6.537  -1.844  15.419  1.00  0.00     0.291 C 
HETATM   40  N6  UNL     1       8.501  -0.477  14.881  1.00  0.00    -0.387 N 
ATOM     41  H62 UNL     1       9.041   0.211  14.357  1.00  0.00     0.157 HD
ATOM     42  H61 UNL     1       9.105  -0.823  15.628  1.00  0.00     0.157 HD
ATOM     43  H2  UNL     1       4.940   0.514  11.564  1.00  0.00     0.165 HD
BRANCH  39  44
HETATM   44  N4  UNL     1       7.103  -3.097  15.700  1.00  0.00     0.103 N 
HETATM   45  C18 UNL     1       7.263  -3.848  14.469  1.00  0.00     0.301 C 
HETATM   46  C19 UNL     1       8.346  -4.870  14.647  1.00  0.00     0.266 C 
HETATM   47  N5  UNL     1       8.558  -5.229  16.025  1.00  0.00    -0.071 N 
HETATM   48  C20 UNL     1       9.623  -4.416  16.628  1.00  0.00     0.272 C 
HETATM   49  C21 UNL     1       9.055  -6.602  16.037  1.00  0.00     0.272 C 
HETATM   50  C22 UNL     1       7.364  -5.203  16.810  1.00  0.00     0.266 C 
HETATM   51  C23 UNL     1       6.559  -3.926  16.697  1.00  0.00     0.301 C 
ENDBRANCH  39  44
ENDBRANCH   1  32
TORSDOF 12
ENDMDL
MODEL 2
REMARK VINA RESULT: -8.896786713      4.133      8.276
REMARK  12 active torsions:
REMARK  status: ('A' for Active; 'I' for Inactive)
REMARK    1  A    between atoms: C2_2  and  C4_4 
REMARK    2  A    between atoms: C4_4  and  N1_5 
REMARK    3  A    between atoms: C4_4  and  C25_37 
REMARK       I    between atoms: N1_5  and  C5_7 
REMARK    4  A    between atoms: C5_7  and  C6_9 
REMARK    5  A    between atoms: C6_9  and  C7_10 
REMARK    6  A    between atoms: C6_9  and  N2_17 
REMARK    7  A    between atoms: C7_10  and  C8_11 
REMARK       I    between atoms: N2_17  and  C14_19 
REMARK       I    between atoms: C14_19  and  N3_21 
REMARK    8  A    between atoms: C17_24  and  N4_25 
REMARK       I    between atoms: C25_37  and  N7_39 
REMARK    9  A    between atoms: N7_39  and  C26_41 
REMARK   10  A    between atoms: C26_41  and  C27_42 
REMARK   11  A    between atoms: C27_42  and  C28_43 
REMARK   12  A    between atoms: C28_43  and  N8_44 
ROOT
HETATM    1  C6  UNL     1       7.338  -3.548  15.461  1.00  0.00     0.178 C 
ENDROOT
BRANCH   1   2
HETATM    2  C5  UNL     1       6.736  -2.314  14.958  1.00  0.00     0.241 C 
HETATM    3  N1  UNL     1       5.474  -2.146  14.388  1.00  0.00    -0.346 N 
ATOM      4  H1  UNL     1       4.866  -2.958  14.289  1.00  0.00     0.163 HD
HETATM    5  O1  UNL     1       7.465  -1.262  15.054  1.00  0.00    -0.271 OA
BRANCH   3   6
HETATM    6  C4  UNL     1       4.998  -0.856  13.933  1.00  0.00     0.180 C 
BRANCH   6   7
HETATM    7  C2  UNL     1       3.574  -0.861  13.512  1.00  0.00     0.009 C 
HETATM    8  C1  UNL     1       3.128   0.572  13.189  1.00  0.00     0.012 C 
HETATM    9  C3  UNL     1       2.651  -1.423  14.586  1.00  0.00     0.012 C 
ENDBRANCH   6   7
BRANCH   6  10
HETATM   10  C25 UNL     1       5.838  -0.343  12.810  1.00  0.00     0.241 C 
HETATM   11  O3  UNL     1       5.901  -0.987  11.762  1.00  0.00    -0.271 OA
HETATM   12  N7  UNL     1       6.541   0.859  12.979  1.00  0.00    -0.350 N 
ATOM     13  H7  UNL     1       6.424   1.338  13.872  1.00  0.00     0.163 HD
BRANCH  12  14
HETATM   14  C26 UNL     1       7.415   1.487  12.012  1.00  0.00     0.034 C 
HETATM   15  C30 UNL     1       7.301   1.114  10.588  1.00  0.00     0.031 C 
HETATM   16  C31 UNL     1       8.835   1.023  10.527  1.00  0.00     0.005 C 
HETATM   17  C32 UNL     1       8.825   0.879  12.027  1.00  0.00     0.031 C 
BRANCH  14  18
HETATM   18  C27 UNL     1       7.555   2.968  12.264  1.00  0.00     0.050 C 
BRANCH  18  19
HETATM   19  C28 UNL     1       6.685   3.829  11.412  1.00  0.00     0.124 C 
BRANCH  19  20
HETATM   20  N8  UNL     1       5.287   3.796  11.723  1.00  0.00    -0.367 N 
HETATM   21  C29 UNL     1       4.358   3.932  10.828  1.00  0.00     0.196 C 
HETATM   22  N9  UNL     1       3.020   3.881  11.244  1.00  0.00    -0.067 NA
HETATM   23  N10 UNL     1       4.781   4.126   9.496  1.00  0.00    -0.067 NA
ATOM     24  H8  UNL     1       5.009   3.658  12.694  1.00  0.00     0.161 HD
ENDBRANCH  19  20
ENDBRANCH  18  19
ENDBRANCH  14  18
ENDBRANCH  12  14
ENDBRANCH   6  10
ENDBRANCH   3   6
ENDBRANCH   1   2
BRANCH   1  25
HETATM   25  C7  UNL     1       8.346  -4.143  14.497  1.00  0.00     0.039 C 
BRANCH  25  26
HETATM   26  C8  UNL     1       9.691  -4.409  15.118  1.00  0.00    -0.012 C 
HETATM   27  C9  UNL     1       9.736  -4.135  16.579  1.00  0.00     0.005 C 
HETATM   28  C10 UNL     1      10.766  -5.026  17.237  1.00  0.00     0.000 C 
HETATM   29  C11 UNL     1      10.405  -6.483  17.187  1.00  0.00     0.000 C 
HETATM   30  C12 UNL     1       9.490  -6.729  16.032  1.00  0.00     0.000 C 
HETATM   31  C13 UNL     1       9.992  -5.874  14.878  1.00  0.00     0.005 C 
ENDBRANCH  25  26
ENDBRANCH   1  25
BRANCH   1  32
HETATM   32  N2  UNL     1       6.238  -4.538  15.493  1.00  0.00    -0.329 N 
HETATM   33  C14 UNL     1       6.032  -5.380  16.587  1.00  0.00     0.324 C 
HETATM   34  O2  UNL     1       6.853  -5.271  17.559  1.00  0.00    -0.247 OA
HETATM   35  N3  UNL     1       5.004  -6.331  16.708  1.00  0.00    -0.287 N 
HETATM   36  C15 UNL     1       3.983  -6.484  15.667  1.00  0.00     0.138 C 
HETATM   37  C24 UNL     1       4.731  -7.266  17.738  1.00  0.00     0.115 C 
HETATM   38  C16 UNL     1       2.737  -6.847  16.462  1.00  0.00     0.064 C 
HETATM   39  C17 UNL     1       3.304  -7.550  17.686  1.00  0.00     0.291 C 
HETATM   40  N6  UNL     1       5.594  -7.741  18.543  1.00  0.00    -0.387 N 
ATOM     41  H62 UNL     1       6.593  -7.542  18.580  1.00  0.00     0.157 HD
ATOM     42  H61 UNL     1       5.397  -8.414  19.285  1.00  0.00     0.157 HD
ATOM     43  H2  UNL     1       5.612  -4.606  14.691  1.00  0.00     0.165 HD
BRANCH  39  44
HETATM   44  N4  UNL     1       2.864  -8.883  17.688  1.00  0.00     0.103 N 
HETATM   45  C18 UNL     1       3.316  -9.548  16.480  1.00  0.00     0.301 C 
HETATM   46  C19 UNL     1       3.380 -11.026  16.721  1.00  0.00     0.266 C 
HETATM   47  N5  UNL     1       2.516 -11.459  17.788  1.00  0.00    -0.071 N 
HETATM   48  C20 UNL     1       3.238 -11.511  19.068  1.00  0.00     0.272 C 
HETATM   49  C21 UNL     1       2.132 -12.837  17.496  1.00  0.00     0.272 C 
HETATM   50  C22 UNL     1       1.312 -10.695  17.892  1.00  0.00     0.266 C 
HETATM   51  C23 UNL     1       1.513  -9.196  17.927  1.00  0.00     0.301 C 
ENDBRANCH  39  44
ENDBRANCH   1  32
TORSDOF 12
ENDMDL
MODEL 3
REMARK VINA RESULT: -8.849927038      3.433     11.362
REMARK  12 active torsions:
REMARK  status: ('A' for Active; 'I' for Inactive)
REMARK    1  A    between atoms: C2_2  and  C4_4 
REMARK    2  A    between atoms: C4_4  and  N1_5 
REMARK    3  A    between atoms: C4_4  and  C25_37 
REMARK       I    between atoms: N1_5  and  C5_7 
REMARK    4  A    between atoms: C5_7  and  C6_9 
REMARK    5  A    between atoms: C6_9  and  C7_10 
REMARK    6  A    between atoms: C6_9  and  N2_17 
REMARK    7  A    between atoms: C7_10  and  C8_11 
REMARK       I    between atoms: N2_17  and  C14_19 
REMARK       I    between atoms: C14_19  and  N3_21 
REMARK    8  A    between atoms: C17_24  and  N4_25 
REMARK       I    between atoms: C25_37  and  N7_39 
REMARK    9  A    between atoms: N7_39  and  C26_41 
REMARK   10  A    between atoms: C26_41  and  C27_42 
REMARK   11  A    between atoms: C27_42  and  C28_43 
REMARK   12  A    between atoms: C28_43  and  N8_44 
ROOT
HETATM    1  C6  UNL     1       4.002  -0.141  12.556  1.00  0.00     0.178 C 
ENDROOT
BRANCH   1   2
HETATM    2  C5  UNL     1       4.409  -1.458  13.045  1.00  0.00     0.241 C 
HETATM    3  N1  UNL     1       4.216  -1.998  14.317  1.00  0.00    -0.346 N 
ATOM      4  H1  UNL     1       3.740  -1.437  15.024  1.00  0.00     0.163 HD
HETATM    5  O1  UNL     1       5.019  -2.201  12.195  1.00  0.00    -0.271 OA
BRANCH   3   6
HETATM    6  C4  UNL     1       4.670  -3.328  14.669  1.00  0.00     0.180 C 
BRANCH   6   7
HETATM    7  C2  UNL     1       3.741  -4.056  15.568  1.00  0.00     0.009 C 
HETATM    8  C1  UNL     1       2.878  -5.022  14.744  1.00  0.00     0.012 C 
HETATM    9  C3  UNL     1       2.816  -3.118  16.335  1.00  0.00     0.012 C 
ENDBRANCH   6   7
BRANCH   6  10
HETATM   10  C25 UNL     1       6.024  -3.281  15.298  1.00  0.00     0.241 C 
HETATM   11  O3  UNL     1       6.300  -2.358  16.064  1.00  0.00    -0.271 OA
HETATM   12  N7  UNL     1       6.951  -4.289  14.994  1.00  0.00    -0.350 N 
ATOM     13  H7  UNL     1       6.638  -5.025  14.361  1.00  0.00     0.163 HD
BRANCH  12  14
HETATM   14  C26 UNL     1       8.306  -4.388  15.490  1.00  0.00     0.034 C 
HETATM   15  C30 UNL     1       9.302  -3.380  15.075  1.00  0.00     0.031 C 
HETATM   16  C31 UNL     1      10.300  -4.522  14.824  1.00  0.00     0.005 C 
HETATM   17  C32 UNL     1       9.119  -5.455  14.742  1.00  0.00     0.031 C 
BRANCH  14  18
HETATM   18  C27 UNL     1       8.340  -4.736  16.958  1.00  0.00     0.050 C 
BRANCH  18  19
HETATM   19  C28 UNL     1       7.470  -5.884  17.346  1.00  0.00     0.124 C 
BRANCH  19  20
HETATM   20  N8  UNL     1       6.308  -5.548  18.113  1.00  0.00    -0.367 N 
HETATM   21  C29 UNL     1       5.429  -6.425  18.491  1.00  0.00     0.196 C 
HETATM   22  N9  UNL     1       4.329  -5.984  19.240  1.00  0.00    -0.067 NA
HETATM   23  N10 UNL     1       5.659  -7.761  18.106  1.00  0.00    -0.067 NA
ATOM     24  H8  UNL     1       6.164  -4.572  18.374  1.00  0.00     0.161 HD
ENDBRANCH  19  20
ENDBRANCH  18  19
ENDBRANCH  14  18
ENDBRANCH  12  14
ENDBRANCH   6  10
ENDBRANCH   3   6
ENDBRANCH   1   2
BRANCH   1  25
HETATM   25  C7  UNL     1       2.809  -0.206  11.625  1.00  0.00     0.039 C 
BRANCH  25  26
HETATM   26  C8  UNL     1       1.660   0.666  12.055  1.00  0.00    -0.012 C 
HETATM   27  C9  UNL     1       0.378   0.336  11.378  1.00  0.00     0.005 C 
HETATM   28  C10 UNL     1      -0.785   0.691  12.279  1.00  0.00     0.000 C 
HETATM   29  C11 UNL     1      -0.844  -0.148  13.524  1.00  0.00     0.000 C 
HETATM   30  C12 UNL     1       0.522  -0.664  13.841  1.00  0.00     0.000 C 
HETATM   31  C13 UNL     1       1.501   0.463  13.547  1.00  0.00     0.005 C 
ENDBRANCH  25  26
ENDBRANCH   1  25
BRANCH   1  32
HETATM   32  N2  UNL     1       5.113   0.318  11.693  1.00  0.00    -0.329 N 
HETATM   33  C14 UNL     1       5.201   1.635  11.239  1.00  0.00     0.324 C 
HETATM   34  O2  UNL     1       4.263   2.428  11.588  1.00  0.00    -0.247 OA
HETATM   35  N3  UNL     1       6.229   2.159  10.434  1.00  0.00    -0.287 N 
HETATM   36  C15 UNL     1       7.375   1.336  10.035  1.00  0.00     0.138 C 
HETATM   37  C24 UNL     1       6.393   3.451   9.877  1.00  0.00     0.115 C 
HETATM   38  C16 UNL     1       8.520   2.338  10.009  1.00  0.00     0.064 C 
HETATM   39  C17 UNL     1       7.822   3.649   9.679  1.00  0.00     0.291 C 
HETATM   40  N6  UNL     1       5.448   4.262   9.617  1.00  0.00    -0.387 N 
ATOM     41  H62 UNL     1       4.448   4.124   9.757  1.00  0.00     0.157 HD
ATOM     42  H61 UNL     1       5.567   5.193   9.216  1.00  0.00     0.157 HD
ATOM     43  H2  UNL     1       5.836  -0.349  11.422  1.00  0.00     0.165 HD
BRANCH  39  44
HETATM   44  N4  UNL     1       8.290   4.112   8.439  1.00  0.00     0.103 N 
HETATM   45  C18 UNL     1       7.983   3.140   7.407  1.00  0.00     0.301 C 
HETATM   46  C19 UNL     1       7.929   3.829   6.075  1.00  0.00     0.266 C 
HETATM   47  N5  UNL     1       8.685   5.053   6.046  1.00  0.00    -0.071 N 
HETATM   48  C20 UNL     1       7.834   6.211   6.356  1.00  0.00     0.272 C 
HETATM   49  C21 UNL     1       9.130   5.249   4.669  1.00  0.00     0.272 C 
HETATM   50  C22 UNL     1       9.853   5.021   6.869  1.00  0.00     0.266 C 
HETATM   51  C23 UNL     1       9.615   4.562   8.291  1.00  0.00     0.301 C 
ENDBRANCH  39  44
ENDBRANCH   1  32
TORSDOF 12
ENDMDL
MODEL 4
REMARK VINA RESULT: -8.847792641      3.162     10.480
REMARK  12 active torsions:
REMARK  status: ('A' for Active; 'I' for Inactive)
REMARK    1  A    between atoms: C2_2  and  C4_4 
REMARK    2  A    between atoms: C4_4  and  N1_5 
REMARK    3  A    between atoms: C4_4  and  C25_37 
REMARK       I    between atoms: N1_5  and  C5_7 
REMARK    4  A    between atoms: C5_7  and  C6_9 
REMARK    5  A    between atoms: C6_9  and  C7_10 
REMARK    6  A    between atoms: C6_9  and  N2_17 
REMARK    7  A    between atoms: C7_10  and  C8_11 
REMARK       I    between atoms: N2_17  and  C14_19 
REMARK       I    between atoms: C14_19  and  N3_21 
REMARK    8  A    between atoms: C17_24  and  N4_25 
REMARK       I    between atoms: C25_37  and  N7_39 
REMARK    9  A    between atoms: N7_39  and  C26_41 
REMARK   10  A    between atoms: C26_41  and  C27_42 
REMARK   11  A    between atoms: C27_42  and  C28_43 
REMARK   12  A    between atoms: C28_43  and  N8_44 
ROOT
HETATM    1  C6  UNL     1       4.014  -0.026  12.532  1.00  0.00     0.178 C 
ENDROOT
BRANCH   1   2
HETATM    2  C5  UNL     1       4.448  -1.329  13.035  1.00  0.00     0.241 C 
HETATM    3  N1  UNL     1       4.376  -1.810  14.343  1.00  0.00    -0.346 N 
ATOM      4  H1  UNL     1       3.982  -1.210  15.068  1.00  0.00     0.163 HD
HETATM    5  O1  UNL     1       4.958  -2.119  12.163  1.00  0.00    -0.271 OA
BRANCH   3   6
HETATM    6  C4  UNL     1       4.842  -3.132  14.706  1.00  0.00     0.180 C 
BRANCH   6   7
HETATM    7  C2  UNL     1       3.896  -3.881  15.570  1.00  0.00     0.009 C 
HETATM    8  C1  UNL     1       3.220  -4.991  14.752  1.00  0.00     0.012 C 
HETATM    9  C3  UNL     1       2.811  -2.988  16.159  1.00  0.00     0.012 C 
ENDBRANCH   6   7
BRANCH   6  10
HETATM   10  C25 UNL     1       6.172  -3.063  15.383  1.00  0.00     0.241 C 
HETATM   11  O3  UNL     1       6.283  -2.422  16.429  1.00  0.00    -0.271 OA
HETATM   12  N7  UNL     1       7.265  -3.725  14.806  1.00  0.00    -0.350 N 
ATOM     13  H7  UNL     1       7.086  -4.245  13.947  1.00  0.00     0.163 HD
BRANCH  12  14
HETATM   14  C26 UNL     1       8.621  -3.745  15.309  1.00  0.00     0.034 C 
HETATM   15  C30 UNL     1       9.627  -4.594  14.638  1.00  0.00     0.031 C 
HETATM   16  C31 UNL     1      10.096  -5.068  16.023  1.00  0.00     0.005 C 
HETATM   17  C32 UNL     1       8.761  -4.622  16.561  1.00  0.00     0.031 C 
BRANCH  14  18
HETATM   18  C27 UNL     1       9.105  -2.361  15.665  1.00  0.00     0.050 C 
BRANCH  18  19
HETATM   19  C28 UNL     1       9.106  -1.391  14.532  1.00  0.00     0.124 C 
BRANCH  19  20
HETATM   20  N8  UNL     1       8.113  -0.361  14.599  1.00  0.00    -0.367 N 
HETATM   21  C29 UNL     1       8.010   0.583  13.715  1.00  0.00     0.196 C 
HETATM   22  N9  UNL     1       6.998   1.540  13.879  1.00  0.00    -0.067 NA
HETATM   23  N10 UNL     1       8.938   0.566  12.655  1.00  0.00    -0.067 NA
ATOM     24  H8  UNL     1       7.457  -0.370  15.380  1.00  0.00     0.161 HD
ENDBRANCH  19  20
ENDBRANCH  18  19
ENDBRANCH  14  18
ENDBRANCH  12  14
ENDBRANCH   6  10
ENDBRANCH   3   6
ENDBRANCH   1   2
BRANCH   1  25
HETATM   25  C7  UNL     1       2.800  -0.122  11.631  1.00  0.00     0.039 C 
BRANCH  25  26
HETATM   26  C8  UNL     1       1.628   0.693  12.108  1.00  0.00    -0.012 C 
HETATM   27  C9  UNL     1       0.350   0.350  11.432  1.00  0.00     0.005 C 
HETATM   28  C10 UNL     1      -0.813   0.629  12.359  1.00  0.00     0.000 C 
HETATM   29  C11 UNL     1      -0.830  -0.261  13.569  1.00  0.00     0.000 C 
HETATM   30  C12 UNL     1       0.555  -0.744  13.850  1.00  0.00     0.000 C 
HETATM   31  C13 UNL     1       1.494   0.425  13.593  1.00  0.00     0.005 C 
ENDBRANCH  25  26
ENDBRANCH   1  25
BRANCH   1  32
HETATM   32  N2  UNL     1       5.099   0.428  11.634  1.00  0.00    -0.329 N 
HETATM   33  C14 UNL     1       5.017   1.628  10.923  1.00  0.00     0.324 C 
HETATM   34  O2  UNL     1       3.949   2.311  11.069  1.00  0.00    -0.247 OA
HETATM   35  N3  UNL     1       6.006   2.143  10.066  1.00  0.00    -0.287 N 
HETATM   36  C15 UNL     1       7.288   1.454   9.884  1.00  0.00     0.138 C 
HETATM   37  C24 UNL     1       6.011   3.310   9.263  1.00  0.00     0.115 C 
HETATM   38  C16 UNL     1       8.267   2.604   9.695  1.00  0.00     0.064 C 
HETATM   39  C17 UNL     1       7.403   3.694   9.080  1.00  0.00     0.291 C 
HETATM   40  N6  UNL     1       4.974   3.891   8.810  1.00  0.00    -0.387 N 
ATOM     41  H62 UNL     1       3.998   3.623   8.938  1.00  0.00     0.157 HD
ATOM     42  H61 UNL     1       4.977   4.732   8.231  1.00  0.00     0.157 HD
ATOM     43  H2  UNL     1       5.931  -0.152  11.530  1.00  0.00     0.165 HD
BRANCH  39  44
HETATM   44  N4  UNL     1       7.879   3.975   7.789  1.00  0.00     0.103 N 
HETATM   45  C18 UNL     1       7.740   2.799   6.951  1.00  0.00     0.301 C 
HETATM   46  C19 UNL     1       7.676   3.219   5.512  1.00  0.00     0.266 C 
HETATM   47  N5  UNL     1       8.287   4.500   5.275  1.00  0.00    -0.071 N 
HETATM   48  C20 UNL     1       7.293   5.582   5.335  1.00  0.00     0.272 C 
HETATM   49  C21 UNL     1       8.777   4.492   3.899  1.00  0.00     0.272 C 
HETATM   50  C22 UNL     1       9.406   4.764   6.123  1.00  0.00     0.266 C 
HETATM   51  C23 UNL     1       9.148   4.549   7.598  1.00  0.00     0.301 C 
ENDBRANCH  39  44
ENDBRANCH   1  32
TORSDOF 12
ENDMDL
MODEL 5
REMARK VINA RESULT: -8.818856240      3.580     12.477
REMARK  12 active torsions:
REMARK  status: ('A' for Active; 'I' for Inactive)
REMARK    1  A    between atoms: C2_2  and  C4_4 
REMARK    2  A    between atoms: C4_4  and  N1_5 
REMARK    3  A    between atoms: C4_4  and  C25_37 
REMARK       I    between atoms: N1_5  and  C5_7 
REMARK    4  A    between atoms: C5_7  and  C6_9 
REMARK    5  A    between atoms: C6_9  and  C7_10 
REMARK    6  A    between atoms: C6_9  and  N2_17 
REMARK    7  A    between atoms: C7_10  and  C8_11 
REMARK       I    between atoms: N2_17  and  C14_19 
REMARK       I    between atoms: C14_19  and  N3_21 
REMARK    8  A    between atoms: C17_24  and  N4_25 
REMARK       I    between atoms: C25_37  and  N7_39 
REMARK    9  A    between atoms: N7_39  and  C26_41 
REMARK   10  A    between atoms: C26_41  and  C27_42 
REMARK   11  A    between atoms: C27_42  and  C28_43 
REMARK   12  A    between atoms: C28_43  and  N8_44 
ROOT
HETATM    1  C6  UNL     1       6.030  -2.198  14.818  1.00  0.00     0.178 C 
ENDROOT
BRANCH   1   2
HETATM    2  C5  UNL     1       7.251  -2.548  15.542  1.00  0.00     0.241 C 
HETATM    3  N1  UNL     1       7.842  -3.806  15.670  1.00  0.00    -0.346 N 
ATOM      4  H1  UNL     1       7.398  -4.606  15.221  1.00  0.00     0.163 HD
HETATM    5  O1  UNL     1       7.845  -1.574  16.131  1.00  0.00    -0.271 OA
BRANCH   3   6
HETATM    6  C4  UNL     1       9.064  -4.012  16.419  1.00  0.00     0.180 C 
BRANCH   6   7
HETATM    7  C2  UNL     1      10.272  -4.137  15.566  1.00  0.00     0.009 C 
HETATM    8  C1  UNL     1      10.702  -2.748  15.075  1.00  0.00     0.012 C 
HETATM    9  C3  UNL     1      10.038  -5.026  14.350  1.00  0.00     0.012 C 
ENDBRANCH   6   7
BRANCH   6  10
HETATM   10  C25 UNL     1       8.956  -5.217  17.296  1.00  0.00     0.241 C 
HETATM   11  O3  UNL     1       9.610  -5.263  18.339  1.00  0.00    -0.271 OA
HETATM   12  N7  UNL     1       8.117  -6.269  16.905  1.00  0.00    -0.350 N 
ATOM     13  H7  UNL     1       7.600  -6.147  16.035  1.00  0.00     0.163 HD
BRANCH  12  14
HETATM   14  C26 UNL     1       7.911  -7.513  17.615  1.00  0.00     0.034 C 
HETATM   15  C30 UNL     1       8.736  -7.811  18.803  1.00  0.00     0.031 C 
HETATM   16  C31 UNL     1       8.941  -9.234  18.260  1.00  0.00     0.005 C 
HETATM   17  C32 UNL     1       8.567  -8.703  16.899  1.00  0.00     0.031 C 
BRANCH  14  18
HETATM   18  C27 UNL     1       6.444  -7.829  17.775  1.00  0.00     0.050 C 
BRANCH  18  19
HETATM   19  C28 UNL     1       5.523  -6.717  17.401  1.00  0.00     0.124 C 
BRANCH  19  20
HETATM   20  N8  UNL     1       4.658  -6.254  18.444  1.00  0.00    -0.367 N 
HETATM   21  C29 UNL     1       3.406  -6.583  18.525  1.00  0.00     0.196 C 
HETATM   22  N9  UNL     1       2.650  -6.072  19.590  1.00  0.00    -0.067 NA
HETATM   23  N10 UNL     1       2.905  -7.434  17.518  1.00  0.00    -0.067 NA
ATOM     24  H8  UNL     1       5.045  -5.636  19.157  1.00  0.00     0.161 HD
ENDBRANCH  19  20
ENDBRANCH  18  19
ENDBRANCH  14  18
ENDBRANCH  12  14
ENDBRANCH   6  10
ENDBRANCH   3   6
ENDBRANCH   1   2
BRANCH   1  25
HETATM   25  C7  UNL     1       5.312  -3.411  14.261  1.00  0.00     0.039 C 
BRANCH  25  26
HETATM   26  C8  UNL     1       3.815  -3.345  14.406  1.00  0.00    -0.012 C 
HETATM   27  C9  UNL     1       3.196  -4.644  14.780  1.00  0.00     0.005 C 
HETATM   28  C10 UNL     1       1.925  -4.400  15.563  1.00  0.00     0.000 C 
HETATM   29  C11 UNL     1       2.168  -3.755  16.898  1.00  0.00     0.000 C 
HETATM   30  C12 UNL     1       3.456  -2.998  16.857  1.00  0.00     0.000 C 
HETATM   31  C13 UNL     1       3.533  -2.328  15.493  1.00  0.00     0.005 C 
ENDBRANCH  25  26
ENDBRANCH   1  25
BRANCH   1  32
HETATM   32  N2  UNL     1       6.483  -1.461  13.617  1.00  0.00    -0.329 N 
HETATM   33  C14 UNL     1       6.035  -0.169  13.329  1.00  0.00     0.324 C 
HETATM   34  O2  UNL     1       5.196   0.343  14.143  1.00  0.00    -0.247 OA
HETATM   35  N3  UNL     1       6.427   0.607  12.225  1.00  0.00    -0.287 N 
HETATM   36  C15 UNL     1       7.429   0.121  11.271  1.00  0.00     0.138 C 
HETATM   37  C24 UNL     1       6.004   1.895  11.808  1.00  0.00     0.115 C 
HETATM   38  C16 UNL     1       8.158   1.394  10.866  1.00  0.00     0.064 C 
HETATM   39  C17 UNL     1       7.093   2.468  11.031  1.00  0.00     0.291 C 
HETATM   40  N6  UNL     1       4.880   2.421  12.085  1.00  0.00    -0.387 N 
ATOM     41  H62 UNL     1       4.117   2.020  12.630  1.00  0.00     0.157 HD
ATOM     42  H61 UNL     1       4.576   3.348  11.785  1.00  0.00     0.157 HD
ATOM     43  H2  UNL     1       7.142  -1.909  12.981  1.00  0.00     0.165 HD
BRANCH  39  44
HETATM   44  N4  UNL     1       6.823   3.035   9.775  1.00  0.00     0.103 N 
HETATM   45  C18 UNL     1       7.779   4.090   9.500  1.00  0.00     0.301 C 
HETATM   46  C19 UNL     1       7.888   4.288   8.017  1.00  0.00     0.266 C 
HETATM   47  N5  UNL     1       6.718   3.842   7.305  1.00  0.00    -0.071 N 
HETATM   48  C20 UNL     1       6.875   2.456   6.841  1.00  0.00     0.272 C 
HETATM   49  C21 UNL     1       6.619   4.654   6.095  1.00  0.00     0.272 C 
HETATM   50  C22 UNL     1       5.504   4.020   8.037  1.00  0.00     0.266 C 
HETATM   51  C23 UNL     1       5.526   3.470   9.446  1.00  0.00     0.301 C 
ENDBRANCH  39  44
ENDBRANCH   1  32
TORSDOF 12
ENDMDL
