MODEL 1
REMARK VINA RESULT: -5.838799635      0.000      0.000
REMARK  12 active torsions:
REMARK  status: ('A' for Active; 'I' for Inactive)
REMARK    1  A    between atoms: C3_3  and  N1_4 
REMARK    2  A    between atoms: C6_10  and  C7_11 
REMARK    3  A    between atoms: C7_11  and  C8_12 
REMARK    4  A    between atoms: C12_19  and  C13_20 
REMARK    5  A    between atoms: C13_20  and  C14_21 
REMARK    6  A    between atoms: C18_28  and  C19_29 
REMARK    7  A    between atoms: C19_29  and  C20_30 
REMARK    8  A    between atoms: C23_33  and  O4_34 
REMARK    9  A    between atoms: C24_38  and  C25_39 
REMARK   10  A    between atoms: C25_39  and  C26_40 
REMARK   11  A    between atoms: C30_47  and  C31_48 
REMARK   12  A    between atoms: C31_48  and  C32_49 
ROOT
HETATM    1  C1  UNL     1       3.115 -14.130  23.301  1.00  0.00     0.014 C 
HETATM    2  C2  UNL     1       3.776 -14.119  22.292  1.00  0.00    -0.098 C 
HETATM    3  C3  UNL     1       4.597 -14.087  21.086  1.00  0.00     0.219 C 
ENDROOT
BRANCH   3   4
HETATM    4  N1  UNL     1       4.522 -12.793  20.387  1.00  0.00    -0.331 N 
HETATM    5  C4  UNL     1       5.756 -12.027  20.440  1.00  0.00     0.229 C 
HETATM    6  C5  UNL     1       6.755 -12.540  19.467  1.00  0.00     0.236 C 
HETATM    7  O1  UNL     1       6.516 -13.711  18.986  1.00  0.00    -0.272 OA
HETATM    8  N2  UNL     1       7.916 -11.889  19.025  1.00  0.00    -0.346 N 
HETATM    9  C6  UNL     1       8.157 -10.463  18.907  1.00  0.00     0.177 C 
ATOM     10  H2  UNL     1       8.690 -12.495  18.750  1.00  0.00     0.163 HD
HETATM   11  C11 UNL     1       8.555 -10.169  17.507  1.00  0.00     0.241 C 
HETATM   12  O2  UNL     1       9.197 -11.120  16.946  1.00  0.00    -0.271 OA
HETATM   13  N3  UNL     1       8.316  -9.005  16.758  1.00  0.00    -0.346 N 
HETATM   14  C12 UNL     1       8.565  -7.636  17.112  1.00  0.00     0.177 C 
ATOM     15  H3  UNL     1       7.910  -9.154  15.834  1.00  0.00     0.163 HD
HETATM   16  C17 UNL     1       7.464  -6.931  17.787  1.00  0.00     0.241 C 
HETATM   17  O3  UNL     1       7.727  -6.493  18.976  1.00  0.00    -0.271 OA
HETATM   18  N4  UNL     1       6.166  -6.653  17.347  1.00  0.00    -0.347 N 
HETATM   19  C18 UNL     1       5.264  -7.543  16.632  1.00  0.00     0.159 C 
ATOM     20  H4  UNL     1       5.811  -5.718  17.549  1.00  0.00     0.163 HD
HETATM   21  C23 UNL     1       4.774  -8.608  17.549  1.00  0.00     0.135 C 
HETATM   22  N5  UNL     1       4.465  -9.939  17.296  1.00  0.00    -0.359 N 
HETATM   23  C24 UNL     1       3.367 -10.523  16.559  1.00  0.00     0.175 C 
ATOM     24  H5  UNL     1       5.119 -10.614  17.694  1.00  0.00     0.162 HD
HETATM   25  C29 UNL     1       2.188 -10.768  17.401  1.00  0.00     0.241 C 
HETATM   26  O5  UNL     1       1.171 -11.257  16.777  1.00  0.00    -0.271 OA
HETATM   27  N6  UNL     1       1.998 -10.549  18.772  1.00  0.00    -0.346 N 
HETATM   28  C30 UNL     1       2.542 -11.164  19.952  1.00  0.00     0.185 C 
ATOM     29  H6  UNL     1       1.337  -9.799  18.975  1.00  0.00     0.163 HD
HETATM   30  C33 UNL     1       3.328 -12.393  19.740  1.00  0.00     0.244 C 
HETATM   31  O7  UNL     1       2.907 -13.240  18.863  1.00  0.00    -0.271 OA
BRANCH   9  32
HETATM   32  C7  UNL     1       9.050  -9.906  19.948  1.00  0.00     0.038 C 
BRANCH  32  33
HETATM   33  C8  UNL     1       9.576 -10.770  21.015  1.00  0.00    -0.020 C 
HETATM   34  C9  UNL     1       9.862 -10.122  22.338  1.00  0.00     0.009 C 
HETATM   35  C10 UNL     1      10.915 -11.325  20.492  1.00  0.00     0.009 C 
ENDBRANCH  32  33
ENDBRANCH   9  32
BRANCH  14  36
HETATM   36  C13 UNL     1       9.009  -6.830  15.884  1.00  0.00     0.038 C 
BRANCH  36  37
HETATM   37  C14 UNL     1      10.148  -5.914  16.106  1.00  0.00    -0.020 C 
HETATM   38  C15 UNL     1       9.784  -4.445  16.183  1.00  0.00     0.009 C 
HETATM   39  C16 UNL     1      11.124  -6.284  17.166  1.00  0.00     0.009 C 
ENDBRANCH  36  37
ENDBRANCH  14  36
BRANCH  19  40
HETATM   40  C19 UNL     1       4.160  -6.799  15.935  1.00  0.00     0.037 C 
BRANCH  40  41
HETATM   41  C20 UNL     1       3.905  -5.410  16.357  1.00  0.00    -0.020 C 
HETATM   42  C21 UNL     1       3.602  -4.603  15.092  1.00  0.00     0.009 C 
HETATM   43  C22 UNL     1       2.867  -5.131  17.373  1.00  0.00     0.009 C 
ENDBRANCH  40  41
ENDBRANCH  19  40
BRANCH  21  44
HETATM   44  O4  UNL     1       4.635  -8.162  18.776  1.00  0.00    -0.348 OA
ATOM     45  H4  UNL     1       5.237  -8.590  19.373  1.00  0.00     0.219 HD
ENDBRANCH  21  44
BRANCH  23  46
HETATM   46  C25 UNL     1       3.903 -11.637  15.749  1.00  0.00     0.038 C 
BRANCH  46  47
HETATM   47  C26 UNL     1       3.755 -11.575  14.278  1.00  0.00    -0.020 C 
HETATM   48  C27 UNL     1       3.666 -10.090  13.878  1.00  0.00     0.009 C 
HETATM   49  C28 UNL     1       2.585 -12.266  13.684  1.00  0.00     0.009 C 
ENDBRANCH  46  47
ENDBRANCH  23  46
BRANCH  28  50
HETATM   50  C31 UNL     1       1.472 -11.465  20.994  1.00  0.00     0.134 C 
BRANCH  50  51
HETATM   51  C32 UNL     1       0.188 -10.822  20.834  1.00  0.00     0.233 C 
HETATM   52  N7  UNL     1       0.039  -9.461  21.279  1.00  0.00    -0.062 NA
HETATM   53  O6  UNL     1      -0.819 -11.352  20.340  1.00  0.00    -0.277 OA
ENDBRANCH  50  51
ENDBRANCH  28  50
ENDBRANCH   3   4
TORSDOF 12
ENDMDL
MODEL 2
REMARK VINA RESULT: -5.486276270      2.919      7.352
REMARK  12 active torsions:
REMARK  status: ('A' for Active; 'I' for Inactive)
REMARK    1  A    between atoms: C3_3  and  N1_4 
REMARK    2  A    between atoms: C6_10  and  C7_11 
REMARK    3  A    between atoms: C7_11  and  C8_12 
REMARK    4  A    between atoms: C12_19  and  C13_20 
REMARK    5  A    between atoms: C13_20  and  C14_21 
REMARK    6  A    between atoms: C18_28  and  C19_29 
REMARK    7  A    between atoms: C19_29  and  C20_30 
REMARK    8  A    between atoms: C23_33  and  O4_34 
REMARK    9  A    between atoms: C24_38  and  C25_39 
REMARK   10  A    between atoms: C25_39  and  C26_40 
REMARK   11  A    between atoms: C30_47  and  C31_48 
REMARK   12  A    between atoms: C31_48  and  C32_49 
ROOT
HETATM    1  C1  UNL     1       7.860 -17.863  15.089  1.00  0.00     0.014 C 
HETATM    2  C2  UNL     1       7.150 -17.371  15.930  1.00  0.00    -0.098 C 
HETATM    3  C3  UNL     1       6.272 -16.763  16.924  1.00  0.00     0.219 C 
ENDROOT
BRANCH   3   4
HETATM    4  N1  UNL     1       6.443 -15.302  17.010  1.00  0.00    -0.331 N 
HETATM    5  C4  UNL     1       5.336 -14.549  16.446  1.00  0.00     0.229 C 
HETATM    6  C5  UNL     1       4.177 -14.509  17.376  1.00  0.00     0.236 C 
HETATM    7  O1  UNL     1       4.204 -15.364  18.340  1.00  0.00    -0.272 OA
HETATM    8  N2  UNL     1       3.073 -13.646  17.314  1.00  0.00    -0.346 N 
HETATM    9  C6  UNL     1       3.014 -12.300  16.777  1.00  0.00     0.177 C 
ATOM     10  H2  UNL     1       2.200 -14.012  17.696  1.00  0.00     0.163 HD
HETATM   11  C11 UNL     1       2.509 -11.394  17.839  1.00  0.00     0.241 C 
HETATM   12  O2  UNL     1       1.689 -11.952  18.644  1.00  0.00    -0.271 OA
HETATM   13  N3  UNL     1       2.818 -10.040  18.051  1.00  0.00    -0.346 N 
HETATM   14  C12 UNL     1       2.794  -8.951  17.115  1.00  0.00     0.177 C 
ATOM     15  H3  UNL     1       3.099  -9.797  19.000  1.00  0.00     0.163 HD
HETATM   16  C17 UNL     1       4.046  -8.696  16.384  1.00  0.00     0.241 C 
HETATM   17  O3  UNL     1       3.974  -8.807  15.097  1.00  0.00    -0.271 OA
HETATM   18  N4  UNL     1       5.314  -8.349  16.861  1.00  0.00    -0.347 N 
HETATM   19  C18 UNL     1       6.007  -8.899  18.016  1.00  0.00     0.159 C 
ATOM     20  H4  UNL     1       5.810  -7.627  16.338  1.00  0.00     0.163 HD
HETATM   21  C23 UNL     1       6.447 -10.291  17.726  1.00  0.00     0.135 C 
HETATM   22  N5  UNL     1       6.546 -11.395  18.565  1.00  0.00    -0.359 N 
HETATM   23  C24 UNL     1       7.470 -11.674  19.640  1.00  0.00     0.175 C 
ATOM     24  H5  UNL     1       5.855 -12.125  18.395  1.00  0.00     0.162 HD
HETATM   25  C29 UNL     1       8.690 -12.349  19.177  1.00  0.00     0.241 C 
HETATM   26  O5  UNL     1       9.559 -12.587  20.099  1.00  0.00    -0.271 OA
HETATM   27  N6  UNL     1       9.055 -12.769  17.890  1.00  0.00    -0.346 N 
HETATM   28  C30 UNL     1       8.564 -13.797  17.015  1.00  0.00     0.185 C 
ATOM     29  H6  UNL     1       9.828 -12.234  17.493  1.00  0.00     0.163 HD
HETATM   30  C33 UNL     1       7.603 -14.747  17.603  1.00  0.00     0.244 C 
HETATM   31  O7  UNL     1       7.809 -15.152  18.810  1.00  0.00    -0.271 OA
BRANCH   9  32
HETATM   32  C7  UNL     1       2.320 -12.193  15.473  1.00  0.00     0.038 C 
BRANCH  32  33
HETATM   33  C8  UNL     1       3.018 -12.549  14.229  1.00  0.00    -0.020 C 
HETATM   34  C9  UNL     1       3.026 -11.522  13.135  1.00  0.00     0.009 C 
HETATM   35  C10 UNL     1       2.290 -13.788  13.672  1.00  0.00     0.009 C 
ENDBRANCH  32  33
ENDBRANCH   9  32
BRANCH  14  36
HETATM   36  C13 UNL     1       2.332  -7.658  17.799  1.00  0.00     0.038 C 
BRANCH  36  37
HETATM   37  C14 UNL     1       2.742  -6.406  17.128  1.00  0.00    -0.020 C 
HETATM   38  C15 UNL     1       1.901  -6.015  15.929  1.00  0.00     0.009 C 
HETATM   39  C16 UNL     1       3.026  -5.230  17.994  1.00  0.00     0.009 C 
ENDBRANCH  36  37
ENDBRANCH  14  36
BRANCH  19  40
HETATM   40  C19 UNL     1       7.119  -8.007  18.494  1.00  0.00     0.037 C 
BRANCH  40  41
HETATM   41  C20 UNL     1       7.758  -7.128  17.499  1.00  0.00    -0.020 C 
HETATM   42  C21 UNL     1       7.575  -5.688  17.986  1.00  0.00     0.009 C 
HETATM   43  C22 UNL     1       9.177  -7.342  17.135  1.00  0.00     0.009 C 
ENDBRANCH  40  41
ENDBRANCH  19  40
BRANCH  21  44
HETATM   44  O4  UNL     1       6.776 -10.440  16.464  1.00  0.00    -0.348 OA
ATOM     45  H4  UNL     1       7.493 -11.055  16.361  1.00  0.00     0.219 HD
ENDBRANCH  21  44
BRANCH  23  46
HETATM   46  C25 UNL     1       6.706 -12.277  20.753  1.00  0.00     0.038 C 
BRANCH  46  47
HETATM   47  C26 UNL     1       6.407 -11.443  21.938  1.00  0.00    -0.020 C 
HETATM   48  C27 UNL     1       7.639 -11.483  22.862  1.00  0.00     0.009 C 
HETATM   49  C28 UNL     1       5.228 -11.822  22.753  1.00  0.00     0.009 C 
ENDBRANCH  46  47
ENDBRANCH  23  46
BRANCH  28  50
HETATM   50  C31 UNL     1       9.690 -14.603  16.379  1.00  0.00     0.134 C 
BRANCH  50  51
HETATM   51  C32 UNL     1      10.587 -15.308  17.265  1.00  0.00     0.233 C 
HETATM   52  N7  UNL     1      10.705 -16.736  17.131  1.00  0.00    -0.062 NA
HETATM   53  O6  UNL     1      11.276 -14.780  18.152  1.00  0.00    -0.277 OA
ENDBRANCH  50  51
ENDBRANCH  28  50
ENDBRANCH   3   4
TORSDOF 12
ENDMDL
MODEL 3
REMARK VINA RESULT: -5.465145751      2.189      6.461
REMARK  12 active torsions:
REMARK  status: ('A' for Active; 'I' for Inactive)
REMARK    1  A    between atoms: C3_3  and  N1_4 
REMARK    2  A    between atoms: C6_10  and  C7_11 
REMARK    3  A    between atoms: C7_11  and  C8_12 
REMARK    4  A    between atoms: C12_19  and  C13_20 
REMARK    5  A    between atoms: C13_20  and  C14_21 
REMARK    6  A    between atoms: C18_28  and  C19_29 
REMARK    7  A    between atoms: C19_29  and  C20_30 
REMARK    8  A    between atoms: C23_33  and  O4_34 
REMARK    9  A    between atoms: C24_38  and  C25_39 
REMARK   10  A    between atoms: C25_39  and  C26_40 
REMARK   11  A    between atoms: C30_47  and  C31_48 
REMARK   12  A    between atoms: C31_48  and  C32_49 
ROOT
HETATM    1  C1  UNL     1       0.581 -13.438  15.498  1.00  0.00     0.014 C 
HETATM    2  C2  UNL     1       0.941 -12.578  16.262  1.00  0.00    -0.098 C 
HETATM    3  C3  UNL     1       1.385 -11.518  17.161  1.00  0.00     0.219 C 
ENDROOT
BRANCH   3   4
HETATM    4  N1  UNL     1       2.852 -11.395  17.209  1.00  0.00    -0.331 N 
HETATM    5  C4  UNL     1       3.343 -10.086  16.815  1.00  0.00     0.229 C 
HETATM    6  C5  UNL     1       3.184  -9.094  17.910  1.00  0.00     0.236 C 
HETATM    7  O1  UNL     1       2.390  -9.439  18.865  1.00  0.00    -0.272 OA
HETATM    8  N2  UNL     1       3.802  -7.839  18.010  1.00  0.00    -0.346 N 
HETATM    9  C6  UNL     1       5.086  -7.425  17.477  1.00  0.00     0.177 C 
ATOM     10  H2  UNL     1       3.283  -7.127  18.524  1.00  0.00     0.163 HD
HETATM   11  C11 UNL     1       5.913  -6.907  18.597  1.00  0.00     0.241 C 
HETATM   12  O2  UNL     1       5.232  -6.348  19.522  1.00  0.00    -0.271 OA
HETATM   13  N3  UNL     1       7.308  -6.959  18.749  1.00  0.00    -0.346 N 
HETATM   14  C12 UNL     1       8.333  -6.573  17.819  1.00  0.00     0.177 C 
ATOM     15  H3  UNL     1       7.640  -7.321  19.643  1.00  0.00     0.163 HD
HETATM   16  C17 UNL     1       8.807  -7.625  16.904  1.00  0.00     0.241 C 
HETATM   17  O3  UNL     1       8.634  -7.388  15.644  1.00  0.00    -0.271 OA
HETATM   18  N4  UNL     1       9.422  -8.850  17.179  1.00  0.00    -0.347 N 
HETATM   19  C18 UNL     1       9.069  -9.804  18.219  1.00  0.00     0.159 C 
ATOM     20  H4  UNL     1      10.208  -9.104  16.581  1.00  0.00     0.163 HD
HETATM   21  C23 UNL     1       7.784 -10.473  17.877  1.00  0.00     0.135 C 
HETATM   22  N5  UNL     1       6.757 -10.920  18.700  1.00  0.00    -0.359 N 
HETATM   23  C24 UNL     1       6.712 -12.031  19.623  1.00  0.00     0.175 C 
ATOM     24  H5  UNL     1       5.896 -10.377  18.642  1.00  0.00     0.162 HD
HETATM   25  C29 UNL     1       6.280 -13.281  18.985  1.00  0.00     0.241 C 
HETATM   26  O5  UNL     1       6.259 -14.307  19.765  1.00  0.00    -0.271 OA
HETATM   27  N6  UNL     1       5.893 -13.530  17.661  1.00  0.00    -0.346 N 
HETATM   28  C30 UNL     1       4.753 -13.138  16.878  1.00  0.00     0.185 C 
ATOM     29  H6  UNL     1       6.557 -14.110  17.147  1.00  0.00     0.163 HD
HETATM   30  C33 UNL     1       3.652 -12.491  17.614  1.00  0.00     0.244 C 
HETATM   31  O7  UNL     1       3.345 -12.952  18.779  1.00  0.00    -0.271 OA
BRANCH   9  32
HETATM   32  C7  UNL     1       5.000  -6.540  16.294  1.00  0.00     0.038 C 
BRANCH  32  33
HETATM   33  C8  UNL     1       3.690  -6.132  15.765  1.00  0.00    -0.020 C 
HETATM   34  C9  UNL     1       3.108  -6.972  14.667  1.00  0.00     0.009 C 
HETATM   35  C10 UNL     1       3.887  -4.716  15.188  1.00  0.00     0.009 C 
ENDBRANCH  32  33
ENDBRANCH   9  32
BRANCH  14  36
HETATM   36  C13 UNL     1       9.531  -5.961  18.555  1.00  0.00     0.038 C 
BRANCH  36  37
HETATM   37  C14 UNL     1      10.464  -5.185  17.711  1.00  0.00    -0.020 C 
HETATM   38  C15 UNL     1      11.596  -5.986  17.101  1.00  0.00     0.009 C 
HETATM   39  C16 UNL     1       9.868  -4.251  16.718  1.00  0.00     0.009 C 
ENDBRANCH  36  37
ENDBRANCH  14  36
BRANCH  19  40
HETATM   40  C19 UNL     1      10.185 -10.766  18.515  1.00  0.00     0.037 C 
BRANCH  40  41
HETATM   41  C20 UNL     1      10.018 -11.664  19.672  1.00  0.00    -0.020 C 
HETATM   42  C21 UNL     1      10.077 -13.099  19.142  1.00  0.00     0.009 C 
HETATM   43  C22 UNL     1      10.924 -11.537  20.835  1.00  0.00     0.009 C 
ENDBRANCH  40  41
ENDBRANCH  19  40
BRANCH  21  44
HETATM   44  O4  UNL     1       7.656 -10.636  16.580  1.00  0.00    -0.348 OA
ATOM     45  H4  UNL     1       6.752 -10.795  16.337  1.00  0.00     0.219 HD
ENDBRANCH  21  44
BRANCH  23  46
HETATM   46  C25 UNL     1       6.011 -11.580  20.844  1.00  0.00     0.038 C 
BRANCH  46  47
HETATM   47  C26 UNL     1       6.510 -12.044  22.158  1.00  0.00    -0.020 C 
HETATM   48  C27 UNL     1       5.446 -11.688  23.215  1.00  0.00     0.009 C 
HETATM   49  C28 UNL     1       7.803 -11.492  22.625  1.00  0.00     0.009 C 
ENDBRANCH  46  47
ENDBRANCH  23  46
BRANCH  28  50
HETATM   50  C31 UNL     1       4.169 -14.299  16.084  1.00  0.00     0.134 C 
BRANCH  50  51
HETATM   51  C32 UNL     1       4.727 -15.611  16.316  1.00  0.00     0.233 C 
HETATM   52  N7  UNL     1       4.247 -16.376  17.437  1.00  0.00    -0.062 NA
HETATM   53  O6  UNL     1       5.604 -16.147  15.619  1.00  0.00    -0.277 OA
ENDBRANCH  50  51
ENDBRANCH  28  50
ENDBRANCH   3   4
TORSDOF 12
ENDMDL
MODEL 4
REMARK VINA RESULT: -5.371133907      1.015      1.017
REMARK  12 active torsions:
REMARK  status: ('A' for Active; 'I' for Inactive)
REMARK    1  A    between atoms: C3_3  and  N1_4 
REMARK    2  A    between atoms: C6_10  and  C7_11 
REMARK    3  A    between atoms: C7_11  and  C8_12 
REMARK    4  A    between atoms: C12_19  and  C13_20 
REMARK    5  A    between atoms: C13_20  and  C14_21 
REMARK    6  A    between atoms: C18_28  and  C19_29 
REMARK    7  A    between atoms: C19_29  and  C20_30 
REMARK    8  A    between atoms: C23_33  and  O4_34 
REMARK    9  A    between atoms: C24_38  and  C25_39 
REMARK   10  A    between atoms: C25_39  and  C26_40 
REMARK   11  A    between atoms: C30_47  and  C31_48 
REMARK   12  A    between atoms: C31_48  and  C32_49 
ROOT
HETATM    1  C1  UNL     1       5.241 -14.862  22.916  1.00  0.00     0.014 C 
HETATM    2  C2  UNL     1       5.091 -14.850  21.719  1.00  0.00    -0.098 C 
HETATM    3  C3  UNL     1       4.938 -14.821  20.268  1.00  0.00     0.219 C 
ENDROOT
BRANCH   3   4
HETATM    4  N1  UNL     1       4.692 -13.463  19.753  1.00  0.00    -0.331 N 
HETATM    5  C4  UNL     1       5.802 -12.548  19.962  1.00  0.00     0.229 C 
HETATM    6  C5  UNL     1       6.884 -12.772  18.968  1.00  0.00     0.236 C 
HETATM    7  O1  UNL     1       6.826 -13.884  18.319  1.00  0.00    -0.272 OA
HETATM    8  N2  UNL     1       7.949 -11.909  18.668  1.00  0.00    -0.346 N 
HETATM    9  C6  UNL     1       7.984 -10.462  18.759  1.00  0.00     0.177 C 
ATOM     10  H2  UNL     1       8.806 -12.356  18.343  1.00  0.00     0.163 HD
HETATM   11  C11 UNL     1       8.364  -9.918  17.431  1.00  0.00     0.241 C 
HETATM   12  O2  UNL     1       9.147 -10.680  16.769  1.00  0.00    -0.271 OA
HETATM   13  N3  UNL     1       7.976  -8.704  16.841  1.00  0.00    -0.346 N 
HETATM   14  C12 UNL     1       8.019  -7.377  17.392  1.00  0.00     0.177 C 
ATOM     15  H3  UNL     1       7.614  -8.773  15.891  1.00  0.00     0.163 HD
HETATM   16  C17 UNL     1       6.814  -6.937  18.114  1.00  0.00     0.241 C 
HETATM   17  O3  UNL     1       6.988  -6.642  19.362  1.00  0.00    -0.271 OA
HETATM   18  N4  UNL     1       5.500  -6.782  17.665  1.00  0.00    -0.347 N 
HETATM   19  C18 UNL     1       4.749  -7.678  16.798  1.00  0.00     0.159 C 
ATOM     20  H4  UNL     1       5.010  -5.945  17.981  1.00  0.00     0.163 HD
HETATM   21  C23 UNL     1       4.398  -8.921  17.537  1.00  0.00     0.135 C 
HETATM   22  N5  UNL     1       4.288 -10.232  17.089  1.00  0.00    -0.359 N 
HETATM   23  C24 UNL     1       3.301 -10.851  16.235  1.00  0.00     0.175 C 
ATOM     24  H5  UNL     1       5.024 -10.859  17.416  1.00  0.00     0.162 HD
HETATM   25  C29 UNL     1       2.152 -11.376  16.986  1.00  0.00     0.241 C 
HETATM   26  O5  UNL     1       1.229 -11.907  16.260  1.00  0.00    -0.271 OA
HETATM   27  N6  UNL     1       1.905 -11.384  18.366  1.00  0.00    -0.346 N 
HETATM   28  C30 UNL     1       2.508 -12.080  19.469  1.00  0.00     0.185 C 
ATOM     29  H6  UNL     1       1.140 -10.770  18.644  1.00  0.00     0.163 HD
HETATM   30  C33 UNL     1       3.466 -13.144  19.120  1.00  0.00     0.244 C 
HETATM   31  O7  UNL     1       3.190 -13.907  18.118  1.00  0.00    -0.271 OA
BRANCH   9  32
HETATM   32  C7  UNL     1       8.768  -9.941  19.902  1.00  0.00     0.038 C 
BRANCH  32  33
HETATM   33  C8  UNL     1       9.322 -10.864  20.904  1.00  0.00    -0.020 C 
HETATM   34  C9  UNL     1       9.640 -10.292  22.255  1.00  0.00     0.009 C 
HETATM   35  C10 UNL     1      10.650 -11.381  20.316  1.00  0.00     0.009 C 
ENDBRANCH  32  33
ENDBRANCH   9  32
BRANCH  14  36
HETATM   36  C13 UNL     1       8.367  -6.350  16.308  1.00  0.00     0.038 C 
BRANCH  36  37
HETATM   37  C14 UNL     1       9.794  -6.292  15.926  1.00  0.00    -0.020 C 
HETATM   38  C15 UNL     1      10.113  -5.357  14.777  1.00  0.00     0.009 C 
HETATM   39  C16 UNL     1      10.788  -6.156  17.024  1.00  0.00     0.009 C 
ENDBRANCH  36  37
ENDBRANCH  14  36
BRANCH  19  40
HETATM   40  C19 UNL     1       3.563  -7.002  16.167  1.00  0.00     0.037 C 
BRANCH  40  41
HETATM   41  C20 UNL     1       3.458  -5.539  16.313  1.00  0.00    -0.020 C 
HETATM   42  C21 UNL     1       3.722  -4.929  14.934  1.00  0.00     0.009 C 
HETATM   43  C22 UNL     1       2.228  -4.946  16.882  1.00  0.00     0.009 C 
ENDBRANCH  40  41
ENDBRANCH  19  40
BRANCH  21  44
HETATM   44  O4  UNL     1       4.172  -8.679  18.808  1.00  0.00    -0.348 OA
ATOM     45  H4  UNL     1       4.439  -9.408  19.355  1.00  0.00     0.219 HD
ENDBRANCH  21  44
BRANCH  23  46
HETATM   46  C25 UNL     1       4.007 -11.752  15.300  1.00  0.00     0.038 C 
BRANCH  46  47
HETATM   47  C26 UNL     1       3.828 -11.542  13.846  1.00  0.00    -0.020 C 
HETATM   48  C27 UNL     1       3.720 -10.025  13.602  1.00  0.00     0.009 C 
HETATM   49  C28 UNL     1       2.651 -12.180  13.209  1.00  0.00     0.009 C 
ENDBRANCH  46  47
ENDBRANCH  23  46
BRANCH  28  50
HETATM   50  C31 UNL     1       1.472 -12.673  20.416  1.00  0.00     0.134 C 
BRANCH  50  51
HETATM   51  C32 UNL     1       0.119 -12.801  19.926  1.00  0.00     0.233 C 
HETATM   52  N7  UNL     1      -0.819 -11.748  20.212  1.00  0.00    -0.062 NA
HETATM   53  O6  UNL     1      -0.314 -13.760  19.268  1.00  0.00    -0.277 OA
ENDBRANCH  50  51
ENDBRANCH  28  50
ENDBRANCH   3   4
TORSDOF 12
ENDMDL
MODEL 5
REMARK VINA RESULT: -5.362365708      2.431      8.338
REMARK  12 active torsions:
REMARK  status: ('A' for Active; 'I' for Inactive)
REMARK    1  A    between atoms: C3_3  and  N1_4 
REMARK    2  A    between atoms: C6_10  and  C7_11 
REMARK    3  A    between atoms: C7_11  and  C8_12 
REMARK    4  A    between atoms: C12_19  and  C13_20 
REMARK    5  A    between atoms: C13_20  and  C14_21 
REMARK    6  A    between atoms: C18_28  and  C19_29 
REMARK    7  A    between atoms: C19_29  and  C20_30 
REMARK    8  A    between atoms: C23_33  and  O4_34 
REMARK    9  A    between atoms: C24_38  and  C25_39 
REMARK   10  A    between atoms: C25_39  and  C26_40 
REMARK   11  A    between atoms: C30_47  and  C31_48 
REMARK   12  A    between atoms: C31_48  and  C32_49 
ROOT
HETATM    1  C1  UNL     1       9.010  -7.161  17.286  1.00  0.00     0.014 C 
HETATM    2  C2  UNL     1       9.010  -8.367  17.289  1.00  0.00    -0.098 C 
HETATM    3  C3  UNL     1       8.982  -9.826  17.277  1.00  0.00     0.219 C 
ENDROOT
BRANCH   3   4
HETATM    4  N1  UNL     1       7.939 -10.379  18.157  1.00  0.00    -0.331 N 
HETATM    5  C4  UNL     1       6.614  -9.835  17.907  1.00  0.00     0.229 C 
HETATM    6  C5  UNL     1       5.989 -10.455  16.710  1.00  0.00     0.236 C 
HETATM    7  O1  UNL     1       6.790 -11.101  15.933  1.00  0.00    -0.272 OA
HETATM    8  N2  UNL     1       4.636 -10.410  16.343  1.00  0.00    -0.346 N 
HETATM    9  C6  UNL     1       3.476 -10.299  17.207  1.00  0.00     0.177 C 
ATOM     10  H2  UNL     1       4.444 -10.463  15.343  1.00  0.00     0.163 HD
HETATM   11  C11 UNL     1       2.572 -11.444  16.927  1.00  0.00     0.241 C 
HETATM   12  O2  UNL     1       2.612 -11.843  15.714  1.00  0.00    -0.271 OA
HETATM   13  N3  UNL     1       1.711 -12.112  17.811  1.00  0.00    -0.346 N 
HETATM   14  C12 UNL     1       0.730 -11.563  18.706  1.00  0.00     0.177 C 
ATOM     15  H3  UNL     1       1.792 -13.129  17.820  1.00  0.00     0.163 HD
HETATM   16  C17 UNL     1       1.200 -11.237  20.062  1.00  0.00     0.241 C 
HETATM   17  O3  UNL     1       1.101  -9.993  20.403  1.00  0.00    -0.271 OA
HETATM   18  N4  UNL     1       1.740 -12.063  21.052  1.00  0.00    -0.347 N 
HETATM   19  C18 UNL     1       2.719 -13.125  20.882  1.00  0.00     0.159 C 
ATOM     20  H4  UNL     1       1.408 -11.903  22.003  1.00  0.00     0.163 HD
HETATM   21  C23 UNL     1       4.054 -12.538  20.579  1.00  0.00     0.135 C 
HETATM   22  N5  UNL     1       5.080 -13.011  19.770  1.00  0.00    -0.359 N 
HETATM   23  C24 UNL     1       5.976 -14.130  19.950  1.00  0.00     0.175 C 
ATOM     24  H5  UNL     1       5.224 -12.482  18.910  1.00  0.00     0.162 HD
HETATM   25  C29 UNL     1       7.192 -13.768  20.691  1.00  0.00     0.241 C 
HETATM   26  O5  UNL     1       8.005 -14.745  20.905  1.00  0.00    -0.271 OA
HETATM   27  N6  UNL     1       7.601 -12.528  21.203  1.00  0.00    -0.346 N 
HETATM   28  C30 UNL     1       8.023 -11.301  20.587  1.00  0.00     0.185 C 
ATOM     29  H6  UNL     1       7.598 -12.490  22.222  1.00  0.00     0.163 HD
HETATM   30  C33 UNL     1       8.262 -11.352  19.134  1.00  0.00     0.244 C 
HETATM   31  O7  UNL     1       8.840 -12.397  18.649  1.00  0.00    -0.271 OA
BRANCH   9  32
HETATM   32  C7  UNL     1       2.829  -8.967  17.192  1.00  0.00     0.038 C 
BRANCH  32  33
HETATM   33  C8  UNL     1       3.514  -7.816  16.586  1.00  0.00    -0.020 C 
HETATM   34  C9  UNL     1       4.292  -6.923  17.507  1.00  0.00     0.009 C 
HETATM   35  C10 UNL     1       2.407  -6.948  15.955  1.00  0.00     0.009 C 
ENDBRANCH  32  33
ENDBRANCH   9  32
BRANCH  14  36
HETATM   36  C13 UNL     1      -0.495 -12.481  18.798  1.00  0.00     0.038 C 
BRANCH  36  37
HETATM   37  C14 UNL     1      -0.634 -13.463  17.702  1.00  0.00    -0.020 C 
HETATM   38  C15 UNL     1      -0.913 -14.885  18.146  1.00  0.00     0.009 C 
HETATM   39  C16 UNL     1      -1.491 -13.080  16.548  1.00  0.00     0.009 C 
ENDBRANCH  36  37
ENDBRANCH  14  36
BRANCH  19  40
HETATM   40  C19 UNL     1       2.735 -14.080  22.042  1.00  0.00     0.037 C 
BRANCH  40  41
HETATM   41  C20 UNL     1       2.630 -15.519  21.739  1.00  0.00    -0.020 C 
HETATM   42  C21 UNL     1       2.052 -15.640  20.326  1.00  0.00     0.009 C 
HETATM   43  C22 UNL     1       3.827 -16.381  21.851  1.00  0.00     0.009 C 
ENDBRANCH  40  41
ENDBRANCH  19  40
BRANCH  21  44
HETATM   44  O4  UNL     1       4.229 -11.394  21.200  1.00  0.00    -0.348 OA
ATOM     45  H4  UNL     1       4.994 -10.935  20.874  1.00  0.00     0.219 HD
ENDBRANCH  21  44
BRANCH  23  46
HETATM   46  C25 UNL     1       6.118 -14.814  18.648  1.00  0.00     0.038 C 
BRANCH  46  47
HETATM   47  C26 UNL     1       4.957 -14.834  17.730  1.00  0.00    -0.020 C 
HETATM   48  C27 UNL     1       4.505 -16.299  17.578  1.00  0.00     0.009 C 
HETATM   49  C28 UNL     1       5.162 -14.289  16.366  1.00  0.00     0.009 C 
ENDBRANCH  46  47
ENDBRANCH  23  46
BRANCH  28  50
HETATM   50  C31 UNL     1       9.266 -10.719  21.248  1.00  0.00     0.134 C 
BRANCH  50  51
HETATM   51  C32 UNL     1      10.329 -11.636  21.589  1.00  0.00     0.233 C 
HETATM   52  N7  UNL     1      11.520 -11.640  20.781  1.00  0.00    -0.062 NA
HETATM   53  O6  UNL     1      10.303 -12.438  22.536  1.00  0.00    -0.277 OA
ENDBRANCH  50  51
ENDBRANCH  28  50
ENDBRANCH   3   4
TORSDOF 12
ENDMDL
