MODEL 1
REMARK VINA RESULT: -5.712983148      0.000      0.000
REMARK  14 active torsions:
REMARK  status: ('A' for Active; 'I' for Inactive)
REMARK    1  A    between atoms: C2_2  and  C3_3 
REMARK       I    between atoms: C3_3  and  N1_5 
REMARK    2  A    between atoms: C4_6  and  O2_7 
REMARK    3  A    between atoms: C5_11  and  C6_12 
REMARK    4  A    between atoms: C6_12  and  C7_13 
REMARK    5  A    between atoms: C10_16  and  O3_17 
REMARK    6  A    between atoms: C11_21  and  C12_22 
REMARK    7  A    between atoms: C12_22  and  C13_23 
REMARK    8  A    between atoms: C16_26  and  O4_27 
REMARK    9  A    between atoms: C18_32  and  C19_33 
REMARK   10  A    between atoms: C22_36  and  O5_37 
REMARK   11  A    between atoms: C27_46  and  O6_47 
REMARK   12  A    between atoms: C28_49  and  C29_50 
REMARK   13  A    between atoms: C30_51  and  C31_52 
REMARK   14  A    between atoms: C31_52  and  N7_53 
ROOT
HETATM    1  C3  UNL     1       4.160 -12.072  19.121  1.00  0.00     0.254 C 
HETATM    2  O1  UNL     1       4.765 -12.954  19.852  1.00  0.00    -0.268 OA
HETATM    3  N1  UNL     1       4.608 -11.890  17.809  1.00  0.00    -0.240 N 
HETATM    4  C4  UNL     1       5.716 -12.774  17.425  1.00  0.00     0.227 C 
HETATM    5  N2  UNL     1       6.828 -12.522  16.645  1.00  0.00    -0.344 N 
ATOM      6  H2  UNL     1       6.895 -13.090  15.800  1.00  0.00     0.164 HD
HETATM    7  C5  UNL     1       7.918 -11.579  16.834  1.00  0.00     0.160 C 
HETATM    8  C10 UNL     1       7.789 -10.811  18.079  1.00  0.00     0.135 C 
HETATM    9  N3  UNL     1       7.703  -9.431  18.206  1.00  0.00    -0.361 N 
ATOM     10  H3  UNL     1       6.800  -9.115  18.562  1.00  0.00     0.162 HD
HETATM   11  C11 UNL     1       8.613  -8.354  17.943  1.00  0.00     0.158 C 
HETATM   12  C16 UNL     1       8.286  -7.141  18.764  1.00  0.00     0.139 C 
HETATM   13  N4  UNL     1       7.143  -6.471  19.085  1.00  0.00    -0.336 N 
ATOM     14  H4  UNL     1       6.793  -6.768  19.996  1.00  0.00     0.168 HD
HETATM   15  C17 UNL     1       6.264  -5.438  18.498  1.00  0.00     0.081 C 
HETATM   16  C18 UNL     1       6.749  -4.829  17.281  1.00  0.00     0.011 C 
HETATM   17  C22 UNL     1       4.857  -5.866  18.689  1.00  0.00     0.167 C 
HETATM   18  N5  UNL     1       3.794  -6.386  18.009  1.00  0.00    -0.338 N 
HETATM   19  C23 UNL     1       2.458  -5.797  18.387  1.00  0.00     0.154 C 
HETATM   20  C24 UNL     1       3.591  -7.424  17.011  1.00  0.00     0.101 C 
HETATM   21  C25 UNL     1       2.524  -6.921  15.990  1.00  0.00     0.063 C 
HETATM   22  C26 UNL     1       4.763  -7.715  16.139  1.00  0.00     0.063 C 
HETATM   23  N6  UNL     1       3.127  -8.670  17.593  1.00  0.00    -0.343 N 
ATOM     24  H6  UNL     1       2.744  -8.569  18.533  1.00  0.00     0.164 HD
HETATM   25  C27 UNL     1       3.105  -9.983  17.111  1.00  0.00     0.166 C 
HETATM   26  C28 UNL     1       4.107 -10.968  16.789  1.00  0.00     0.096 C 
ENDROOT
BRANCH  26  27
HETATM   27  C29 UNL     1       4.068 -11.551  15.421  1.00  0.00     0.032 C 
HETATM   28  C30 UNL     1       3.608 -12.858  15.061  1.00  0.00    -0.005 C 
BRANCH  28  29
HETATM   29  C31 UNL     1       2.259 -13.379  15.311  1.00  0.00     0.149 C 
BRANCH  29  30
HETATM   30  N7  UNL     1       2.260 -14.201  16.542  1.00  0.00    -0.363 N 
HETATM   31  C32 UNL     1       1.558 -14.005  17.560  1.00  0.00     0.197 C 
HETATM   32  N8  UNL     1       1.672 -14.883  18.668  1.00  0.00    -0.067 NA
HETATM   33  N9  UNL     1       0.650 -12.929  17.636  1.00  0.00    -0.067 NA
ATOM     34  H7  UNL     1       2.892 -15.002  16.563  1.00  0.00     0.162 HD
ENDBRANCH  29  30
ENDBRANCH  28  29
ENDBRANCH  26  27
BRANCH  25  35
HETATM   35  O6  UNL     1       1.894 -10.431  16.897  1.00  0.00    -0.345 OA
ATOM     36  H6  UNL     1       1.874 -11.350  16.657  1.00  0.00     0.219 HD
ENDBRANCH  25  35
BRANCH   1  37
HETATM   37  C2  UNL     1       3.117 -11.468  19.897  1.00  0.00     0.065 C 
HETATM   38  C1  UNL     1       2.581 -12.108  20.939  1.00  0.00     0.017 C 
ENDBRANCH   1  37
BRANCH   4  39
HETATM   39  O2  UNL     1       5.609 -13.982  17.910  1.00  0.00    -0.332 OA
ATOM     40  H2  UNL     1       5.250 -14.006  18.788  1.00  0.00     0.221 HD
ENDBRANCH   4  39
BRANCH   7  41
HETATM   41  C6  UNL     1       9.264 -12.277  16.865  1.00  0.00     0.037 C 
BRANCH  41  42
HETATM   42  C7  UNL     1       9.175 -13.714  17.272  1.00  0.00    -0.020 C 
HETATM   43  C8  UNL     1      10.345 -13.990  18.219  1.00  0.00     0.009 C 
HETATM   44  C9  UNL     1       9.360 -14.650  16.098  1.00  0.00     0.009 C 
ENDBRANCH  41  42
ENDBRANCH   7  41
BRANCH   8  45
HETATM   45  O3  UNL     1       7.756 -11.566  19.157  1.00  0.00    -0.348 OA
ATOM     46  H3  UNL     1       7.451 -11.106  19.930  1.00  0.00     0.219 HD
ENDBRANCH   8  45
BRANCH  17  47
HETATM   47  O5  UNL     1       4.541  -5.668  19.983  1.00  0.00    -0.344 OA
ATOM     48  H5  UNL     1       3.632  -5.394  20.021  1.00  0.00     0.219 HD
ENDBRANCH  17  47
BRANCH  11  49
HETATM   49  C12 UNL     1       8.763  -8.119  16.489  1.00  0.00     0.037 C 
BRANCH  49  50
HETATM   50  C13 UNL     1       9.325  -6.727  16.247  1.00  0.00    -0.020 C 
HETATM   51  C14 UNL     1       9.354  -6.473  14.735  1.00  0.00     0.009 C 
HETATM   52  C15 UNL     1      10.804  -6.787  16.652  1.00  0.00     0.009 C 
ENDBRANCH  49  50
ENDBRANCH  11  49
BRANCH  16  53
HETATM   53  C19 UNL     1       6.127  -3.685  16.610  1.00  0.00     0.002 C 
HETATM   54  C20 UNL     1       6.869  -2.465  16.250  1.00  0.00     0.013 C 
HETATM   55  C21 UNL     1       5.261  -4.109  15.407  1.00  0.00     0.013 C 
ENDBRANCH  16  53
BRANCH  12  56
HETATM   56  O4  UNL     1       9.386  -6.640  19.285  1.00  0.00    -0.348 OA
ATOM     57  H4  UNL     1       9.242  -5.736  19.539  1.00  0.00     0.219 HD
ENDBRANCH  12  56
TORSDOF 14
ENDMDL
MODEL 2
REMARK VINA RESULT: -5.578761429      2.597      6.253
REMARK  14 active torsions:
REMARK  status: ('A' for Active; 'I' for Inactive)
REMARK    1  A    between atoms: C2_2  and  C3_3 
REMARK       I    between atoms: C3_3  and  N1_5 
REMARK    2  A    between atoms: C4_6  and  O2_7 
REMARK    3  A    between atoms: C5_11  and  C6_12 
REMARK    4  A    between atoms: C6_12  and  C7_13 
REMARK    5  A    between atoms: C10_16  and  O3_17 
REMARK    6  A    between atoms: C11_21  and  C12_22 
REMARK    7  A    between atoms: C12_22  and  C13_23 
REMARK    8  A    between atoms: C16_26  and  O4_27 
REMARK    9  A    between atoms: C18_32  and  C19_33 
REMARK   10  A    between atoms: C22_36  and  O5_37 
REMARK   11  A    between atoms: C27_46  and  O6_47 
REMARK   12  A    between atoms: C28_49  and  C29_50 
REMARK   13  A    between atoms: C30_51  and  C31_52 
REMARK   14  A    between atoms: C31_52  and  N7_53 
ROOT
HETATM    1  C3  UNL     1       3.789 -14.125  16.283  1.00  0.00     0.254 C 
HETATM    2  O1  UNL     1       3.565 -14.020  15.012  1.00  0.00    -0.268 OA
HETATM    3  N1  UNL     1       3.334 -13.099  17.116  1.00  0.00    -0.240 N 
HETATM    4  C4  UNL     1       2.618 -12.028  16.412  1.00  0.00     0.227 C 
HETATM    5  N2  UNL     1       2.632 -10.661  16.617  1.00  0.00    -0.344 N 
ATOM      6  H2  UNL     1       1.729 -10.258  16.869  1.00  0.00     0.164 HD
HETATM    7  C5  UNL     1       3.724  -9.706  16.532  1.00  0.00     0.160 C 
HETATM    8  C10 UNL     1       4.992 -10.333  16.135  1.00  0.00     0.135 C 
HETATM    9  N3  UNL     1       6.182 -10.341  16.850  1.00  0.00    -0.361 N 
ATOM     10  H3  UNL     1       6.454 -11.272  17.168  1.00  0.00     0.162 HD
HETATM   11  C11 UNL     1       7.111  -9.319  17.236  1.00  0.00     0.158 C 
HETATM   12  C16 UNL     1       8.482  -9.880  17.473  1.00  0.00     0.139 C 
HETATM   13  N4  UNL     1       8.982 -10.972  18.118  1.00  0.00    -0.336 N 
ATOM     14  H4  UNL     1       9.149 -11.735  17.462  1.00  0.00     0.168 HD
HETATM   15  C17 UNL     1       9.353 -11.372  19.492  1.00  0.00     0.081 C 
HETATM   16  C18 UNL     1       9.307 -10.318  20.479  1.00  0.00     0.011 C 
HETATM   17  C22 UNL     1       8.825 -12.736  19.734  1.00  0.00     0.167 C 
HETATM   18  N5  UNL     1       7.827 -13.398  20.390  1.00  0.00    -0.338 N 
HETATM   19  C23 UNL     1       8.252 -14.694  21.034  1.00  0.00     0.154 C 
HETATM   20  C24 UNL     1       6.403 -13.203  20.607  1.00  0.00     0.101 C 
HETATM   21  C25 UNL     1       6.069 -13.614  22.075  1.00  0.00     0.063 C 
HETATM   22  C26 UNL     1       5.931 -11.792  20.550  1.00  0.00     0.063 C 
HETATM   23  N6  UNL     1       5.590 -13.999  19.706  1.00  0.00    -0.343 N 
ATOM     24  H6  UNL     1       6.095 -14.768  19.266  1.00  0.00     0.164 HD
HETATM   25  C27 UNL     1       4.246 -13.913  19.327  1.00  0.00     0.166 C 
HETATM   26  C28 UNL     1       3.459 -12.974  18.568  1.00  0.00     0.096 C 
ENDROOT
BRANCH  26  27
HETATM   27  C29 UNL     1       2.246 -12.419  19.228  1.00  0.00     0.032 C 
HETATM   28  C30 UNL     1       0.884 -12.699  18.890  1.00  0.00    -0.005 C 
BRANCH  28  29
HETATM   29  C31 UNL     1       0.267 -14.031  18.896  1.00  0.00     0.149 C 
BRANCH  29  30
HETATM   30  N7  UNL     1       0.267 -14.589  17.526  1.00  0.00    -0.363 N 
HETATM   31  C32 UNL     1       0.783 -15.674  17.173  1.00  0.00     0.197 C 
HETATM   32  N8  UNL     1       0.703 -16.077  15.816  1.00  0.00    -0.067 NA
HETATM   33  N9  UNL     1       1.446 -16.512  18.093  1.00  0.00    -0.067 NA
ATOM     34  H7  UNL     1      -0.195 -14.040  16.802  1.00  0.00     0.162 HD
ENDBRANCH  29  30
ENDBRANCH  28  29
ENDBRANCH  26  27
BRANCH  25  35
HETATM   35  O6  UNL     1       3.526 -14.917  19.758  1.00  0.00    -0.345 OA
ATOM     36  H6  UNL     1       3.922 -15.763  19.579  1.00  0.00     0.219 HD
ENDBRANCH  25  35
BRANCH   1  37
HETATM   37  C2  UNL     1       4.494 -15.350  16.527  1.00  0.00     0.065 C 
HETATM   38  C1  UNL     1       5.775 -15.484  16.175  1.00  0.00     0.017 C 
ENDBRANCH   1  37
BRANCH   4  39
HETATM   39  O2  UNL     1       1.856 -12.460  15.444  1.00  0.00    -0.332 OA
ATOM     40  H2  UNL     1       1.614 -11.785  14.822  1.00  0.00     0.221 HD
ENDBRANCH   4  39
BRANCH   7  41
HETATM   41  C6  UNL     1       3.428  -8.603  15.533  1.00  0.00     0.037 C 
BRANCH  41  42
HETATM   42  C7  UNL     1       3.550  -7.231  16.115  1.00  0.00    -0.020 C 
HETATM   43  C8  UNL     1       2.651  -7.183  17.353  1.00  0.00     0.009 C 
HETATM   44  C9  UNL     1       3.024  -6.166  15.178  1.00  0.00     0.009 C 
ENDBRANCH  41  42
ENDBRANCH   7  41
BRANCH   8  45
HETATM   45  O3  UNL     1       4.931 -10.939  14.967  1.00  0.00    -0.348 OA
ATOM     46  H3  UNL     1       5.730 -11.398  14.739  1.00  0.00     0.219 HD
ENDBRANCH   8  45
BRANCH  17  47
HETATM   47  O5  UNL     1       9.610 -13.604  19.067  1.00  0.00    -0.344 OA
ATOM     48  H5  UNL     1       9.067 -14.055  18.430  1.00  0.00     0.219 HD
ENDBRANCH  17  47
BRANCH  11  49
HETATM   49  C12 UNL     1       6.566  -8.482  18.330  1.00  0.00     0.037 C 
BRANCH  49  50
HETATM   50  C13 UNL     1       6.692  -7.012  17.965  1.00  0.00    -0.020 C 
HETATM   51  C14 UNL     1       8.095  -6.534  18.361  1.00  0.00     0.009 C 
HETATM   52  C15 UNL     1       5.751  -6.254  18.912  1.00  0.00     0.009 C 
ENDBRANCH  49  50
ENDBRANCH  11  49
BRANCH  16  53
HETATM   53  C19 UNL     1       9.776 -10.443  21.861  1.00  0.00     0.002 C 
HETATM   54  C20 UNL     1       8.922 -10.931  22.958  1.00  0.00     0.013 C 
HETATM   55  C21 UNL     1      11.147 -11.141  21.956  1.00  0.00     0.013 C 
ENDBRANCH  16  53
BRANCH  12  56
HETATM   56  O4  UNL     1       9.388  -9.113  16.903  1.00  0.00    -0.348 OA
ATOM     57  H4  UNL     1       9.115  -8.889  16.021  1.00  0.00     0.219 HD
ENDBRANCH  12  56
TORSDOF 14
ENDMDL
MODEL 3
REMARK VINA RESULT: -5.534395187      2.127      3.158
REMARK  14 active torsions:
REMARK  status: ('A' for Active; 'I' for Inactive)
REMARK    1  A    between atoms: C2_2  and  C3_3 
REMARK       I    between atoms: C3_3  and  N1_5 
REMARK    2  A    between atoms: C4_6  and  O2_7 
REMARK    3  A    between atoms: C5_11  and  C6_12 
REMARK    4  A    between atoms: C6_12  and  C7_13 
REMARK    5  A    between atoms: C10_16  and  O3_17 
REMARK    6  A    between atoms: C11_21  and  C12_22 
REMARK    7  A    between atoms: C12_22  and  C13_23 
REMARK    8  A    between atoms: C16_26  and  O4_27 
REMARK    9  A    between atoms: C18_32  and  C19_33 
REMARK   10  A    between atoms: C22_36  and  O5_37 
REMARK   11  A    between atoms: C27_46  and  O6_47 
REMARK   12  A    between atoms: C28_49  and  C29_50 
REMARK   13  A    between atoms: C30_51  and  C31_52 
REMARK   14  A    between atoms: C31_52  and  N7_53 
ROOT
HETATM    1  C3  UNL     1       2.215 -11.616  20.607  1.00  0.00     0.254 C 
HETATM    2  O1  UNL     1       2.516 -12.437  21.563  1.00  0.00    -0.268 OA
HETATM    3  N1  UNL     1       2.619 -11.944  19.310  1.00  0.00    -0.240 N 
HETATM    4  C4  UNL     1       3.324 -13.228  19.208  1.00  0.00     0.227 C 
HETATM    5  N2  UNL     1       4.406 -13.592  18.429  1.00  0.00    -0.344 N 
ATOM      6  H2  UNL     1       4.220 -14.343  17.764  1.00  0.00     0.164 HD
HETATM    7  C5  UNL     1       5.765 -13.078  18.405  1.00  0.00     0.160 C 
HETATM    8  C10 UNL     1       5.987 -12.024  19.402  1.00  0.00     0.135 C 
HETATM    9  N3  UNL     1       6.395 -10.718  19.164  1.00  0.00    -0.361 N 
ATOM     10  H3  UNL     1       5.683 -10.026  19.394  1.00  0.00     0.162 HD
HETATM   11  C11 UNL     1       7.607 -10.137  18.663  1.00  0.00     0.158 C 
HETATM   12  C16 UNL     1       7.773  -8.720  19.129  1.00  0.00     0.139 C 
HETATM   13  N4  UNL     1       6.957  -7.632  19.224  1.00  0.00    -0.336 N 
ATOM     14  H4  UNL     1       6.580  -7.544  20.168  1.00  0.00     0.168 HD
HETATM   15  C17 UNL     1       6.460  -6.542  18.358  1.00  0.00     0.081 C 
HETATM   16  C18 UNL     1       7.054  -6.475  17.042  1.00  0.00     0.011 C 
HETATM   17  C22 UNL     1       5.007  -6.383  18.604  1.00  0.00     0.167 C 
HETATM   18  N5  UNL     1       3.790  -6.651  18.045  1.00  0.00    -0.338 N 
HETATM   19  C23 UNL     1       2.769  -5.552  18.210  1.00  0.00     0.154 C 
HETATM   20  C24 UNL     1       3.179  -7.768  17.344  1.00  0.00     0.101 C 
HETATM   21  C25 UNL     1       2.295  -7.200  16.190  1.00  0.00     0.063 C 
HETATM   22  C26 UNL     1       4.121  -8.665  16.620  1.00  0.00     0.063 C 
HETATM   23  N6  UNL     1       2.345  -8.578  18.213  1.00  0.00    -0.343 N 
ATOM     24  H6  UNL     1       2.078  -8.112  19.080  1.00  0.00     0.164 HD
HETATM   25  C27 UNL     1       1.837  -9.876  18.088  1.00  0.00     0.166 C 
HETATM   26  C28 UNL     1       2.411 -11.198  18.069  1.00  0.00     0.096 C 
ENDROOT
BRANCH  26  27
HETATM   27  C29 UNL     1       2.090 -12.059  16.898  1.00  0.00     0.032 C 
HETATM   28  C30 UNL     1       2.416 -11.797  15.529  1.00  0.00    -0.005 C 
BRANCH  28  29
HETATM   29  C31 UNL     1       3.773 -11.604  15.004  1.00  0.00     0.149 C 
BRANCH  29  30
HETATM   30  N7  UNL     1       3.735 -11.550  13.525  1.00  0.00    -0.363 N 
HETATM   31  C32 UNL     1       3.691 -10.511  12.827  1.00  0.00     0.197 C 
HETATM   32  N8  UNL     1       3.656 -10.620  11.414  1.00  0.00    -0.067 NA
HETATM   33  N9  UNL     1       3.673  -9.228  13.411  1.00  0.00    -0.067 NA
ATOM     34  H7  UNL     1       3.746 -12.440  13.029  1.00  0.00     0.162 HD
ENDBRANCH  29  30
ENDBRANCH  28  29
ENDBRANCH  26  27
BRANCH  25  35
HETATM   35  O6  UNL     1       0.536  -9.907  17.955  1.00  0.00    -0.345 OA
ATOM     36  H6  UNL     1       0.098 -10.339  18.680  1.00  0.00     0.219 HD
ENDBRANCH  25  35
BRANCH   1  37
HETATM   37  C2  UNL     1       1.496 -10.506  21.162  1.00  0.00     0.065 C 
HETATM   38  C1  UNL     1       0.190 -10.599  21.422  1.00  0.00     0.017 C 
ENDBRANCH   1  37
BRANCH   4  39
HETATM   39  O2  UNL     1       2.832 -14.155  19.985  1.00  0.00    -0.332 OA
ATOM     40  H2  UNL     1       3.311 -14.974  19.948  1.00  0.00     0.221 HD
ENDBRANCH   4  39
BRANCH   7  41
HETATM   41  C6  UNL     1       6.783 -14.173  18.664  1.00  0.00     0.037 C 
BRANCH  41  42
HETATM   42  C7  UNL     1       6.401 -15.489  18.062  1.00  0.00    -0.020 C 
HETATM   43  C8  UNL     1       7.169 -16.574  18.820  1.00  0.00     0.009 C 
HETATM   44  C9  UNL     1       6.837 -15.602  16.618  1.00  0.00     0.009 C 
ENDBRANCH  41  42
ENDBRANCH   7  41
BRANCH   8  45
HETATM   45  O3  UNL     1       5.757 -12.417  20.638  1.00  0.00    -0.348 OA
ATOM     46  H3  UNL     1       4.845 -12.631  20.801  1.00  0.00     0.219 HD
ENDBRANCH   8  45
BRANCH  17  47
HETATM   47  O5  UNL     1       4.857  -5.763  19.790  1.00  0.00    -0.344 OA
ATOM     48  H5  UNL     1       5.309  -6.281  20.447  1.00  0.00     0.219 HD
ENDBRANCH  17  47
BRANCH  11  49
HETATM   49  C12 UNL     1       7.742 -10.349  17.203  1.00  0.00     0.037 C 
BRANCH  49  50
HETATM   50  C13 UNL     1       9.007 -11.141  16.913  1.00  0.00    -0.020 C 
HETATM   51  C14 UNL     1       8.610 -12.441  16.203  1.00  0.00     0.009 C 
HETATM   52  C15 UNL     1       9.545 -11.601  18.275  1.00  0.00     0.009 C 
ENDBRANCH  49  50
ENDBRANCH  11  49
BRANCH  16  53
HETATM   53  C19 UNL     1       6.831  -5.397  16.076  1.00  0.00     0.002 C 
HETATM   54  C20 UNL     1       6.064  -4.180  16.393  1.00  0.00     0.013 C 
HETATM   55  C21 UNL     1       8.125  -4.988  15.344  1.00  0.00     0.013 C 
ENDBRANCH  16  53
BRANCH  12  56
HETATM   56  O4  UNL     1       9.008  -8.522  19.540  1.00  0.00    -0.348 OA
ATOM     57  H4  UNL     1       9.051  -7.737  20.071  1.00  0.00     0.219 HD
ENDBRANCH  12  56
TORSDOF 14
ENDMDL
MODEL 4
REMARK VINA RESULT: -5.450173234      2.906      6.539
REMARK  14 active torsions:
REMARK  status: ('A' for Active; 'I' for Inactive)
REMARK    1  A    between atoms: C2_2  and  C3_3 
REMARK       I    between atoms: C3_3  and  N1_5 
REMARK    2  A    between atoms: C4_6  and  O2_7 
REMARK    3  A    between atoms: C5_11  and  C6_12 
REMARK    4  A    between atoms: C6_12  and  C7_13 
REMARK    5  A    between atoms: C10_16  and  O3_17 
REMARK    6  A    between atoms: C11_21  and  C12_22 
REMARK    7  A    between atoms: C12_22  and  C13_23 
REMARK    8  A    between atoms: C16_26  and  O4_27 
REMARK    9  A    between atoms: C18_32  and  C19_33 
REMARK   10  A    between atoms: C22_36  and  O5_37 
REMARK   11  A    between atoms: C27_46  and  O6_47 
REMARK   12  A    between atoms: C28_49  and  C29_50 
REMARK   13  A    between atoms: C30_51  and  C31_52 
REMARK   14  A    between atoms: C31_52  and  N7_53 
ROOT
HETATM    1  C3  UNL     1       3.724 -14.301  16.255  1.00  0.00     0.254 C 
HETATM    2  O1  UNL     1       3.544 -14.227  14.975  1.00  0.00    -0.268 OA
HETATM    3  N1  UNL     1       3.250 -13.250  17.046  1.00  0.00    -0.240 N 
HETATM    4  C4  UNL     1       2.569 -12.191  16.290  1.00  0.00     0.227 C 
HETATM    5  N2  UNL     1       2.589 -10.820  16.460  1.00  0.00    -0.344 N 
ATOM      6  H2  UNL     1       1.682 -10.402  16.671  1.00  0.00     0.164 HD
HETATM    7  C5  UNL     1       3.693  -9.877  16.388  1.00  0.00     0.160 C 
HETATM    8  C10 UNL     1       4.967 -10.525  16.051  1.00  0.00     0.135 C 
HETATM    9  N3  UNL     1       6.132 -10.525  16.806  1.00  0.00    -0.361 N 
ATOM     10  H3  UNL     1       6.384 -11.449  17.157  1.00  0.00     0.162 HD
HETATM   11  C11 UNL     1       7.057  -9.501  17.198  1.00  0.00     0.158 C 
HETATM   12  C16 UNL     1       8.414 -10.068  17.496  1.00  0.00     0.139 C 
HETATM   13  N4  UNL     1       8.881 -11.147  18.186  1.00  0.00    -0.336 N 
ATOM     14  H4  UNL     1       9.063 -11.928  17.556  1.00  0.00     0.168 HD
HETATM   15  C17 UNL     1       9.201 -11.515  19.581  1.00  0.00     0.081 C 
HETATM   16  C18 UNL     1       9.132 -10.435  20.539  1.00  0.00     0.011 C 
HETATM   17  C22 UNL     1       8.652 -12.868  19.840  1.00  0.00     0.167 C 
HETATM   18  N5  UNL     1       7.626 -13.504  20.478  1.00  0.00    -0.338 N 
HETATM   19  C23 UNL     1       8.017 -14.786  21.170  1.00  0.00     0.154 C 
HETATM   20  C24 UNL     1       6.197 -13.290  20.642  1.00  0.00     0.101 C 
HETATM   21  C25 UNL     1       5.810 -13.660  22.107  1.00  0.00     0.063 C 
HETATM   22  C26 UNL     1       5.742 -11.877  20.532  1.00  0.00     0.063 C 
HETATM   23  N6  UNL     1       5.408 -14.103  19.734  1.00  0.00    -0.343 N 
ATOM     24  H6  UNL     1       5.921 -14.887  19.331  1.00  0.00     0.164 HD
HETATM   25  C27 UNL     1       4.079 -14.015  19.306  1.00  0.00     0.166 C 
HETATM   26  C28 UNL     1       3.327 -13.089  18.498  1.00  0.00     0.096 C 
ENDROOT
BRANCH  26  27
HETATM   27  C29 UNL     1       2.098 -12.506  19.101  1.00  0.00     0.032 C 
HETATM   28  C30 UNL     1       1.820 -12.353  20.498  1.00  0.00    -0.005 C 
BRANCH  28  29
HETATM   29  C31 UNL     1       2.639 -11.586  21.444  1.00  0.00     0.149 C 
BRANCH  29  30
HETATM   30  N7  UNL     1       1.828 -11.223  22.627  1.00  0.00    -0.363 N 
HETATM   31  C32 UNL     1       0.869 -10.417  22.645  1.00  0.00     0.197 C 
HETATM   32  N8  UNL     1       0.186 -10.170  23.863  1.00  0.00    -0.067 NA
HETATM   33  N9  UNL     1       0.447  -9.744  21.480  1.00  0.00    -0.067 NA
ATOM     34  H7  UNL     1       2.072 -11.670  23.511  1.00  0.00     0.162 HD
ENDBRANCH  29  30
ENDBRANCH  28  29
ENDBRANCH  26  27
BRANCH  25  35
HETATM   35  O6  UNL     1       3.335 -15.001  19.738  1.00  0.00    -0.345 OA
ATOM     36  H6  UNL     1       2.804 -14.765  20.490  1.00  0.00     0.219 HD
ENDBRANCH  25  35
BRANCH   1  37
HETATM   37  C2  UNL     1       4.408 -15.526  16.554  1.00  0.00     0.065 C 
HETATM   38  C1  UNL     1       5.722 -15.643  16.349  1.00  0.00     0.017 C 
ENDBRANCH   1  37
BRANCH   4  39
HETATM   39  O2  UNL     1       1.836 -12.642  15.309  1.00  0.00    -0.332 OA
ATOM     40  H2  UNL     1       2.213 -12.485  14.451  1.00  0.00     0.221 HD
ENDBRANCH   4  39
BRANCH   7  41
HETATM   41  C6  UNL     1       3.441  -8.798  15.352  1.00  0.00     0.037 C 
BRANCH  41  42
HETATM   42  C7  UNL     1       3.489  -7.414  15.917  1.00  0.00    -0.020 C 
HETATM   43  C8  UNL     1       2.573  -7.394  17.143  1.00  0.00     0.009 C 
HETATM   44  C9  UNL     1       2.923  -6.389  14.959  1.00  0.00     0.009 C 
ENDBRANCH  41  42
ENDBRANCH   7  41
BRANCH   8  45
HETATM   45  O3  UNL     1       4.940 -11.160  14.898  1.00  0.00    -0.348 OA
ATOM     46  H3  UNL     1       4.106 -11.580  14.719  1.00  0.00     0.219 HD
ENDBRANCH   8  45
BRANCH  17  47
HETATM   47  O5  UNL     1       9.451 -13.759  19.223  1.00  0.00    -0.344 OA
ATOM     48  H5  UNL     1       9.550 -14.508  19.799  1.00  0.00     0.219 HD
ENDBRANCH  17  47
BRANCH  11  49
HETATM   49  C12 UNL     1       6.483  -8.631  18.251  1.00  0.00     0.037 C 
BRANCH  49  50
HETATM   50  C13 UNL     1       6.733  -7.172  17.906  1.00  0.00    -0.020 C 
HETATM   51  C14 UNL     1       8.085  -6.759  18.501  1.00  0.00     0.009 C 
HETATM   52  C15 UNL     1       5.702  -6.362  18.704  1.00  0.00     0.009 C 
ENDBRANCH  49  50
ENDBRANCH  11  49
BRANCH  16  53
HETATM   53  C19 UNL     1       9.552 -10.528  21.939  1.00  0.00     0.002 C 
HETATM   54  C20 UNL     1       8.676 -11.037  23.008  1.00  0.00     0.013 C 
HETATM   55  C21 UNL     1      10.944 -11.173  22.093  1.00  0.00     0.013 C 
ENDBRANCH  16  53
BRANCH  12  56
HETATM   56  O4  UNL     1       9.346  -9.324  16.938  1.00  0.00    -0.348 OA
ATOM     57  H4  UNL     1      10.062  -9.871  16.638  1.00  0.00     0.219 HD
ENDBRANCH  12  56
TORSDOF 14
ENDMDL
MODEL 5
REMARK VINA RESULT: -5.443500702      1.033      1.403
REMARK  14 active torsions:
REMARK  status: ('A' for Active; 'I' for Inactive)
REMARK    1  A    between atoms: C2_2  and  C3_3 
REMARK       I    between atoms: C3_3  and  N1_5 
REMARK    2  A    between atoms: C4_6  and  O2_7 
REMARK    3  A    between atoms: C5_11  and  C6_12 
REMARK    4  A    between atoms: C6_12  and  C7_13 
REMARK    5  A    between atoms: C10_16  and  O3_17 
REMARK    6  A    between atoms: C11_21  and  C12_22 
REMARK    7  A    between atoms: C12_22  and  C13_23 
REMARK    8  A    between atoms: C16_26  and  O4_27 
REMARK    9  A    between atoms: C18_32  and  C19_33 
REMARK   10  A    between atoms: C22_36  and  O5_37 
REMARK   11  A    between atoms: C27_46  and  O6_47 
REMARK   12  A    between atoms: C28_49  and  C29_50 
REMARK   13  A    between atoms: C30_51  and  C31_52 
REMARK   14  A    between atoms: C31_52  and  N7_53 
ROOT
HETATM    1  C3  UNL     1       4.176 -12.086  19.168  1.00  0.00     0.254 C 
HETATM    2  O1  UNL     1       4.785 -12.948  19.919  1.00  0.00    -0.268 OA
HETATM    3  N1  UNL     1       4.633 -11.921  17.857  1.00  0.00    -0.240 N 
HETATM    4  C4  UNL     1       5.756 -12.796  17.499  1.00  0.00     0.227 C 
HETATM    5  N2  UNL     1       6.872 -12.544  16.725  1.00  0.00    -0.344 N 
ATOM      6  H2  UNL     1       6.955 -13.125  15.890  1.00  0.00     0.164 HD
HETATM    7  C5  UNL     1       7.948 -11.583  16.907  1.00  0.00     0.160 C 
HETATM    8  C10 UNL     1       7.798 -10.796  18.137  1.00  0.00     0.135 C 
HETATM    9  N3  UNL     1       7.693  -9.415  18.240  1.00  0.00    -0.361 N 
ATOM     10  H3  UNL     1       6.783  -9.105  18.583  1.00  0.00     0.162 HD
HETATM   11  C11 UNL     1       8.592  -8.331  17.968  1.00  0.00     0.158 C 
HETATM   12  C16 UNL     1       8.242  -7.109  18.765  1.00  0.00     0.139 C 
HETATM   13  N4  UNL     1       7.088  -6.448  19.064  1.00  0.00    -0.336 N 
ATOM     14  H4  UNL     1       6.733  -6.735  19.977  1.00  0.00     0.168 HD
HETATM   15  C17 UNL     1       6.200  -5.437  18.451  1.00  0.00     0.081 C 
HETATM   16  C18 UNL     1       6.689  -4.842  17.229  1.00  0.00     0.011 C 
HETATM   17  C22 UNL     1       4.798  -5.880  18.637  1.00  0.00     0.167 C 
HETATM   18  N5  UNL     1       3.747  -6.426  17.957  1.00  0.00    -0.338 N 
HETATM   19  C23 UNL     1       2.401  -5.847  18.313  1.00  0.00     0.154 C 
HETATM   20  C24 UNL     1       3.567  -7.482  16.974  1.00  0.00     0.101 C 
HETATM   21  C25 UNL     1       2.503  -7.011  15.935  1.00  0.00     0.063 C 
HETATM   22  C26 UNL     1       4.750  -7.773  16.118  1.00  0.00     0.063 C 
HETATM   23  N6  UNL     1       3.114  -8.724  17.574  1.00  0.00    -0.343 N 
ATOM     24  H6  UNL     1       2.720  -8.612  18.508  1.00  0.00     0.164 HD
HETATM   25  C27 UNL     1       3.113 -10.046  17.113  1.00  0.00     0.166 C 
HETATM   26  C28 UNL     1       4.130 -11.022  16.818  1.00  0.00     0.096 C 
ENDROOT
BRANCH  26  27
HETATM   27  C29 UNL     1       4.112 -11.629  15.459  1.00  0.00     0.032 C 
HETATM   28  C30 UNL     1       3.677 -12.950  15.118  1.00  0.00    -0.005 C 
BRANCH  28  29
HETATM   29  C31 UNL     1       2.336 -13.492  15.369  1.00  0.00     0.149 C 
BRANCH  29  30
HETATM   30  N7  UNL     1       1.350 -12.805  14.505  1.00  0.00    -0.363 N 
HETATM   31  C32 UNL     1       0.748 -13.309  13.530  1.00  0.00     0.197 C 
HETATM   32  N8  UNL     1      -0.172 -12.521  12.793  1.00  0.00    -0.067 NA
HETATM   33  N9  UNL     1       0.961 -14.647  13.140  1.00  0.00    -0.067 NA
ATOM     34  H7  UNL     1       1.141 -11.831  14.724  1.00  0.00     0.162 HD
ENDBRANCH  29  30
ENDBRANCH  28  29
ENDBRANCH  26  27
BRANCH  25  35
HETATM   35  O6  UNL     1       1.910 -10.512  16.897  1.00  0.00    -0.345 OA
ATOM     36  H6  UNL     1       1.863 -11.460  16.953  1.00  0.00     0.219 HD
ENDBRANCH  25  35
BRANCH   1  37
HETATM   37  C2  UNL     1       3.118 -11.483  19.924  1.00  0.00     0.065 C 
HETATM   38  C1  UNL     1       1.939 -12.094  20.058  1.00  0.00     0.017 C 
ENDBRANCH   1  37
BRANCH   4  39
HETATM   39  O2  UNL     1       5.661 -13.997  18.003  1.00  0.00    -0.332 OA
ATOM     40  H2  UNL     1       5.957 -14.054  18.903  1.00  0.00     0.221 HD
ENDBRANCH   4  39
BRANCH   7  41
HETATM   41  C6  UNL     1       9.303 -12.263  16.962  1.00  0.00     0.037 C 
BRANCH  41  42
HETATM   42  C7  UNL     1       9.224 -13.707  17.346  1.00  0.00    -0.020 C 
HETATM   43  C8  UNL     1      10.396 -13.990  18.289  1.00  0.00     0.009 C 
HETATM   44  C9  UNL     1       9.415 -14.623  16.158  1.00  0.00     0.009 C 
ENDBRANCH  41  42
ENDBRANCH   7  41
BRANCH   8  45
HETATM   45  O3  UNL     1       7.765 -11.533  19.228  1.00  0.00    -0.348 OA
ATOM     46  H3  UNL     1       8.560 -12.034  19.368  1.00  0.00     0.219 HD
ENDBRANCH   8  45
BRANCH  17  47
HETATM   47  O5  UNL     1       4.467  -5.665  19.925  1.00  0.00    -0.344 OA
ATOM     48  H5  UNL     1       3.581  -5.985  20.054  1.00  0.00     0.219 HD
ENDBRANCH  17  47
BRANCH  11  49
HETATM   49  C12 UNL     1       8.752  -8.119  16.511  1.00  0.00     0.037 C 
BRANCH  49  50
HETATM   50  C13 UNL     1       9.297  -6.724  16.251  1.00  0.00    -0.020 C 
HETATM   51  C14 UNL     1       9.337  -6.495  14.735  1.00  0.00     0.009 C 
HETATM   52  C15 UNL     1      10.774  -6.757  16.668  1.00  0.00     0.009 C 
ENDBRANCH  49  50
ENDBRANCH  11  49
BRANCH  16  53
HETATM   53  C19 UNL     1       6.058  -3.718  16.533  1.00  0.00     0.002 C 
HETATM   54  C20 UNL     1       6.788  -2.495  16.158  1.00  0.00     0.013 C 
HETATM   55  C21 UNL     1       5.209  -4.174  15.330  1.00  0.00     0.013 C 
ENDBRANCH  16  53
BRANCH  12  56
HETATM   56  O4  UNL     1       9.330  -6.584  19.287  1.00  0.00    -0.348 OA
ATOM     57  H4  UNL     1       9.103  -6.038  20.030  1.00  0.00     0.219 HD
ENDBRANCH  12  56
TORSDOF 14
ENDMDL
