MODEL 1
REMARK VINA RESULT: -8.916881755      0.000      0.000
REMARK  13 active torsions:
REMARK  status: ('A' for Active; 'I' for Inactive)
REMARK    1  A    between atoms: C3_3  and  O1_4 
REMARK    2  A    between atoms: O1_4  and  C4_5 
REMARK    3  A    between atoms: C4_5  and  C5_6 
REMARK    4  A    between atoms: C5_6  and  N1_7 
REMARK       I    between atoms: N1_7  and  C6_9 
REMARK    5  A    between atoms: C6_9  and  C7_11 
REMARK    6  A    between atoms: C11_15  and  N2_16 
REMARK    7  A    between atoms: C12_18  and  N3_20 
REMARK    8  A    between atoms: N3_20  and  C14_22 
REMARK    9  A    between atoms: C14_22  and  C15_23 
REMARK   10  A    between atoms: C15_23  and  C16_24 
REMARK   11  A    between atoms: C16_24  and  C17_25 
REMARK   12  A    between atoms: C17_25  and  N4_26 
REMARK   13  A    between atoms: C20_34  and  C22_36 
REMARK       I    between atoms: N8_45  and  C28_46 
ROOT
HETATM    1  C1  UNL     1       0.659  -0.792  14.283  1.00  0.00     0.099 C 
HETATM    2  C2  UNL     1       0.394  -0.043  13.352  1.00  0.00    -0.162 C 
HETATM    3  C3  UNL     1       0.047   0.869  12.268  1.00  0.00     0.246 C 
ENDROOT
BRANCH   3   4
HETATM    4  O1  UNL     1       1.031   1.598  11.780  1.00  0.00    -0.379 OA
BRANCH   4   5
HETATM    5  C4  UNL     1       2.239   1.137  11.484  1.00  0.00     0.188 C 
BRANCH   5   6
HETATM    6  C5  UNL     1       3.395   1.384  12.392  1.00  0.00     0.148 C 
BRANCH   6   7
HETATM    7  N1  UNL     1       4.038   0.116  12.776  1.00  0.00    -0.358 N 
HETATM    8  C6  UNL     1       4.299  -0.137  14.120  1.00  0.00     0.229 C 
HETATM    9  O2  UNL     1       3.976   0.722  14.980  1.00  0.00    -0.273 OA
ATOM     10  H1  UNL     1       4.289  -0.569  12.064  1.00  0.00     0.162 HD
BRANCH   8  11
HETATM   11  C7  UNL     1       4.952  -1.383  14.611  1.00  0.00     0.072 C 
HETATM   12  C8  UNL     1       4.177  -2.566  14.112  1.00  0.00     0.048 C 
HETATM   13  C9  UNL     1       4.725  -3.879  14.582  1.00  0.00     0.100 C 
HETATM   14  C10 UNL     1       6.192  -3.925  14.799  1.00  0.00     0.057 C 
HETATM   15  N8  UNL     1       3.965  -4.242  15.804  1.00  0.00    -0.274 N 
HETATM   16  C11 UNL     1       6.863  -2.630  15.091  1.00  0.00     0.043 C 
HETATM   17  C25 UNL     1       6.384  -2.044  16.426  1.00  0.00     0.058 C 
HETATM   18  C29 UNL     1       6.361  -1.510  14.162  1.00  0.00    -0.004 C 
HETATM   19  C26 UNL     1       5.078  -1.310  16.092  1.00  0.00     0.105 C 
HETATM   20  N7  UNL     1       3.986  -1.883  16.845  1.00  0.00    -0.361 N 
HETATM   21  C27 UNL     1       3.630  -3.283  16.799  1.00  0.00     0.178 C 
ATOM     22  H7  UNL     1       3.436  -1.265  17.441  1.00  0.00     0.162 HD
HETATM   23  S1  UNL     1       2.726  -3.837  18.048  1.00  0.00    -0.041 SA
HETATM   24  C30 UNL     1       6.604  -1.925  12.765  1.00  0.00     0.019 C 
HETATM   25  C31 UNL     1       7.203  -0.292  14.469  1.00  0.00     0.019 C 
HETATM   26  C28 UNL     1       3.586  -5.581  15.938  1.00  0.00     0.337 C 
HETATM   27  N9  UNL     1       2.865  -6.075  17.035  1.00  0.00    -0.039 NA
HETATM   28  O4  UNL     1       3.899  -6.394  15.040  1.00  0.00    -0.250 OA
BRANCH  16  29
HETATM   29  N2  UNL     1       8.263  -2.690  15.125  1.00  0.00    -0.370 N 
HETATM   30  C12 UNL     1       9.124  -3.355  15.707  1.00  0.00     0.069 C 
HETATM   31  C13 UNL     1      10.586  -3.073  15.434  1.00  0.00     0.088 C 
ATOM     32  H2  UNL     1       8.683  -1.999  14.502  1.00  0.00     0.161 HD
BRANCH  30  33
HETATM   33  N3  UNL     1       8.938  -4.423  16.665  1.00  0.00    -0.380 N 
ATOM     34  H3  UNL     1       8.022  -4.829  16.857  1.00  0.00     0.160 HD
BRANCH  33  35
HETATM   35  C14 UNL     1      10.118  -4.870  17.321  1.00  0.00     0.121 C 
BRANCH  35  36
HETATM   36  C15 UNL     1      10.313  -6.294  17.605  1.00  0.00     0.021 C 
BRANCH  36  37
HETATM   37  C16 UNL     1       9.216  -6.999  18.332  1.00  0.00     0.032 C 
BRANCH  37  38
HETATM   38  C17 UNL     1       8.831  -8.277  17.769  1.00  0.00     0.268 C 
BRANCH  38  39
HETATM   39  N4  UNL     1       8.239  -9.297  18.562  1.00  0.00     0.043 N 
HETATM   40  C18 UNL     1       8.895  -9.393  19.857  1.00  0.00     0.306 C 
HETATM   41  N5  UNL     1       6.944  -8.799  18.840  1.00  0.00    -0.164 N 
HETATM   42  C19 UNL     1       6.167  -9.129  17.711  1.00  0.00     0.342 C 
ATOM     43  H5  UNL     1       6.637  -8.307  19.680  1.00  0.00     0.199 HD
HETATM   44  O3  UNL     1       5.069  -8.635  17.320  1.00  0.00    -0.246 OA
HETATM   45  N6  UNL     1       6.887 -10.195  17.040  1.00  0.00    -0.303 N 
HETATM   46  C20 UNL     1       7.897 -10.552  18.008  1.00  0.00     0.247 C 
ATOM     47  H6  UNL     1       6.721 -10.593  16.116  1.00  0.00     0.167 HD
HETATM   48  C21 UNL     1       7.068 -11.307  19.097  1.00  0.00     0.079 C 
BRANCH  46  49
HETATM   49  C22 UNL     1       8.929 -11.462  17.567  1.00  0.00    -0.035 C 
HETATM   50  C23 UNL     1       8.711 -12.336  16.609  1.00  0.00     0.018 C 
HETATM   51  C24 UNL     1      10.259 -11.465  18.224  1.00  0.00     0.047 C 
ENDBRANCH  46  49
ENDBRANCH  38  39
ENDBRANCH  37  38
ENDBRANCH  36  37
ENDBRANCH  35  36
ENDBRANCH  33  35
ENDBRANCH  30  33
ENDBRANCH  16  29
ENDBRANCH   8  11
ENDBRANCH   6   7
ENDBRANCH   5   6
ENDBRANCH   4   5
ENDBRANCH   3   4
TORSDOF 13
ENDMDL
MODEL 2
REMARK VINA RESULT: -8.824879975      1.373      2.183
REMARK  13 active torsions:
REMARK  status: ('A' for Active; 'I' for Inactive)
REMARK    1  A    between atoms: C3_3  and  O1_4 
REMARK    2  A    between atoms: O1_4  and  C4_5 
REMARK    3  A    between atoms: C4_5  and  C5_6 
REMARK    4  A    between atoms: C5_6  and  N1_7 
REMARK       I    between atoms: N1_7  and  C6_9 
REMARK    5  A    between atoms: C6_9  and  C7_11 
REMARK    6  A    between atoms: C11_15  and  N2_16 
REMARK    7  A    between atoms: C12_18  and  N3_20 
REMARK    8  A    between atoms: N3_20  and  C14_22 
REMARK    9  A    between atoms: C14_22  and  C15_23 
REMARK   10  A    between atoms: C15_23  and  C16_24 
REMARK   11  A    between atoms: C16_24  and  C17_25 
REMARK   12  A    between atoms: C17_25  and  N4_26 
REMARK   13  A    between atoms: C20_34  and  C22_36 
REMARK       I    between atoms: N8_45  and  C28_46 
ROOT
HETATM    1  C1  UNL     1       7.895   0.970  10.735  1.00  0.00     0.099 C 
HETATM    2  C2  UNL     1       6.809   1.430  11.060  1.00  0.00    -0.162 C 
HETATM    3  C3  UNL     1       5.523   2.015  11.425  1.00  0.00     0.246 C 
ENDROOT
BRANCH   3   4
HETATM    4  O1  UNL     1       4.452   1.308  11.123  1.00  0.00    -0.379 OA
BRANCH   4   5
HETATM    5  C4  UNL     1       3.211   1.635  11.455  1.00  0.00     0.188 C 
BRANCH   5   6
HETATM    6  C5  UNL     1       2.520   0.960  12.590  1.00  0.00     0.148 C 
BRANCH   6   7
HETATM    7  N1  UNL     1       3.217  -0.282  12.962  1.00  0.00    -0.358 N 
HETATM    8  C6  UNL     1       3.939  -0.329  14.152  1.00  0.00     0.229 C 
HETATM    9  O2  UNL     1       3.977   0.691  14.888  1.00  0.00    -0.273 OA
ATOM     10  H1  UNL     1       3.172  -1.100  12.354  1.00  0.00     0.162 HD
BRANCH   8  11
HETATM   11  C7  UNL     1       4.684  -1.533  14.616  1.00  0.00     0.072 C 
HETATM   12  C8  UNL     1       3.955  -2.761  14.159  1.00  0.00     0.048 C 
HETATM   13  C9  UNL     1       4.598  -4.038  14.607  1.00  0.00     0.100 C 
HETATM   14  C10 UNL     1       6.074  -3.999  14.753  1.00  0.00     0.057 C 
HETATM   15  N8  UNL     1       3.920  -4.436  15.865  1.00  0.00    -0.274 N 
HETATM   16  C11 UNL     1       6.684  -2.667  15.008  1.00  0.00     0.043 C 
HETATM   17  C25 UNL     1       6.237  -2.101  16.363  1.00  0.00     0.058 C 
HETATM   18  C29 UNL     1       6.075  -1.583  14.100  1.00  0.00    -0.004 C 
HETATM   19  C26 UNL     1       4.877  -1.444  16.089  1.00  0.00     0.105 C 
HETATM   20  N7  UNL     1       3.856  -2.073  16.895  1.00  0.00    -0.361 N 
HETATM   21  C27 UNL     1       3.578  -3.491  16.872  1.00  0.00     0.178 C 
ATOM     22  H7  UNL     1       3.301  -1.483  17.515  1.00  0.00     0.162 HD
HETATM   23  S1  UNL     1       2.768  -4.088  18.165  1.00  0.00    -0.041 SA
HETATM   24  C30 UNL     1       6.275  -1.992  12.695  1.00  0.00     0.019 C 
HETATM   25  C31 UNL     1       6.860  -0.317  14.362  1.00  0.00     0.019 C 
HETATM   26  C28 UNL     1       3.624  -5.794  16.022  1.00  0.00     0.337 C 
HETATM   27  N9  UNL     1       2.986  -6.320  17.154  1.00  0.00    -0.039 NA
HETATM   28  O4  UNL     1       3.940  -6.593  15.113  1.00  0.00    -0.250 OA
BRANCH  16  29
HETATM   29  N2  UNL     1       8.085  -2.646  14.975  1.00  0.00    -0.370 N 
HETATM   30  C12 UNL     1       9.010  -3.187  15.587  1.00  0.00     0.069 C 
HETATM   31  C13 UNL     1      10.439  -2.863  15.205  1.00  0.00     0.088 C 
ATOM     32  H2  UNL     1       8.434  -2.017  14.251  1.00  0.00     0.161 HD
BRANCH  30  33
HETATM   33  N3  UNL     1       8.932  -4.136  16.676  1.00  0.00    -0.380 N 
ATOM     34  H3  UNL     1       8.896  -3.843  17.653  1.00  0.00     0.160 HD
BRANCH  33  35
HETATM   35  C14 UNL     1       8.909  -5.505  16.294  1.00  0.00     0.121 C 
BRANCH  35  36
HETATM   36  C15 UNL     1      10.101  -6.341  16.463  1.00  0.00     0.021 C 
BRANCH  36  37
HETATM   37  C16 UNL     1       9.979  -7.525  17.364  1.00  0.00     0.032 C 
BRANCH  37  38
HETATM   38  C17 UNL     1       8.898  -8.434  17.040  1.00  0.00     0.268 C 
BRANCH  38  39
HETATM   39  N4  UNL     1       8.178  -9.131  18.047  1.00  0.00     0.043 N 
HETATM   40  C18 UNL     1       9.068  -9.966  18.838  1.00  0.00     0.306 C 
HETATM   41  N5  UNL     1       7.752  -8.108  18.927  1.00  0.00    -0.164 N 
HETATM   42  C19 UNL     1       6.577  -7.585  18.350  1.00  0.00     0.342 C 
ATOM     43  H5  UNL     1       8.199  -7.812  19.794  1.00  0.00     0.199 HD
HETATM   44  O3  UNL     1       6.010  -6.471  18.553  1.00  0.00    -0.246 OA
HETATM   45  N6  UNL     1       6.104  -8.605  17.433  1.00  0.00    -0.303 N 
HETATM   46  C20 UNL     1       6.932  -9.739  17.769  1.00  0.00     0.247 C 
ATOM     47  H6  UNL     1       5.371  -8.538  16.728  1.00  0.00     0.167 HD
HETATM   48  C21 UNL     1       6.342 -10.190  19.145  1.00  0.00     0.079 C 
BRANCH  46  49
HETATM   49  C22 UNL     1       6.856 -10.883  16.890  1.00  0.00    -0.035 C 
HETATM   50  C23 UNL     1       5.841 -11.056  16.074  1.00  0.00     0.018 C 
HETATM   51  C24 UNL     1       7.910 -11.927  16.924  1.00  0.00     0.047 C 
ENDBRANCH  46  49
ENDBRANCH  38  39
ENDBRANCH  37  38
ENDBRANCH  36  37
ENDBRANCH  35  36
ENDBRANCH  33  35
ENDBRANCH  30  33
ENDBRANCH  16  29
ENDBRANCH   8  11
ENDBRANCH   6   7
ENDBRANCH   5   6
ENDBRANCH   4   5
ENDBRANCH   3   4
TORSDOF 13
ENDMDL
MODEL 3
REMARK VINA RESULT: -8.595720941      1.121      1.854
REMARK  13 active torsions:
REMARK  status: ('A' for Active; 'I' for Inactive)
REMARK    1  A    between atoms: C3_3  and  O1_4 
REMARK    2  A    between atoms: O1_4  and  C4_5 
REMARK    3  A    between atoms: C4_5  and  C5_6 
REMARK    4  A    between atoms: C5_6  and  N1_7 
REMARK       I    between atoms: N1_7  and  C6_9 
REMARK    5  A    between atoms: C6_9  and  C7_11 
REMARK    6  A    between atoms: C11_15  and  N2_16 
REMARK    7  A    between atoms: C12_18  and  N3_20 
REMARK    8  A    between atoms: N3_20  and  C14_22 
REMARK    9  A    between atoms: C14_22  and  C15_23 
REMARK   10  A    between atoms: C15_23  and  C16_24 
REMARK   11  A    between atoms: C16_24  and  C17_25 
REMARK   12  A    between atoms: C17_25  and  N4_26 
REMARK   13  A    between atoms: C20_34  and  C22_36 
REMARK       I    between atoms: N8_45  and  C28_46 
ROOT
HETATM    1  C1  UNL     1       0.386  -0.432  13.906  1.00  0.00     0.099 C 
HETATM    2  C2  UNL     1       0.177   0.389  13.024  1.00  0.00    -0.162 C 
HETATM    3  C3  UNL     1      -0.086   1.398  12.003  1.00  0.00     0.246 C 
ENDROOT
BRANCH   3   4
HETATM    4  O1  UNL     1       0.941   1.758  11.259  1.00  0.00    -0.379 OA
BRANCH   4   5
HETATM    5  C4  UNL     1       2.098   1.114  11.204  1.00  0.00     0.188 C 
BRANCH   5   6
HETATM    6  C5  UNL     1       3.192   1.424  12.167  1.00  0.00     0.148 C 
BRANCH   6   7
HETATM    7  N1  UNL     1       3.917   0.201  12.547  1.00  0.00    -0.358 N 
HETATM    8  C6  UNL     1       4.112  -0.086  13.895  1.00  0.00     0.229 C 
HETATM    9  O2  UNL     1       3.660   0.704  14.763  1.00  0.00    -0.273 OA
ATOM     10  H1  UNL     1       4.273  -0.430  11.828  1.00  0.00     0.162 HD
BRANCH   8  11
HETATM   11  C7  UNL     1       4.837  -1.292  14.384  1.00  0.00     0.072 C 
HETATM   12  C8  UNL     1       4.081  -2.518  13.963  1.00  0.00     0.048 C 
HETATM   13  C9  UNL     1       4.704  -3.795  14.438  1.00  0.00     0.100 C 
HETATM   14  C10 UNL     1       6.181  -3.781  14.572  1.00  0.00     0.057 C 
HETATM   15  N8  UNL     1       4.028  -4.148  15.711  1.00  0.00    -0.274 N 
HETATM   16  C11 UNL     1       6.819  -2.455  14.788  1.00  0.00     0.043 C 
HETATM   17  C25 UNL     1       6.393  -1.846  16.132  1.00  0.00     0.058 C 
HETATM   18  C29 UNL     1       6.223  -1.382  13.858  1.00  0.00    -0.004 C 
HETATM   19  C26 UNL     1       5.044  -1.170  15.852  1.00  0.00     0.105 C 
HETATM   20  N7  UNL     1       4.018  -1.759  16.682  1.00  0.00    -0.361 N 
HETATM   21  C27 UNL     1       3.713  -3.172  16.696  1.00  0.00     0.178 C 
ATOM     22  H7  UNL     1       3.479  -1.143  17.291  1.00  0.00     0.162 HD
HETATM   23  S1  UNL     1       2.902  -3.720  18.010  1.00  0.00    -0.041 SA
HETATM   24  C30 UNL     1       6.403  -1.831  12.462  1.00  0.00     0.019 C 
HETATM   25  C31 UNL     1       7.035  -0.126  14.082  1.00  0.00     0.019 C 
HETATM   26  C28 UNL     1       3.708  -5.495  15.904  1.00  0.00     0.337 C 
HETATM   27  N9  UNL     1       3.068  -5.981  17.055  1.00  0.00    -0.039 NA
HETATM   28  O4  UNL     1       4.000  -6.323  15.013  1.00  0.00    -0.250 OA
BRANCH  16  29
HETATM   29  N2  UNL     1       8.220  -2.463  14.744  1.00  0.00    -0.370 N 
HETATM   30  C12 UNL     1       9.133  -3.161  15.192  1.00  0.00     0.069 C 
HETATM   31  C13 UNL     1      10.567  -2.789  14.885  1.00  0.00     0.088 C 
ATOM     32  H2  UNL     1       8.581  -1.682  14.195  1.00  0.00     0.161 HD
BRANCH  30  33
HETATM   33  N3  UNL     1       9.034  -4.348  16.014  1.00  0.00    -0.380 N 
ATOM     34  H3  UNL     1       8.254  -5.001  15.936  1.00  0.00     0.160 HD
BRANCH  33  35
HETATM   35  C14 UNL     1      10.098  -4.544  16.936  1.00  0.00     0.121 C 
BRANCH  35  36
HETATM   36  C15 UNL     1       9.977  -5.536  18.008  1.00  0.00     0.021 C 
BRANCH  36  37
HETATM   37  C16 UNL     1       8.688  -6.284  18.098  1.00  0.00     0.032 C 
BRANCH  37  38
HETATM   38  C17 UNL     1       8.735  -7.493  18.894  1.00  0.00     0.268 C 
BRANCH  38  39
HETATM   39  N4  UNL     1       8.578  -8.780  18.312  1.00  0.00     0.043 N 
HETATM   40  C18 UNL     1       9.019  -8.780  16.926  1.00  0.00     0.306 C 
HETATM   41  N5  UNL     1       9.522  -9.579  19.000  1.00  0.00    -0.164 N 
HETATM   42  C19 UNL     1       8.883  -9.965  20.196  1.00  0.00     0.342 C 
ATOM     43  H5  UNL     1      10.464  -9.825  18.695  1.00  0.00     0.199 HD
HETATM   44  O3  UNL     1       9.390 -10.388  21.276  1.00  0.00    -0.246 OA
HETATM   45  N6  UNL     1       7.464  -9.784  19.956  1.00  0.00    -0.303 N 
HETATM   46  C20 UNL     1       7.412  -9.548  18.533  1.00  0.00     0.247 C 
ATOM     47  H6  UNL     1       6.696  -9.815  20.626  1.00  0.00     0.167 HD
HETATM   48  C21 UNL     1       7.697 -10.968  17.946  1.00  0.00     0.079 C 
BRANCH  46  49
HETATM   49  C22 UNL     1       6.142  -9.122  17.990  1.00  0.00    -0.035 C 
HETATM   50  C23 UNL     1       5.500  -9.842  17.096  1.00  0.00     0.018 C 
HETATM   51  C24 UNL     1       5.550  -7.824  18.395  1.00  0.00     0.047 C 
ENDBRANCH  46  49
ENDBRANCH  38  39
ENDBRANCH  37  38
ENDBRANCH  36  37
ENDBRANCH  35  36
ENDBRANCH  33  35
ENDBRANCH  30  33
ENDBRANCH  16  29
ENDBRANCH   8  11
ENDBRANCH   6   7
ENDBRANCH   5   6
ENDBRANCH   4   5
ENDBRANCH   3   4
TORSDOF 13
ENDMDL
MODEL 4
REMARK VINA RESULT: -8.499907282      1.124      1.572
REMARK  13 active torsions:
REMARK  status: ('A' for Active; 'I' for Inactive)
REMARK    1  A    between atoms: C3_3  and  O1_4 
REMARK    2  A    between atoms: O1_4  and  C4_5 
REMARK    3  A    between atoms: C4_5  and  C5_6 
REMARK    4  A    between atoms: C5_6  and  N1_7 
REMARK       I    between atoms: N1_7  and  C6_9 
REMARK    5  A    between atoms: C6_9  and  C7_11 
REMARK    6  A    between atoms: C11_15  and  N2_16 
REMARK    7  A    between atoms: C12_18  and  N3_20 
REMARK    8  A    between atoms: N3_20  and  C14_22 
REMARK    9  A    between atoms: C14_22  and  C15_23 
REMARK   10  A    between atoms: C15_23  and  C16_24 
REMARK   11  A    between atoms: C16_24  and  C17_25 
REMARK   12  A    between atoms: C17_25  and  N4_26 
REMARK   13  A    between atoms: C20_34  and  C22_36 
REMARK       I    between atoms: N8_45  and  C28_46 
ROOT
HETATM    1  C1  UNL     1       1.257   3.175   8.807  1.00  0.00     0.099 C 
HETATM    2  C2  UNL     1       0.762   2.940   9.900  1.00  0.00    -0.162 C 
HETATM    3  C3  UNL     1       0.131   2.666  11.187  1.00  0.00     0.246 C 
ENDROOT
BRANCH   3   4
HETATM    4  O1  UNL     1       0.398   1.495  11.731  1.00  0.00    -0.379 OA
BRANCH   4   5
HETATM    5  C4  UNL     1       1.565   0.871  11.650  1.00  0.00     0.188 C 
BRANCH   5   6
HETATM    6  C5  UNL     1       2.616   1.076  12.686  1.00  0.00     0.148 C 
BRANCH   6   7
HETATM    7  N1  UNL     1       3.286  -0.194  13.010  1.00  0.00    -0.358 N 
HETATM    8  C6  UNL     1       3.986  -0.310  14.208  1.00  0.00     0.229 C 
HETATM    9  O2  UNL     1       4.028   0.673  14.993  1.00  0.00    -0.273 OA
ATOM     10  H1  UNL     1       3.238  -0.981  12.363  1.00  0.00     0.162 HD
BRANCH   8  11
HETATM   11  C7  UNL     1       4.703  -1.547  14.627  1.00  0.00     0.072 C 
HETATM   12  C8  UNL     1       3.908  -2.741  14.188  1.00  0.00     0.048 C 
HETATM   13  C9  UNL     1       4.521  -4.047  14.593  1.00  0.00     0.100 C 
HETATM   14  C10 UNL     1       6.002  -4.066  14.676  1.00  0.00     0.057 C 
HETATM   15  N8  UNL     1       3.883  -4.434  15.876  1.00  0.00    -0.274 N 
HETATM   16  C11 UNL     1       6.673  -2.761  14.918  1.00  0.00     0.043 C 
HETATM   17  C25 UNL     1       6.307  -2.195  16.297  1.00  0.00     0.058 C 
HETATM   18  C29 UNL     1       6.068  -1.643  14.050  1.00  0.00    -0.004 C 
HETATM   19  C26 UNL     1       4.963  -1.483  16.090  1.00  0.00     0.105 C 
HETATM   20  N7  UNL     1       3.954  -2.083  16.933  1.00  0.00    -0.361 N 
HETATM   21  C27 UNL     1       3.621  -3.490  16.907  1.00  0.00     0.178 C 
ATOM     22  H7  UNL     1       3.449  -1.481  17.583  1.00  0.00     0.162 HD
HETATM   23  S1  UNL     1       2.845  -4.072  18.227  1.00  0.00    -0.041 SA
HETATM   24  C30 UNL     1       6.191  -2.042  12.633  1.00  0.00     0.019 C 
HETATM   25  C31 UNL     1       6.912  -0.412  14.291  1.00  0.00     0.019 C 
HETATM   26  C28 UNL     1       3.542  -5.781  16.030  1.00  0.00     0.337 C 
HETATM   27  N9  UNL     1       2.933  -6.298  17.184  1.00  0.00    -0.039 NA
HETATM   28  O4  UNL     1       3.787  -6.581  15.100  1.00  0.00    -0.250 OA
BRANCH  16  29
HETATM   29  N2  UNL     1       8.072  -2.793  14.824  1.00  0.00    -0.370 N 
HETATM   30  C12 UNL     1       9.002  -3.354  15.409  1.00  0.00     0.069 C 
HETATM   31  C13 UNL     1      10.423  -3.092  14.958  1.00  0.00     0.088 C 
ATOM     32  H2  UNL     1       8.410  -2.193  14.072  1.00  0.00     0.161 HD
BRANCH  30  33
HETATM   33  N3  UNL     1       8.938  -4.276  16.522  1.00  0.00    -0.380 N 
ATOM     34  H3  UNL     1       8.103  -4.375  17.100  1.00  0.00     0.160 HD
BRANCH  33  35
HETATM   35  C14 UNL     1      10.116  -5.036  16.757  1.00  0.00     0.121 C 
BRANCH  35  36
HETATM   36  C15 UNL     1      10.138  -6.475  16.478  1.00  0.00     0.021 C 
BRANCH  36  37
HETATM   37  C16 UNL     1       9.745  -7.388  17.592  1.00  0.00     0.032 C 
BRANCH  37  38
HETATM   38  C17 UNL     1       8.958  -8.538  17.193  1.00  0.00     0.268 C 
BRANCH  38  39
HETATM   39  N4  UNL     1       8.217  -9.301  18.135  1.00  0.00     0.043 N 
HETATM   40  C18 UNL     1       9.104 -10.090  18.976  1.00  0.00     0.306 C 
HETATM   41  N5  UNL     1       7.660  -8.327  18.997  1.00  0.00    -0.164 N 
HETATM   42  C19 UNL     1       6.496  -7.872  18.344  1.00  0.00     0.342 C 
ATOM     43  H5  UNL     1       8.024  -8.019  19.899  1.00  0.00     0.199 HD
HETATM   44  O3  UNL     1       5.842  -6.804  18.522  1.00  0.00    -0.246 OA
HETATM   45  N6  UNL     1       6.162  -8.904  17.380  1.00  0.00    -0.303 N 
HETATM   46  C20 UNL     1       7.039  -9.987  17.759  1.00  0.00     0.247 C 
ATOM     47  H6  UNL     1       5.478  -8.872  16.625  1.00  0.00     0.167 HD
HETATM   48  C21 UNL     1       6.384 -10.503  19.082  1.00  0.00     0.079 C 
BRANCH  46  49
HETATM   49  C22 UNL     1       7.105 -11.116  16.860  1.00  0.00    -0.035 C 
HETATM   50  C23 UNL     1       6.092 -11.438  16.086  1.00  0.00     0.018 C 
HETATM   51  C24 UNL     1       8.312 -11.977  16.823  1.00  0.00     0.047 C 
ENDBRANCH  46  49
ENDBRANCH  38  39
ENDBRANCH  37  38
ENDBRANCH  36  37
ENDBRANCH  35  36
ENDBRANCH  33  35
ENDBRANCH  30  33
ENDBRANCH  16  29
ENDBRANCH   8  11
ENDBRANCH   6   7
ENDBRANCH   5   6
ENDBRANCH   4   5
ENDBRANCH   3   4
TORSDOF 13
ENDMDL
MODEL 5
REMARK VINA RESULT: -8.457433487      2.620      4.901
REMARK  13 active torsions:
REMARK  status: ('A' for Active; 'I' for Inactive)
REMARK    1  A    between atoms: C3_3  and  O1_4 
REMARK    2  A    between atoms: O1_4  and  C4_5 
REMARK    3  A    between atoms: C4_5  and  C5_6 
REMARK    4  A    between atoms: C5_6  and  N1_7 
REMARK       I    between atoms: N1_7  and  C6_9 
REMARK    5  A    between atoms: C6_9  and  C7_11 
REMARK    6  A    between atoms: C11_15  and  N2_16 
REMARK    7  A    between atoms: C12_18  and  N3_20 
REMARK    8  A    between atoms: N3_20  and  C14_22 
REMARK    9  A    between atoms: C14_22  and  C15_23 
REMARK   10  A    between atoms: C15_23  and  C16_24 
REMARK   11  A    between atoms: C16_24  and  C17_25 
REMARK   12  A    between atoms: C17_25  and  N4_26 
REMARK   13  A    between atoms: C20_34  and  C22_36 
REMARK       I    between atoms: N8_45  and  C28_46 
ROOT
HETATM    1  C1  UNL     1       2.085  -5.670  14.439  1.00  0.00     0.099 C 
HETATM    2  C2  UNL     1       2.434  -5.931  15.582  1.00  0.00    -0.162 C 
HETATM    3  C3  UNL     1       2.886  -6.264  16.928  1.00  0.00     0.246 C 
ENDROOT
BRANCH   3   4
HETATM    4  O1  UNL     1       3.077  -5.249  17.748  1.00  0.00    -0.379 OA
BRANCH   4   5
HETATM    5  C4  UNL     1       2.170  -4.325  18.033  1.00  0.00     0.188 C 
BRANCH   5   6
HETATM    6  C5  UNL     1       2.447  -2.881  17.790  1.00  0.00     0.148 C 
BRANCH   6   7
HETATM    7  N1  UNL     1       3.780  -2.698  17.194  1.00  0.00    -0.358 N 
HETATM    8  C6  UNL     1       3.889  -2.456  15.827  1.00  0.00     0.229 C 
HETATM    9  O2  UNL     1       2.844  -2.395  15.129  1.00  0.00    -0.273 OA
ATOM     10  H1  UNL     1       4.616  -2.747  17.777  1.00  0.00     0.162 HD
BRANCH   8  11
HETATM   11  C7  UNL     1       5.189  -2.263  15.126  1.00  0.00     0.072 C 
HETATM   12  C8  UNL     1       5.776  -0.947  15.543  1.00  0.00     0.048 C 
HETATM   13  C9  UNL     1       7.073  -0.631  14.865  1.00  0.00     0.100 C 
HETATM   14  C10 UNL     1       7.916  -1.799  14.509  1.00  0.00     0.057 C 
HETATM   15  N8  UNL     1       6.741   0.203  13.682  1.00  0.00    -0.274 N 
HETATM   16  C11 UNL     1       7.213  -3.096  14.320  1.00  0.00     0.043 C 
HETATM   17  C25 UNL     1       6.260  -3.040  13.117  1.00  0.00     0.058 C 
HETATM   18  C29 UNL     1       6.168  -3.339  15.423  1.00  0.00    -0.004 C 
HETATM   19  C26 UNL     1       4.973  -2.404  13.660  1.00  0.00     0.105 C 
HETATM   20  N7  UNL     1       4.692  -1.179  12.946  1.00  0.00    -0.361 N 
HETATM   21  C27 UNL     1       5.623  -0.077  12.850  1.00  0.00     0.178 C 
ATOM     22  H7  UNL     1       3.787  -1.087  12.485  1.00  0.00     0.162 HD
HETATM   23  S1  UNL     1       5.358   0.985  11.631  1.00  0.00    -0.041 SA
HETATM   24  C30 UNL     1       6.858  -3.301  16.728  1.00  0.00     0.019 C 
HETATM   25  C31 UNL     1       5.622  -4.730  15.194  1.00  0.00     0.019 C 
HETATM   26  C28 UNL     1       7.582   1.288  13.419  1.00  0.00     0.337 C 
HETATM   27  N9  UNL     1       7.396   2.166  12.340  1.00  0.00    -0.039 NA
HETATM   28  O4  UNL     1       8.554   1.502  14.175  1.00  0.00    -0.250 OA
BRANCH  16  29
HETATM   29  N2  UNL     1       8.057  -4.202  14.149  1.00  0.00    -0.370 N 
HETATM   30  C12 UNL     1       9.063  -4.662  14.695  1.00  0.00     0.069 C 
HETATM   31  C13 UNL     1       9.677  -5.938  14.160  1.00  0.00     0.088 C 
ATOM     32  H2  UNL     1       7.761  -4.781  13.363  1.00  0.00     0.161 HD
BRANCH  30  33
HETATM   33  N3  UNL     1       9.786  -4.137  15.834  1.00  0.00    -0.380 N 
ATOM     34  H3  UNL     1       9.907  -3.136  15.988  1.00  0.00     0.160 HD
BRANCH  33  35
HETATM   35  C14 UNL     1      10.315  -5.112  16.724  1.00  0.00     0.121 C 
BRANCH  35  36
HETATM   36  C15 UNL     1       9.639  -5.404  17.991  1.00  0.00     0.021 C 
BRANCH  36  37
HETATM   37  C16 UNL     1       8.410  -6.249  17.925  1.00  0.00     0.032 C 
BRANCH  37  38
HETATM   38  C17 UNL     1       8.426  -7.421  18.776  1.00  0.00     0.268 C 
BRANCH  38  39
HETATM   39  N4  UNL     1       8.545  -8.732  18.242  1.00  0.00     0.043 N 
HETATM   40  C18 UNL     1       9.098  -8.696  16.897  1.00  0.00     0.306 C 
HETATM   41  N5  UNL     1       9.549  -9.332  19.039  1.00  0.00    -0.164 N 
HETATM   42  C19 UNL     1       8.886  -9.787  20.196  1.00  0.00     0.342 C 
ATOM     43  H5  UNL     1      10.543  -9.416  18.821  1.00  0.00     0.199 HD
HETATM   44  O3  UNL     1       9.363 -10.081  21.331  1.00  0.00    -0.246 OA
HETATM   45  N6  UNL     1       7.483  -9.866  19.835  1.00  0.00    -0.303 N 
HETATM   46  C20 UNL     1       7.514  -9.687  18.403  1.00  0.00     0.247 C 
ATOM     47  H6  UNL     1       6.676 -10.012  20.442  1.00  0.00     0.167 HD
HETATM   48  C21 UNL     1       8.091 -11.052  17.905  1.00  0.00     0.079 C 
BRANCH  46  49
HETATM   49  C22 UNL     1       6.242  -9.507  17.742  1.00  0.00    -0.035 C 
HETATM   50  C23 UNL     1       5.447  -8.504  18.042  1.00  0.00     0.018 C 
HETATM   51  C24 UNL     1       5.776 -10.488  16.732  1.00  0.00     0.047 C 
ENDBRANCH  46  49
ENDBRANCH  38  39
ENDBRANCH  37  38
ENDBRANCH  36  37
ENDBRANCH  35  36
ENDBRANCH  33  35
ENDBRANCH  30  33
ENDBRANCH  16  29
ENDBRANCH   8  11
ENDBRANCH   6   7
ENDBRANCH   5   6
ENDBRANCH   4   5
ENDBRANCH   3   4
TORSDOF 13
ENDMDL
