MODEL 1
REMARK VINA RESULT: -8.544153118      0.000      0.000
REMARK  12 active torsions:
REMARK  status: ('A' for Active; 'I' for Inactive)
REMARK    1  A    between atoms: C9_10  and  N2_11 
REMARK       I    between atoms: N2_11  and  C10_13 
REMARK    2  A    between atoms: C10_13  and  C11_15 
REMARK    3  A    between atoms: C11_15  and  C12_16 
REMARK    4  A    between atoms: C11_15  and  N6_24 
REMARK    5  A    between atoms: C12_16  and  C13_17 
REMARK    6  A    between atoms: C13_17  and  C14_18 
REMARK    7  A    between atoms: C14_18  and  N3_19 
REMARK       I    between atoms: N6_24  and  C16_26 
REMARK    8  A    between atoms: C16_26  and  C17_28 
REMARK    9  A    between atoms: C17_28  and  N7_29 
REMARK   10  A    between atoms: C17_28  and  C18_33 
REMARK       I    between atoms: C18_33  and  N8_35 
REMARK   11  A    between atoms: C22_39  and  C23_40 
REMARK   12  A    between atoms: C24_43  and  C25_44 
ROOT
HETATM    1  C11 UNL     1       4.099  -0.618  13.448  1.00  0.00     0.176 C 
ENDROOT
BRANCH   1   2
HETATM    2  C10 UNL     1       4.314  -1.206  14.793  1.00  0.00     0.240 C 
HETATM    3  N2  UNL     1       3.761  -2.470  15.156  1.00  0.00    -0.352 N 
ATOM      4  H2  UNL     1       3.209  -2.972  14.461  1.00  0.00     0.163 HD
HETATM    5  O1  UNL     1       4.991  -0.620  15.678  1.00  0.00    -0.271 OA
BRANCH   3   6
HETATM    6  C9  UNL     1       3.940  -3.073  16.444  1.00  0.00     0.121 C 
HETATM    7  C8  UNL     1       2.712  -3.052  17.315  1.00  0.00     0.055 C 
HETATM    8  C7  UNL     1       2.791  -4.394  18.000  1.00  0.00     0.241 C 
HETATM    9  N1  UNL     1       3.422  -5.270  17.020  1.00  0.00    -0.054 N 
HETATM   10  C2  UNL     1       3.687  -6.510  17.617  1.00  0.00     0.187 C 
HETATM   11  C6  UNL     1       2.335  -5.526  16.049  1.00  0.00     0.239 C 
HETATM   12  C24 UNL     1       4.405  -4.531  16.371  1.00  0.00     0.236 C 
HETATM   13  C1  UNL     1       4.670  -6.569  18.742  1.00  0.00     0.040 C 
HETATM   14  C3  UNL     1       3.993  -7.660  16.695  1.00  0.00     0.033 C 
HETATM   15  C4  UNL     1       3.791  -7.418  15.249  1.00  0.00     0.004 C 
HETATM   16  C5  UNL     1       2.774  -6.377  14.908  1.00  0.00     0.028 C 
BRANCH  12  17
HETATM   17  C25 UNL     1       5.766  -4.551  16.883  1.00  0.00     0.011 C 
HETATM   18  C26 UNL     1       6.839  -4.217  16.185  1.00  0.00    -0.081 C 
HETATM   19  C27 UNL     1       7.010  -3.758  14.790  1.00  0.00     0.034 C 
HETATM   20  C32 UNL     1       8.260  -4.233  16.699  1.00  0.00     0.042 C 
HETATM   21  C28 UNL     1       8.075  -4.760  14.323  1.00  0.00     0.013 C 
HETATM   22  C29 UNL     1       8.964  -4.930  15.550  1.00  0.00    -0.044 C 
HETATM   23  C30 UNL     1      10.322  -4.328  15.273  1.00  0.00     0.015 C 
HETATM   24  C31 UNL     1       9.125  -6.380  15.922  1.00  0.00     0.015 C 
ENDBRANCH  12  17
ENDBRANCH   3   6
ENDBRANCH   1   2
BRANCH   1  25
HETATM   25  C12 UNL     1       2.728   0.047  13.504  1.00  0.00     0.036 C 
BRANCH  25  26
HETATM   26  C13 UNL     1       2.592   1.096  12.445  1.00  0.00     0.022 C 
BRANCH  26  27
HETATM   27  C14 UNL     1       1.269   0.895  11.707  1.00  0.00     0.122 C 
BRANCH  27  28
HETATM   28  N3  UNL     1       1.278   1.587  10.449  1.00  0.00    -0.367 N 
HETATM   29  C15 UNL     1       0.951   2.793  10.234  1.00  0.00     0.196 C 
HETATM   30  N4  UNL     1       0.509   3.675  11.248  1.00  0.00    -0.067 NA
HETATM   31  N5  UNL     1       1.049   3.252   8.873  1.00  0.00    -0.067 NA
ATOM     32  H3  UNL     1       1.581   1.048   9.637  1.00  0.00     0.161 HD
ENDBRANCH  27  28
ENDBRANCH  26  27
ENDBRANCH  25  26
ENDBRANCH   1  25
BRANCH   1  33
HETATM   33  N6  UNL     1       5.112   0.292  13.038  1.00  0.00    -0.346 N 
HETATM   34  C16 UNL     1       6.313   0.001  12.361  1.00  0.00     0.258 C 
HETATM   35  O2  UNL     1       6.592  -1.187  12.057  1.00  0.00    -0.271 OA
ATOM     36  H6  UNL     1       4.950   1.274  13.262  1.00  0.00     0.163 HD
BRANCH  34  37
HETATM   37  C17 UNL     1       7.291   1.052  11.976  1.00  0.00     0.365 C 
BRANCH  37  38
HETATM   38  N7  UNL     1       7.203   2.190  12.847  1.00  0.00    -0.058 N 
ATOM     39  H73 UNL     1       7.253   1.916  13.828  1.00  0.00     0.275 HD
ATOM     40  H72 UNL     1       8.046   2.763  12.802  1.00  0.00     0.275 HD
ATOM     41  H71 UNL     1       6.366   2.740  12.654  1.00  0.00     0.275 HD
ENDBRANCH  37  38
BRANCH  37  42
HETATM   42  C18 UNL     1       7.316   1.354  10.547  1.00  0.00     0.260 C 
HETATM   43  O3  UNL     1       8.096   0.713   9.757  1.00  0.00    -0.270 OA
HETATM   44  N8  UNL     1       6.497   2.355   9.980  1.00  0.00    -0.337 N 
HETATM   45  C19 UNL     1       6.488   2.627   8.531  1.00  0.00     0.127 C 
HETATM   46  C22 UNL     1       5.590   3.307  10.622  1.00  0.00     0.176 C 
HETATM   47  C20 UNL     1       5.603   3.811   8.341  1.00  0.00     0.022 C 
HETATM   48  C21 UNL     1       4.673   3.786   9.519  1.00  0.00     0.036 C 
BRANCH  46  49
HETATM   49  C23 UNL     1       6.378   4.437  11.197  1.00  0.00     0.254 C 
HETATM   50  N9  UNL     1       7.774   4.560  11.070  1.00  0.00    -0.060 NA
HETATM   51  O4  UNL     1       5.781   5.360  11.847  1.00  0.00    -0.275 OA
ENDBRANCH  46  49
ENDBRANCH  37  42
ENDBRANCH  34  37
ENDBRANCH   1  33
TORSDOF 12
ENDMDL
MODEL 2
REMARK VINA RESULT: -8.543663990      4.939     10.361
REMARK  12 active torsions:
REMARK  status: ('A' for Active; 'I' for Inactive)
REMARK    1  A    between atoms: C9_10  and  N2_11 
REMARK       I    between atoms: N2_11  and  C10_13 
REMARK    2  A    between atoms: C10_13  and  C11_15 
REMARK    3  A    between atoms: C11_15  and  C12_16 
REMARK    4  A    between atoms: C11_15  and  N6_24 
REMARK    5  A    between atoms: C12_16  and  C13_17 
REMARK    6  A    between atoms: C13_17  and  C14_18 
REMARK    7  A    between atoms: C14_18  and  N3_19 
REMARK       I    between atoms: N6_24  and  C16_26 
REMARK    8  A    between atoms: C16_26  and  C17_28 
REMARK    9  A    between atoms: C17_28  and  N7_29 
REMARK   10  A    between atoms: C17_28  and  C18_33 
REMARK       I    between atoms: C18_33  and  N8_35 
REMARK   11  A    between atoms: C22_39  and  C23_40 
REMARK   12  A    between atoms: C24_43  and  C25_44 
ROOT
HETATM    1  C11 UNL     1       4.088  -7.810  17.330  1.00  0.00     0.176 C 
ENDROOT
BRANCH   1   2
HETATM    2  C10 UNL     1       5.022  -6.712  17.682  1.00  0.00     0.240 C 
HETATM    3  N2  UNL     1       6.425  -6.815  17.448  1.00  0.00    -0.352 N 
ATOM      4  H2  UNL     1       6.781  -7.671  17.023  1.00  0.00     0.163 HD
HETATM    5  O1  UNL     1       4.622  -5.639  18.204  1.00  0.00    -0.271 OA
BRANCH   3   6
HETATM    6  C9  UNL     1       7.362  -5.781  17.776  1.00  0.00     0.121 C 
HETATM    7  C8  UNL     1       8.525  -6.240  18.614  1.00  0.00     0.055 C 
HETATM    8  C7  UNL     1       9.664  -5.439  18.034  1.00  0.00     0.241 C 
HETATM    9  N1  UNL     1       9.325  -5.286  16.624  1.00  0.00    -0.054 N 
HETATM   10  C2  UNL     1      10.246  -4.417  16.024  1.00  0.00     0.187 C 
HETATM   11  C6  UNL     1       9.620  -6.621  16.061  1.00  0.00     0.239 C 
HETATM   12  C24 UNL     1       7.952  -5.085  16.545  1.00  0.00     0.236 C 
HETATM   13  C1  UNL     1      10.288  -2.991  16.474  1.00  0.00     0.040 C 
HETATM   14  C3  UNL     1      10.298  -4.411  14.519  1.00  0.00     0.033 C 
HETATM   15  C4  UNL     1       9.516  -5.461  13.828  1.00  0.00     0.004 C 
HETATM   16  C5  UNL     1       9.295  -6.716  14.610  1.00  0.00     0.028 C 
BRANCH  12  17
HETATM   17  C25 UNL     1       7.427  -3.729  16.553  1.00  0.00     0.011 C 
HETATM   18  C26 UNL     1       6.629  -3.223  15.627  1.00  0.00    -0.081 C 
HETATM   19  C27 UNL     1       6.054  -3.799  14.393  1.00  0.00     0.034 C 
HETATM   20  C32 UNL     1       6.076  -1.817  15.619  1.00  0.00     0.042 C 
HETATM   21  C28 UNL     1       6.482  -2.720  13.388  1.00  0.00     0.013 C 
HETATM   22  C29 UNL     1       6.337  -1.424  14.177  1.00  0.00    -0.044 C 
HETATM   23  C30 UNL     1       5.202  -0.610  13.600  1.00  0.00     0.015 C 
HETATM   24  C31 UNL     1       7.604  -0.611  14.145  1.00  0.00     0.015 C 
ENDBRANCH  12  17
ENDBRANCH   3   6
ENDBRANCH   1   2
BRANCH   1  25
HETATM   25  C12 UNL     1       2.912  -7.141  16.629  1.00  0.00     0.036 C 
BRANCH  25  26
HETATM   26  C13 UNL     1       3.253  -6.790  15.214  1.00  0.00     0.022 C 
BRANCH  26  27
HETATM   27  C14 UNL     1       2.788  -5.363  14.924  1.00  0.00     0.122 C 
BRANCH  27  28
HETATM   28  N3  UNL     1       2.830  -4.563  16.116  1.00  0.00    -0.367 N 
HETATM   29  C15 UNL     1       2.704  -3.304  16.200  1.00  0.00     0.196 C 
HETATM   30  N4  UNL     1       2.494  -2.464  15.080  1.00  0.00    -0.067 NA
HETATM   31  N5  UNL     1       2.785  -2.737  17.521  1.00  0.00    -0.067 NA
ATOM     32  H3  UNL     1       2.978  -5.063  16.992  1.00  0.00     0.161 HD
ENDBRANCH  27  28
ENDBRANCH  26  27
ENDBRANCH  25  26
ENDBRANCH   1  25
BRANCH   1  33
HETATM   33  N6  UNL     1       4.666  -8.837  16.532  1.00  0.00    -0.346 N 
HETATM   34  C16 UNL     1       4.129 -10.104  16.233  1.00  0.00     0.258 C 
HETATM   35  O2  UNL     1       3.009 -10.439  16.698  1.00  0.00    -0.271 OA
ATOM     36  H6  UNL     1       5.580  -8.630  16.129  1.00  0.00     0.163 HD
BRANCH  34  37
HETATM   37  C17 UNL     1       4.831 -11.089  15.371  1.00  0.00     0.365 C 
BRANCH  37  38
HETATM   38  N7  UNL     1       4.122 -11.305  14.140  1.00  0.00    -0.058 N 
ATOM     39  H73 UNL     1       3.445 -10.563  13.964  1.00  0.00     0.275 HD
ATOM     40  H72 UNL     1       4.724 -11.162  13.330  1.00  0.00     0.275 HD
ATOM     41  H71 UNL     1       3.682 -12.224  14.123  1.00  0.00     0.275 HD
ENDBRANCH  37  38
BRANCH  37  42
HETATM   42  C18 UNL     1       5.261 -12.299  16.069  1.00  0.00     0.260 C 
HETATM   43  O3  UNL     1       4.451 -13.278  16.239  1.00  0.00    -0.270 OA
HETATM   44  N8  UNL     1       6.568 -12.439  16.585  1.00  0.00    -0.337 N 
HETATM   45  C19 UNL     1       7.015 -13.678  17.248  1.00  0.00     0.127 C 
HETATM   46  C22 UNL     1       7.670 -11.479  16.637  1.00  0.00     0.176 C 
HETATM   47  C20 UNL     1       8.389 -13.400  17.753  1.00  0.00     0.022 C 
HETATM   48  C21 UNL     1       8.912 -12.312  16.861  1.00  0.00     0.036 C 
BRANCH  46  49
HETATM   49  C23 UNL     1       7.450 -10.525  17.764  1.00  0.00     0.254 C 
HETATM   50  N9  UNL     1       6.431 -10.672  18.723  1.00  0.00    -0.060 NA
HETATM   51  O4  UNL     1       8.211  -9.508  17.892  1.00  0.00    -0.275 OA
ENDBRANCH  46  49
ENDBRANCH  37  42
ENDBRANCH  34  37
ENDBRANCH   1  33
TORSDOF 12
ENDMDL
MODEL 3
REMARK VINA RESULT: -8.411428107      2.771     10.645
REMARK  12 active torsions:
REMARK  status: ('A' for Active; 'I' for Inactive)
REMARK    1  A    between atoms: C9_10  and  N2_11 
REMARK       I    between atoms: N2_11  and  C10_13 
REMARK    2  A    between atoms: C10_13  and  C11_15 
REMARK    3  A    between atoms: C11_15  and  C12_16 
REMARK    4  A    between atoms: C11_15  and  N6_24 
REMARK    5  A    between atoms: C12_16  and  C13_17 
REMARK    6  A    between atoms: C13_17  and  C14_18 
REMARK    7  A    between atoms: C14_18  and  N3_19 
REMARK       I    between atoms: N6_24  and  C16_26 
REMARK    8  A    between atoms: C16_26  and  C17_28 
REMARK    9  A    between atoms: C17_28  and  N7_29 
REMARK   10  A    between atoms: C17_28  and  C18_33 
REMARK       I    between atoms: C18_33  and  N8_35 
REMARK   11  A    between atoms: C22_39  and  C23_40 
REMARK   12  A    between atoms: C24_43  and  C25_44 
ROOT
HETATM    1  C11 UNL     1       6.510  -2.936  14.375  1.00  0.00     0.176 C 
ENDROOT
BRANCH   1   2
HETATM    2  C10 UNL     1       6.313  -1.466  14.409  1.00  0.00     0.240 C 
HETATM    3  N2  UNL     1       6.990  -0.598  13.502  1.00  0.00    -0.352 N 
ATOM      4  H2  UNL     1       7.620  -1.013  12.816  1.00  0.00     0.163 HD
HETATM    5  O1  UNL     1       5.543  -0.915  15.237  1.00  0.00    -0.271 OA
BRANCH   3   6
HETATM    6  C9  UNL     1       6.833   0.827  13.502  1.00  0.00     0.121 C 
HETATM    7  C8  UNL     1       8.078   1.589  13.870  1.00  0.00     0.055 C 
HETATM    8  C7  UNL     1       8.003   2.778  12.944  1.00  0.00     0.241 C 
HETATM    9  N1  UNL     1       7.347   2.270  11.746  1.00  0.00    -0.054 N 
HETATM   10  C2  UNL     1       7.084   3.338  10.879  1.00  0.00     0.187 C 
HETATM   11  C6  UNL     1       8.412   1.482  11.088  1.00  0.00     0.239 C 
HETATM   12  C24 UNL     1       6.356   1.384  12.157  1.00  0.00     0.236 C 
HETATM   13  C1  UNL     1       6.124   4.398  11.315  1.00  0.00     0.040 C 
HETATM   14  C3  UNL     1       6.751   2.994   9.451  1.00  0.00     0.033 C 
HETATM   15  C4  UNL     1       6.926   1.578   9.057  1.00  0.00     0.004 C 
HETATM   16  C5  UNL     1       7.944   0.814   9.842  1.00  0.00     0.028 C 
BRANCH  12  17
HETATM   17  C25 UNL     1       5.006   1.877  12.375  1.00  0.00     0.011 C 
HETATM   18  C26 UNL     1       3.906   1.155  12.229  1.00  0.00    -0.081 C 
HETATM   19  C27 UNL     1       3.692  -0.252  11.832  1.00  0.00     0.034 C 
HETATM   20  C32 UNL     1       2.496   1.651  12.450  1.00  0.00     0.042 C 
HETATM   21  C28 UNL     1       2.673  -0.044  10.702  1.00  0.00     0.013 C 
HETATM   22  C29 UNL     1       1.813   1.108  11.209  1.00  0.00    -0.044 C 
HETATM   23  C30 UNL     1       0.421   0.600  11.508  1.00  0.00     0.015 C 
HETATM   24  C31 UNL     1       1.732   2.225  10.203  1.00  0.00     0.015 C 
ENDBRANCH  12  17
ENDBRANCH   3   6
ENDBRANCH   1   2
BRANCH   1  25
HETATM   25  C12 UNL     1       8.018  -3.148  14.320  1.00  0.00     0.036 C 
BRANCH  25  26
HETATM   26  C13 UNL     1       8.641  -2.958  15.668  1.00  0.00     0.022 C 
BRANCH  26  27
HETATM   27  C14 UNL     1       9.641  -4.086  15.922  1.00  0.00     0.122 C 
BRANCH  27  28
HETATM   28  N3  UNL     1       9.314  -4.793  17.129  1.00  0.00    -0.367 N 
HETATM   29  C15 UNL     1       9.951  -5.756  17.651  1.00  0.00     0.196 C 
HETATM   30  N4  UNL     1      11.133  -6.302  17.096  1.00  0.00    -0.067 NA
HETATM   31  N5  UNL     1       9.413  -6.296  18.872  1.00  0.00    -0.067 NA
ATOM     32  H3  UNL     1       8.474  -4.486  17.620  1.00  0.00     0.161 HD
ENDBRANCH  27  28
ENDBRANCH  26  27
ENDBRANCH  25  26
ENDBRANCH   1  25
BRANCH   1  33
HETATM   33  N6  UNL     1       5.917  -3.632  15.465  1.00  0.00    -0.346 N 
HETATM   34  C16 UNL     1       4.655  -4.256  15.507  1.00  0.00     0.258 C 
HETATM   35  O2  UNL     1       3.905  -4.230  14.498  1.00  0.00    -0.271 OA
ATOM     36  H6  UNL     1       6.472  -3.684  16.318  1.00  0.00     0.163 HD
BRANCH  34  37
HETATM   37  C17 UNL     1       4.152  -4.966  16.712  1.00  0.00     0.365 C 
BRANCH  37  38
HETATM   38  N7  UNL     1       3.604  -4.045  17.668  1.00  0.00    -0.058 N 
ATOM     39  H73 UNL     1       4.323  -3.435  18.056  1.00  0.00     0.275 HD
ATOM     40  H72 UNL     1       3.025  -3.337  17.218  1.00  0.00     0.275 HD
ATOM     41  H71 UNL     1       3.093  -4.535  18.403  1.00  0.00     0.275 HD
ENDBRANCH  37  38
BRANCH  37  42
HETATM   42  C18 UNL     1       5.076  -5.959  17.254  1.00  0.00     0.260 C 
HETATM   43  O3  UNL     1       6.270  -5.628  17.586  1.00  0.00    -0.270 OA
HETATM   44  N8  UNL     1       4.705  -7.311  17.427  1.00  0.00    -0.337 N 
HETATM   45  C19 UNL     1       5.623  -8.302  18.017  1.00  0.00     0.127 C 
HETATM   46  C22 UNL     1       3.471  -8.005  17.057  1.00  0.00     0.176 C 
HETATM   47  C20 UNL     1       4.924  -9.615  17.923  1.00  0.00     0.022 C 
HETATM   48  C21 UNL     1       3.464  -9.269  17.886  1.00  0.00     0.036 C 
BRANCH  46  49
HETATM   49  C23 UNL     1       3.492  -8.316  15.597  1.00  0.00     0.254 C 
HETATM   50  N9  UNL     1       3.827  -9.578  15.073  1.00  0.00    -0.060 NA
HETATM   51  O4  UNL     1       3.193  -7.408  14.751  1.00  0.00    -0.275 OA
ENDBRANCH  46  49
ENDBRANCH  37  42
ENDBRANCH  34  37
ENDBRANCH   1  33
TORSDOF 12
ENDMDL
MODEL 4
REMARK VINA RESULT: -8.373174066      4.911     10.587
REMARK  12 active torsions:
REMARK  status: ('A' for Active; 'I' for Inactive)
REMARK    1  A    between atoms: C9_10  and  N2_11 
REMARK       I    between atoms: N2_11  and  C10_13 
REMARK    2  A    between atoms: C10_13  and  C11_15 
REMARK    3  A    between atoms: C11_15  and  C12_16 
REMARK    4  A    between atoms: C11_15  and  N6_24 
REMARK    5  A    between atoms: C12_16  and  C13_17 
REMARK    6  A    between atoms: C13_17  and  C14_18 
REMARK    7  A    between atoms: C14_18  and  N3_19 
REMARK       I    between atoms: N6_24  and  C16_26 
REMARK    8  A    between atoms: C16_26  and  C17_28 
REMARK    9  A    between atoms: C17_28  and  N7_29 
REMARK   10  A    between atoms: C17_28  and  C18_33 
REMARK       I    between atoms: C18_33  and  N8_35 
REMARK   11  A    between atoms: C22_39  and  C23_40 
REMARK   12  A    between atoms: C24_43  and  C25_44 
ROOT
HETATM    1  C11 UNL     1       4.064  -7.674  17.049  1.00  0.00     0.176 C 
ENDROOT
BRANCH   1   2
HETATM    2  C10 UNL     1       5.000  -6.619  17.510  1.00  0.00     0.240 C 
HETATM    3  N2  UNL     1       6.373  -6.613  17.125  1.00  0.00    -0.352 N 
ATOM      4  H2  UNL     1       6.706  -7.359  16.513  1.00  0.00     0.163 HD
HETATM    5  O1  UNL     1       4.629  -5.681  18.263  1.00  0.00    -0.271 OA
BRANCH   3   6
HETATM    6  C9  UNL     1       7.312  -5.617  17.549  1.00  0.00     0.121 C 
HETATM    7  C8  UNL     1       8.403  -6.134  18.447  1.00  0.00     0.055 C 
HETATM    8  C7  UNL     1       9.599  -5.347  17.972  1.00  0.00     0.241 C 
HETATM    9  N1  UNL     1       9.361  -5.139  16.549  1.00  0.00    -0.054 N 
HETATM   10  C2  UNL     1      10.342  -4.277  16.042  1.00  0.00     0.187 C 
HETATM   11  C6  UNL     1       9.659  -6.464  15.962  1.00  0.00     0.239 C 
HETATM   12  C24 UNL     1       8.001  -4.898  16.385  1.00  0.00     0.236 C 
HETATM   13  C1  UNL     1      10.390  -2.869  16.542  1.00  0.00     0.040 C 
HETATM   14  C3  UNL     1      10.497  -4.226  14.545  1.00  0.00     0.033 C 
HETATM   15  C4  UNL     1       9.736  -5.231  13.768  1.00  0.00     0.004 C 
HETATM   16  C5  UNL     1       9.431  -6.503  14.491  1.00  0.00     0.028 C 
BRANCH  12  17
HETATM   17  C25 UNL     1       7.513  -3.529  16.403  1.00  0.00     0.011 C 
HETATM   18  C26 UNL     1       6.632  -3.030  15.551  1.00  0.00    -0.081 C 
HETATM   19  C27 UNL     1       5.916  -3.628  14.405  1.00  0.00     0.034 C 
HETATM   20  C32 UNL     1       6.114  -1.611  15.555  1.00  0.00     0.042 C 
HETATM   21  C28 UNL     1       6.259  -2.592  13.325  1.00  0.00     0.013 C 
HETATM   22  C29 UNL     1       6.230  -1.269  14.081  1.00  0.00    -0.044 C 
HETATM   23  C30 UNL     1       5.059  -0.443  13.601  1.00  0.00     0.015 C 
HETATM   24  C31 UNL     1       7.504  -0.491  13.889  1.00  0.00     0.015 C 
ENDBRANCH  12  17
ENDBRANCH   3   6
ENDBRANCH   1   2
BRANCH   1  25
HETATM   25  C12 UNL     1       3.776  -7.358  15.586  1.00  0.00     0.036 C 
BRANCH  25  26
HETATM   26  C13 UNL     1       2.404  -6.785  15.415  1.00  0.00     0.022 C 
BRANCH  26  27
HETATM   27  C14 UNL     1       2.520  -5.310  15.033  1.00  0.00     0.122 C 
BRANCH  27  28
HETATM   28  N3  UNL     1       2.759  -4.500  16.194  1.00  0.00    -0.367 N 
HETATM   29  C15 UNL     1       2.752  -3.234  16.262  1.00  0.00     0.196 C 
HETATM   30  N4  UNL     1       2.496  -2.394  15.153  1.00  0.00    -0.067 NA
HETATM   31  N5  UNL     1       3.022  -2.658  17.554  1.00  0.00    -0.067 NA
ATOM     32  H3  UNL     1       2.956  -4.999  17.062  1.00  0.00     0.161 HD
ENDBRANCH  27  28
ENDBRANCH  26  27
ENDBRANCH  25  26
ENDBRANCH   1  25
BRANCH   1  33
HETATM   33  N6  UNL     1       4.548  -9.001  17.219  1.00  0.00    -0.346 N 
HETATM   34  C16 UNL     1       3.971 -10.041  17.973  1.00  0.00     0.258 C 
HETATM   35  O2  UNL     1       2.902  -9.842  18.606  1.00  0.00    -0.271 OA
ATOM     36  H6  UNL     1       5.418  -9.226  16.736  1.00  0.00     0.163 HD
BRANCH  34  37
HETATM   37  C17 UNL     1       4.573 -11.397  18.061  1.00  0.00     0.365 C 
BRANCH  37  38
HETATM   38  N7  UNL     1       3.614 -12.415  17.734  1.00  0.00    -0.058 N 
ATOM     39  H73 UNL     1       2.658 -12.071  17.823  1.00  0.00     0.275 HD
ATOM     40  H72 UNL     1       3.613 -12.622  16.736  1.00  0.00     0.275 HD
ATOM     41  H71 UNL     1       3.763 -13.256  18.291  1.00  0.00     0.275 HD
ENDBRANCH  37  38
BRANCH  37  42
HETATM   42  C18 UNL     1       5.349 -11.632  19.277  1.00  0.00     0.260 C 
HETATM   43  O3  UNL     1       4.765 -11.755  20.411  1.00  0.00    -0.270 OA
HETATM   44  N8  UNL     1       6.758 -11.725  19.258  1.00  0.00    -0.337 N 
HETATM   45  C19 UNL     1       7.537 -12.008  20.477  1.00  0.00     0.127 C 
HETATM   46  C22 UNL     1       7.701 -11.532  18.157  1.00  0.00     0.176 C 
HETATM   47  C20 UNL     1       8.970 -11.910  20.081  1.00  0.00     0.022 C 
HETATM   48  C21 UNL     1       8.980 -12.200  18.608  1.00  0.00     0.036 C 
BRANCH  46  49
HETATM   49  C23 UNL     1       7.909 -10.071  17.926  1.00  0.00     0.254 C 
HETATM   50  N9  UNL     1       8.785  -9.550  16.957  1.00  0.00    -0.060 NA
HETATM   51  O4  UNL     1       7.269  -9.221  18.632  1.00  0.00    -0.275 OA
ENDBRANCH  46  49
ENDBRANCH  37  42
ENDBRANCH  34  37
ENDBRANCH   1  33
TORSDOF 12
ENDMDL
MODEL 5
REMARK VINA RESULT: -8.330319143      1.317      1.845
REMARK  12 active torsions:
REMARK  status: ('A' for Active; 'I' for Inactive)
REMARK    1  A    between atoms: C9_10  and  N2_11 
REMARK       I    between atoms: N2_11  and  C10_13 
REMARK    2  A    between atoms: C10_13  and  C11_15 
REMARK    3  A    between atoms: C11_15  and  C12_16 
REMARK    4  A    between atoms: C11_15  and  N6_24 
REMARK    5  A    between atoms: C12_16  and  C13_17 
REMARK    6  A    between atoms: C13_17  and  C14_18 
REMARK    7  A    between atoms: C14_18  and  N3_19 
REMARK       I    between atoms: N6_24  and  C16_26 
REMARK    8  A    between atoms: C16_26  and  C17_28 
REMARK    9  A    between atoms: C17_28  and  N7_29 
REMARK   10  A    between atoms: C17_28  and  C18_33 
REMARK       I    between atoms: C18_33  and  N8_35 
REMARK   11  A    between atoms: C22_39  and  C23_40 
REMARK   12  A    between atoms: C24_43  and  C25_44 
ROOT
HETATM    1  C11 UNL     1       4.532  -0.447  13.805  1.00  0.00     0.176 C 
ENDROOT
BRANCH   1   2
HETATM    2  C10 UNL     1       4.603  -1.124  15.123  1.00  0.00     0.240 C 
HETATM    3  N2  UNL     1       4.102  -2.446  15.315  1.00  0.00    -0.352 N 
ATOM      4  H2  UNL     1       3.688  -2.926  14.516  1.00  0.00     0.163 HD
HETATM    5  O1  UNL     1       5.107  -0.568  16.133  1.00  0.00    -0.271 OA
BRANCH   3   6
HETATM    6  C9  UNL     1       4.146  -3.136  16.571  1.00  0.00     0.121 C 
HETATM    7  C8  UNL     1       2.878  -3.043  17.375  1.00  0.00     0.055 C 
HETATM    8  C7  UNL     1       2.788  -4.423  17.979  1.00  0.00     0.241 C 
HETATM    9  N1  UNL     1       3.388  -5.300  16.981  1.00  0.00    -0.054 N 
HETATM   10  C2  UNL     1       3.500  -6.591  17.513  1.00  0.00     0.187 C 
HETATM   11  C6  UNL     1       2.341  -5.391  15.941  1.00  0.00     0.239 C 
HETATM   12  C24 UNL     1       4.474  -4.626  16.432  1.00  0.00     0.236 C 
HETATM   13  C1  UNL     1       4.405  -6.812  18.683  1.00  0.00     0.040 C 
HETATM   14  C3  UNL     1       3.748  -7.713  16.538  1.00  0.00     0.033 C 
HETATM   15  C4  UNL     1       3.655  -7.369  15.101  1.00  0.00     0.004 C 
HETATM   16  C5  UNL     1       2.762  -6.215  14.773  1.00  0.00     0.028 C 
BRANCH  12  17
HETATM   17  C25 UNL     1       5.794  -4.809  17.012  1.00  0.00     0.011 C 
HETATM   18  C26 UNL     1       6.932  -4.492  16.415  1.00  0.00    -0.081 C 
HETATM   19  C27 UNL     1       7.224  -3.904  15.090  1.00  0.00     0.034 C 
HETATM   20  C32 UNL     1       8.312  -4.676  17.002  1.00  0.00     0.042 C 
HETATM   21  C28 UNL     1       8.239  -4.935  14.576  1.00  0.00     0.013 C 
HETATM   22  C29 UNL     1       9.033  -5.304  15.824  1.00  0.00    -0.044 C 
HETATM   23  C30 UNL     1      10.447  -4.787  15.689  1.00  0.00     0.015 C 
HETATM   24  C31 UNL     1       9.063  -6.793  16.044  1.00  0.00     0.015 C 
ENDBRANCH  12  17
ENDBRANCH   3   6
ENDBRANCH   1   2
BRANCH   1  25
HETATM   25  C12 UNL     1       3.350   0.511  13.898  1.00  0.00     0.036 C 
BRANCH  25  26
HETATM   26  C13 UNL     1       2.057  -0.196  13.633  1.00  0.00     0.022 C 
BRANCH  26  27
HETATM   27  C14 UNL     1       1.299   0.541  12.530  1.00  0.00     0.122 C 
BRANCH  27  28
HETATM   28  N3  UNL     1       2.091   1.613  11.996  1.00  0.00    -0.367 N 
HETATM   29  C15 UNL     1       1.688   2.758  11.630  1.00  0.00     0.196 C 
HETATM   30  N4  UNL     1       0.334   3.166  11.696  1.00  0.00    -0.067 NA
HETATM   31  N5  UNL     1       2.689   3.662  11.127  1.00  0.00    -0.067 NA
ATOM     32  H3  UNL     1       3.091   1.434  11.901  1.00  0.00     0.161 HD
ENDBRANCH  27  28
ENDBRANCH  26  27
ENDBRANCH  25  26
ENDBRANCH   1  25
BRANCH   1  33
HETATM   33  N6  UNL     1       5.727   0.224  13.425  1.00  0.00    -0.346 N 
HETATM   34  C16 UNL     1       6.727  -0.226  12.540  1.00  0.00     0.258 C 
HETATM   35  O2  UNL     1       6.618  -1.351  11.987  1.00  0.00    -0.271 OA
ATOM     36  H6  UNL     1       5.880   1.141  13.845  1.00  0.00     0.163 HD
BRANCH  34  37
HETATM   37  C17 UNL     1       7.932   0.580  12.215  1.00  0.00     0.365 C 
BRANCH  37  38
HETATM   38  N7  UNL     1       9.057   0.180  13.013  1.00  0.00    -0.058 N 
ATOM     39  H73 UNL     1       9.098   0.698  13.890  1.00  0.00     0.275 HD
ATOM     40  H72 UNL     1       8.933  -0.759  13.392  1.00  0.00     0.275 HD
ATOM     41  H71 UNL     1       9.929   0.261  12.490  1.00  0.00     0.275 HD
ENDBRANCH  37  38
BRANCH  37  42
HETATM   42  C18 UNL     1       7.690   2.019  12.145  1.00  0.00     0.260 C 
HETATM   43  O3  UNL     1       7.248   2.658  13.165  1.00  0.00    -0.270 OA
HETATM   44  N8  UNL     1       7.924   2.760  10.966  1.00  0.00    -0.337 N 
HETATM   45  C19 UNL     1       7.724   4.219  10.909  1.00  0.00     0.127 C 
HETATM   46  C22 UNL     1       8.326   2.310   9.633  1.00  0.00     0.176 C 
HETATM   47  C20 UNL     1       7.953   4.611   9.490  1.00  0.00     0.022 C 
HETATM   48  C21 UNL     1       8.855   3.545   8.940  1.00  0.00     0.036 C 
BRANCH  46  49
HETATM   49  C23 UNL     1       7.140   1.755   8.914  1.00  0.00     0.254 C 
HETATM   50  N9  UNL     1       7.170   1.324   7.576  1.00  0.00    -0.060 NA
HETATM   51  O4  UNL     1       6.022   1.653   9.521  1.00  0.00    -0.275 OA
ENDBRANCH  46  49
ENDBRANCH  37  42
ENDBRANCH  34  37
ENDBRANCH   1  33
TORSDOF 12
ENDMDL
