MODEL 1
REMARK VINA RESULT: -9.879304039      0.000      0.000
REMARK  12 active torsions:
REMARK  status: ('A' for Active; 'I' for Inactive)
REMARK    1  A    between atoms: C2_2  and  N1_3 
REMARK    2  A    between atoms: N1_3  and  N2_4 
REMARK       I    between atoms: N1_3  and  C28_46 
REMARK       I    between atoms: N2_4  and  C3_6 
REMARK    3  A    between atoms: C3_6  and  O2_8 
REMARK    4  A    between atoms: O2_8  and  C4_9 
REMARK    5  A    between atoms: N3_11  and  C6_12 
REMARK    6  A    between atoms: C6_12  and  C7_13 
REMARK    7  A    between atoms: C7_13  and  C8_14 
REMARK    8  A    between atoms: C8_14  and  C9_15 
REMARK    9  A    between atoms: C9_15  and  N4_16 
REMARK       I    between atoms: N4_16  and  C10_18 
REMARK       I    between atoms: C10_18  and  N5_19 
REMARK       I    between atoms: N5_19  and  C11_20 
REMARK       I    between atoms: C11_20  and  N7_22 
REMARK       I    between atoms: C12_24  and  N9_26 
REMARK   10  A    between atoms: N9_26  and  C13_28 
REMARK   11  A    between atoms: C13_28  and  C14_29 
REMARK       I    between atoms: C28_46  and  N12_48 
REMARK   12  A    between atoms: N12_48  and  C29_50 
ROOT
HETATM    1  N4  UNL     1       3.566 -10.629  17.597  1.00  0.00    -0.350 N 
ATOM      2  H4  UNL     1       3.291 -11.170  18.417  1.00  0.00     0.163 HD
HETATM    3  C10 UNL     1       4.963 -10.433  17.267  1.00  0.00     0.267 C 
HETATM    4  N5  UNL     1       5.730  -9.439  17.688  1.00  0.00    -0.338 NA
HETATM    5  C11 UNL     1       6.414  -8.552  18.063  1.00  0.00     0.273 C 
HETATM    6  N6  UNL     1       6.143  -7.686  19.178  1.00  0.00    -0.049 NA
HETATM    7  N7  UNL     1       7.662  -8.238  17.392  1.00  0.00    -0.293 N 
ATOM      8  H7  UNL     1       7.668  -8.050  16.390  1.00  0.00     0.172 HD
HETATM    9  C12 UNL     1       8.752  -8.198  18.057  1.00  0.00     0.191 C 
HETATM   10  N8  UNL     1       8.749  -8.457  19.441  1.00  0.00    -0.063 NA
HETATM   11  N9  UNL     1       9.968  -7.896  17.401  1.00  0.00    -0.364 N 
ATOM     12  H9  UNL     1      10.607  -8.664  17.195  1.00  0.00     0.162 HD
HETATM   13  N10 UNL     1       5.412 -11.396  16.464  1.00  0.00    -0.253 N 
ATOM     14  H10 UNL     1       6.386 -11.359  16.165  1.00  0.00     0.182 HD
HETATM   15  C23 UNL     1       4.632 -12.437  16.015  1.00  0.00     0.185 C 
HETATM   16  N11 UNL     1       3.970 -13.297  15.625  1.00  0.00    -0.172 NA
ENDROOT
BRANCH   1  17
HETATM   17  C9  UNL     1       2.582 -10.042  16.739  1.00  0.00     0.123 C 
BRANCH  17  18
HETATM   18  C8  UNL     1       2.292  -8.587  17.140  1.00  0.00     0.021 C 
BRANCH  18  19
HETATM   19  C7  UNL     1       2.823  -7.639  16.107  1.00  0.00     0.029 C 
BRANCH  19  20
HETATM   20  C6  UNL     1       3.831  -6.664  16.517  1.00  0.00     0.237 C 
BRANCH  20  21
HETATM   21  N3  UNL     1       3.656  -5.285  16.339  1.00  0.00    -0.064 N 
HETATM   22  C5  UNL     1       3.380  -4.894  14.946  1.00  0.00     0.270 C 
HETATM   23  C4  UNL     1       3.877  -3.455  14.802  1.00  0.00     0.165 C 
HETATM   24  C26 UNL     1       4.416  -3.188  16.191  1.00  0.00     0.045 C 
HETATM   25  C25 UNL     1       3.333  -3.097  17.205  1.00  0.00     0.037 C 
HETATM   26  C27 UNL     1       4.958  -4.572  16.496  1.00  0.00     0.244 C 
HETATM   27  C24 UNL     1       2.846  -4.557  17.251  1.00  0.00     0.238 C 
BRANCH  23  28
HETATM   28  O2  UNL     1       5.015  -3.406  13.956  1.00  0.00    -0.295 OA
BRANCH  28  29
HETATM   29  C3  UNL     1       5.259  -2.477  12.987  1.00  0.00     0.380 C 
HETATM   30  N2  UNL     1       5.199  -1.105  13.342  1.00  0.00    -0.239 N 
ATOM     31  H2  UNL     1       4.981  -0.824  14.297  1.00  0.00     0.192 HD
HETATM   32  O1  UNL     1       5.523  -2.874  11.827  1.00  0.00    -0.237 OA
BRANCH  30  33
HETATM   33  N1  UNL     1       5.445  -0.152  12.364  1.00  0.00    -0.239 N 
HETATM   34  C28 UNL     1       4.408   0.580  11.738  1.00  0.00     0.337 C 
HETATM   35  O3  UNL     1       4.653   1.443  10.859  1.00  0.00    -0.245 OA
HETATM   36  N12 UNL     1       3.030   0.353  12.093  1.00  0.00    -0.338 N 
ATOM     37  H12 UNL     1       2.808  -0.345  12.802  1.00  0.00     0.164 HD
BRANCH  33  38
HETATM   38  C2  UNL     1       6.811   0.106  11.976  1.00  0.00     0.150 C 
HETATM   39  C1  UNL     1       7.554   0.671  13.168  1.00  0.00     0.028 C 
ENDBRANCH  33  38
BRANCH  36  40
HETATM   40  C29 UNL     1       1.965   1.082  11.476  1.00  0.00     0.078 C 
HETATM   41  C30 UNL     1       1.484   0.414  10.199  1.00  0.00     0.032 C 
HETATM   42  C31 UNL     1       0.781   1.189  12.405  1.00  0.00     0.032 C 
ENDBRANCH  36  40
ENDBRANCH  30  33
ENDBRANCH  28  29
ENDBRANCH  23  28
ENDBRANCH  20  21
ENDBRANCH  19  20
ENDBRANCH  18  19
ENDBRANCH  17  18
ENDBRANCH   1  17
BRANCH  11  43
HETATM   43  C13 UNL     1      10.354  -6.569  17.008  1.00  0.00     0.127 C 
BRANCH  43  44
HETATM   44  C14 UNL     1       9.289  -5.975  16.126  1.00  0.00     0.004 C 
HETATM   45  C15 UNL     1       9.677  -5.989  14.681  1.00  0.00     0.007 C 
HETATM   46  C16 UNL     1      10.414  -4.743  14.314  1.00  0.00     0.006 C 
HETATM   47  C17 UNL     1       9.440  -3.579  14.352  1.00  0.00    -0.003 C 
HETATM   48  C18 UNL     1      10.128  -2.301  14.782  1.00  0.00     0.032 C 
HETATM   49  C21 UNL     1       8.377  -3.768  15.381  1.00  0.00     0.012 C 
HETATM   50  C19 UNL     1       9.065  -1.597  15.535  1.00  0.00    -0.030 C 
HETATM   51  C20 UNL     1       8.088  -2.407  15.872  1.00  0.00    -0.026 C 
HETATM   52  C22 UNL     1       8.848  -4.604  16.555  1.00  0.00     0.015 C 
ENDBRANCH  43  44
ENDBRANCH  11  43
TORSDOF 12
ENDMDL
MODEL 2
REMARK VINA RESULT: -9.813998628      0.628      2.274
REMARK  12 active torsions:
REMARK  status: ('A' for Active; 'I' for Inactive)
REMARK    1  A    between atoms: C2_2  and  N1_3 
REMARK    2  A    between atoms: N1_3  and  N2_4 
REMARK       I    between atoms: N1_3  and  C28_46 
REMARK       I    between atoms: N2_4  and  C3_6 
REMARK    3  A    between atoms: C3_6  and  O2_8 
REMARK    4  A    between atoms: O2_8  and  C4_9 
REMARK    5  A    between atoms: N3_11  and  C6_12 
REMARK    6  A    between atoms: C6_12  and  C7_13 
REMARK    7  A    between atoms: C7_13  and  C8_14 
REMARK    8  A    between atoms: C8_14  and  C9_15 
REMARK    9  A    between atoms: C9_15  and  N4_16 
REMARK       I    between atoms: N4_16  and  C10_18 
REMARK       I    between atoms: C10_18  and  N5_19 
REMARK       I    between atoms: N5_19  and  C11_20 
REMARK       I    between atoms: C11_20  and  N7_22 
REMARK       I    between atoms: C12_24  and  N9_26 
REMARK   10  A    between atoms: N9_26  and  C13_28 
REMARK   11  A    between atoms: C13_28  and  C14_29 
REMARK       I    between atoms: C28_46  and  N12_48 
REMARK   12  A    between atoms: N12_48  and  C29_50 
ROOT
HETATM    1  N4  UNL     1       3.585 -10.552  17.669  1.00  0.00    -0.350 N 
ATOM      2  H4  UNL     1       3.312 -11.073  18.502  1.00  0.00     0.163 HD
HETATM    3  C10 UNL     1       4.982 -10.372  17.327  1.00  0.00     0.267 C 
HETATM    4  N5  UNL     1       5.757  -9.374  17.721  1.00  0.00    -0.338 NA
HETATM    5  C11 UNL     1       6.448  -8.483  18.072  1.00  0.00     0.273 C 
HETATM    6  N6  UNL     1       6.189  -7.591  19.169  1.00  0.00    -0.049 NA
HETATM    7  N7  UNL     1       7.694  -8.192  17.388  1.00  0.00    -0.293 N 
ATOM      8  H7  UNL     1       7.696  -8.025  16.382  1.00  0.00     0.172 HD
HETATM    9  C12 UNL     1       8.788  -8.143  18.045  1.00  0.00     0.191 C 
HETATM   10  N8  UNL     1       8.792  -8.371  19.435  1.00  0.00    -0.063 NA
HETATM   11  N9  UNL     1      10.003  -7.863  17.376  1.00  0.00    -0.364 N 
ATOM     12  H9  UNL     1      10.636  -8.639  17.184  1.00  0.00     0.162 HD
HETATM   13  N10 UNL     1       5.420 -11.355  16.542  1.00  0.00    -0.253 N 
ATOM     14  H10 UNL     1       6.393 -11.331  16.238  1.00  0.00     0.182 HD
HETATM   15  C23 UNL     1       4.632 -12.402  16.122  1.00  0.00     0.185 C 
HETATM   16  N11 UNL     1       3.962 -13.266  15.754  1.00  0.00    -0.172 NA
ENDROOT
BRANCH   1  17
HETATM   17  C9  UNL     1       2.599  -9.979  16.803  1.00  0.00     0.123 C 
BRANCH  17  18
HETATM   18  C8  UNL     1       2.315  -8.516  17.179  1.00  0.00     0.021 C 
BRANCH  18  19
HETATM   19  C7  UNL     1       2.825  -7.589  16.117  1.00  0.00     0.029 C 
BRANCH  19  20
HETATM   20  C6  UNL     1       3.815  -6.582  16.496  1.00  0.00     0.237 C 
BRANCH  20  21
HETATM   21  N3  UNL     1       3.576  -5.208  16.363  1.00  0.00    -0.064 N 
HETATM   22  C5  UNL     1       3.207  -4.797  14.997  1.00  0.00     0.270 C 
HETATM   23  C4  UNL     1       3.636  -3.336  14.863  1.00  0.00     0.165 C 
HETATM   24  C26 UNL     1       4.242  -3.079  16.227  1.00  0.00     0.045 C 
HETATM   25  C25 UNL     1       3.215  -3.056  17.301  1.00  0.00     0.037 C 
HETATM   26  C27 UNL     1       4.855  -4.446  16.466  1.00  0.00     0.244 C 
HETATM   27  C24 UNL     1       2.790  -4.536  17.337  1.00  0.00     0.238 C 
BRANCH  23  28
HETATM   28  O2  UNL     1       4.723  -3.221  13.957  1.00  0.00    -0.295 OA
BRANCH  28  29
HETATM   29  C3  UNL     1       4.878  -2.257  13.004  1.00  0.00     0.380 C 
HETATM   30  N2  UNL     1       4.348  -0.966  13.261  1.00  0.00    -0.239 N 
ATOM     31  H2  UNL     1       3.865  -0.768  14.137  1.00  0.00     0.192 HD
HETATM   32  O1  UNL     1       5.478  -2.552  11.943  1.00  0.00    -0.237 OA
BRANCH  30  33
HETATM   33  N1  UNL     1       4.499   0.021  12.299  1.00  0.00    -0.239 N 
HETATM   34  C28 UNL     1       5.661   0.823  12.208  1.00  0.00     0.337 C 
HETATM   35  O3  UNL     1       5.780   1.707  11.324  1.00  0.00    -0.245 OA
HETATM   36  N12 UNL     1       6.750   0.648  13.135  1.00  0.00    -0.338 N 
ATOM     37  H12 UNL     1       6.673  -0.062  13.863  1.00  0.00     0.164 HD
BRANCH  33  38
HETATM   38  C2  UNL     1       3.432   0.233  11.351  1.00  0.00     0.150 C 
HETATM   39  C1  UNL     1       2.210   0.722  12.100  1.00  0.00     0.028 C 
ENDBRANCH  33  38
BRANCH  36  40
HETATM   40  C29 UNL     1       7.936   1.444  13.063  1.00  0.00     0.078 C 
HETATM   41  C30 UNL     1       8.435   1.848  14.440  1.00  0.00     0.032 C 
HETATM   42  C31 UNL     1       9.048   0.688  12.382  1.00  0.00     0.032 C 
ENDBRANCH  36  40
ENDBRANCH  30  33
ENDBRANCH  28  29
ENDBRANCH  23  28
ENDBRANCH  20  21
ENDBRANCH  19  20
ENDBRANCH  18  19
ENDBRANCH  17  18
ENDBRANCH   1  17
BRANCH  11  43
HETATM   43  C13 UNL     1      10.394  -6.548  16.951  1.00  0.00     0.127 C 
BRANCH  43  44
HETATM   44  C14 UNL     1       9.346  -5.983  16.031  1.00  0.00     0.004 C 
HETATM   45  C15 UNL     1       9.809  -5.931  14.609  1.00  0.00     0.007 C 
HETATM   46  C16 UNL     1      10.495  -4.637  14.317  1.00  0.00     0.006 C 
HETATM   47  C17 UNL     1       9.460  -3.528  14.337  1.00  0.00    -0.003 C 
HETATM   48  C18 UNL     1      10.056  -2.229  14.839  1.00  0.00     0.032 C 
HETATM   49  C21 UNL     1       8.356  -3.804  15.302  1.00  0.00     0.012 C 
HETATM   50  C19 UNL     1       8.919  -1.606  15.554  1.00  0.00    -0.030 C 
HETATM   51  C20 UNL     1       7.970  -2.476  15.815  1.00  0.00    -0.026 C 
HETATM   52  C22 UNL     1       8.811  -4.650  16.474  1.00  0.00     0.015 C 
ENDBRANCH  43  44
ENDBRANCH  11  43
TORSDOF 12
ENDMDL
MODEL 3
REMARK VINA RESULT: -9.533644197      3.884     11.344
REMARK  12 active torsions:
REMARK  status: ('A' for Active; 'I' for Inactive)
REMARK    1  A    between atoms: C2_2  and  N1_3 
REMARK    2  A    between atoms: N1_3  and  N2_4 
REMARK       I    between atoms: N1_3  and  C28_46 
REMARK       I    between atoms: N2_4  and  C3_6 
REMARK    3  A    between atoms: C3_6  and  O2_8 
REMARK    4  A    between atoms: O2_8  and  C4_9 
REMARK    5  A    between atoms: N3_11  and  C6_12 
REMARK    6  A    between atoms: C6_12  and  C7_13 
REMARK    7  A    between atoms: C7_13  and  C8_14 
REMARK    8  A    between atoms: C8_14  and  C9_15 
REMARK    9  A    between atoms: C9_15  and  N4_16 
REMARK       I    between atoms: N4_16  and  C10_18 
REMARK       I    between atoms: C10_18  and  N5_19 
REMARK       I    between atoms: N5_19  and  C11_20 
REMARK       I    between atoms: C11_20  and  N7_22 
REMARK       I    between atoms: C12_24  and  N9_26 
REMARK   10  A    between atoms: N9_26  and  C13_28 
REMARK   11  A    between atoms: C13_28  and  C14_29 
REMARK       I    between atoms: C28_46  and  N12_48 
REMARK   12  A    between atoms: N12_48  and  C29_50 
ROOT
HETATM    1  N4  UNL     1       5.656   0.112  13.145  1.00  0.00    -0.350 N 
ATOM      2  H4  UNL     1       5.507   0.059  14.153  1.00  0.00     0.163 HD
HETATM    3  C10 UNL     1       5.228   1.272  12.388  1.00  0.00     0.267 C 
HETATM    4  N5  UNL     1       4.043   1.438  11.822  1.00  0.00    -0.338 NA
HETATM    5  C11 UNL     1       2.986   1.585  11.316  1.00  0.00     0.273 C 
HETATM    6  N6  UNL     1       1.792   0.844  11.617  1.00  0.00    -0.049 NA
HETATM    7  N7  UNL     1       2.786   2.587  10.285  1.00  0.00    -0.293 N 
ATOM      8  H7  UNL     1       3.377   2.587   9.454  1.00  0.00     0.172 HD
HETATM    9  C12 UNL     1       1.871   3.467  10.419  1.00  0.00     0.191 C 
HETATM   10  N8  UNL     1       1.052   3.472  11.564  1.00  0.00    -0.063 NA
HETATM   11  N9  UNL     1       1.680   4.446   9.415  1.00  0.00    -0.364 N 
ATOM     12  H9  UNL     1       2.033   5.387   9.587  1.00  0.00     0.162 HD
HETATM   13  N10 UNL     1       6.192   2.189  12.320  1.00  0.00    -0.253 N 
ATOM     14  H10 UNL     1       6.001   3.051  11.809  1.00  0.00     0.182 HD
HETATM   15  C23 UNL     1       7.430   2.037  12.901  1.00  0.00     0.185 C 
HETATM   16  N11 UNL     1       8.473   1.897  13.372  1.00  0.00    -0.172 NA
ENDROOT
BRANCH   1  17
HETATM   17  C9  UNL     1       6.294  -0.957  12.438  1.00  0.00     0.123 C 
BRANCH  17  18
HETATM   18  C8  UNL     1       5.426  -2.225  12.449  1.00  0.00     0.021 C 
BRANCH  18  19
HETATM   19  C7  UNL     1       5.666  -3.018  13.697  1.00  0.00     0.029 C 
BRANCH  19  20
HETATM   20  C6  UNL     1       4.959  -2.623  14.914  1.00  0.00     0.237 C 
BRANCH  20  21
HETATM   21  N3  UNL     1       4.133  -3.507  15.622  1.00  0.00    -0.064 N 
HETATM   22  C5  UNL     1       4.618  -3.819  16.977  1.00  0.00     0.270 C 
HETATM   23  C4  UNL     1       4.062  -5.202  17.319  1.00  0.00     0.165 C 
HETATM   24  C26 UNL     1       3.303  -5.537  16.053  1.00  0.00     0.045 C 
HETATM   25  C25 UNL     1       2.092  -4.692  15.885  1.00  0.00     0.037 C 
HETATM   26  C27 UNL     1       4.232  -4.882  15.048  1.00  0.00     0.244 C 
HETATM   27  C24 UNL     1       2.725  -3.317  15.606  1.00  0.00     0.238 C 
BRANCH  23  28
HETATM   28  O2  UNL     1       5.110  -6.157  17.376  1.00  0.00    -0.295 OA
BRANCH  28  29
HETATM   29  C3  UNL     1       6.380  -5.934  17.824  1.00  0.00     0.380 C 
HETATM   30  N2  UNL     1       7.450  -6.057  16.901  1.00  0.00    -0.239 N 
ATOM     31  H2  UNL     1       7.271  -6.305  15.928  1.00  0.00     0.192 HD
HETATM   32  O1  UNL     1       6.546  -5.631  19.030  1.00  0.00    -0.237 OA
BRANCH  30  33
HETATM   33  N1  UNL     1       8.744  -5.832  17.346  1.00  0.00    -0.239 N 
HETATM   34  C28 UNL     1       9.486  -4.685  16.979  1.00  0.00     0.337 C 
HETATM   35  O3  UNL     1      10.655  -4.498  17.399  1.00  0.00    -0.245 OA
HETATM   36  N12 UNL     1       8.919  -3.691  16.104  1.00  0.00    -0.338 N 
ATOM     37  H12 UNL     1       7.973  -3.824  15.749  1.00  0.00     0.164 HD
BRANCH  33  38
HETATM   38  C2  UNL     1       9.353  -6.804  18.222  1.00  0.00     0.150 C 
HETATM   39  C1  UNL     1       9.373  -8.144  17.518  1.00  0.00     0.028 C 
ENDBRANCH  33  38
BRANCH  36  40
HETATM   40  C29 UNL     1       9.648  -2.522  15.720  1.00  0.00     0.078 C 
HETATM   41  C30 UNL     1      10.621  -2.805  14.588  1.00  0.00     0.032 C 
HETATM   42  C31 UNL     1       8.713  -1.436  15.252  1.00  0.00     0.032 C 
ENDBRANCH  36  40
ENDBRANCH  30  33
ENDBRANCH  28  29
ENDBRANCH  23  28
ENDBRANCH  20  21
ENDBRANCH  19  20
ENDBRANCH  18  19
ENDBRANCH  17  18
ENDBRANCH   1  17
BRANCH  11  43
HETATM   43  C13 UNL     1       1.018   4.188   8.166  1.00  0.00     0.127 C 
BRANCH  43  44
HETATM   44  C14 UNL     1       1.427   5.225   7.155  1.00  0.00     0.004 C 
HETATM   45  C15 UNL     1       0.835   4.966   5.806  1.00  0.00     0.007 C 
HETATM   46  C16 UNL     1       1.727   4.088   4.991  1.00  0.00     0.006 C 
HETATM   47  C17 UNL     1       2.972   4.875   4.626  1.00  0.00    -0.003 C 
HETATM   48  C18 UNL     1       4.186   3.974   4.541  1.00  0.00     0.032 C 
HETATM   49  C21 UNL     1       3.342   5.865   5.679  1.00  0.00     0.012 C 
HETATM   50  C19 UNL     1       5.279   4.856   5.012  1.00  0.00    -0.030 C 
HETATM   51  C20 UNL     1       4.817   5.909   5.646  1.00  0.00    -0.026 C 
HETATM   52  C22 UNL     1       2.914   5.423   7.065  1.00  0.00     0.015 C 
ENDBRANCH  43  44
ENDBRANCH  11  43
TORSDOF 12
ENDMDL
MODEL 4
REMARK VINA RESULT: -9.377179101      4.001     11.474
REMARK  12 active torsions:
REMARK  status: ('A' for Active; 'I' for Inactive)
REMARK    1  A    between atoms: C2_2  and  N1_3 
REMARK    2  A    between atoms: N1_3  and  N2_4 
REMARK       I    between atoms: N1_3  and  C28_46 
REMARK       I    between atoms: N2_4  and  C3_6 
REMARK    3  A    between atoms: C3_6  and  O2_8 
REMARK    4  A    between atoms: O2_8  and  C4_9 
REMARK    5  A    between atoms: N3_11  and  C6_12 
REMARK    6  A    between atoms: C6_12  and  C7_13 
REMARK    7  A    between atoms: C7_13  and  C8_14 
REMARK    8  A    between atoms: C8_14  and  C9_15 
REMARK    9  A    between atoms: C9_15  and  N4_16 
REMARK       I    between atoms: N4_16  and  C10_18 
REMARK       I    between atoms: C10_18  and  N5_19 
REMARK       I    between atoms: N5_19  and  C11_20 
REMARK       I    between atoms: C11_20  and  N7_22 
REMARK       I    between atoms: C12_24  and  N9_26 
REMARK   10  A    between atoms: N9_26  and  C13_28 
REMARK   11  A    between atoms: C13_28  and  C14_29 
REMARK       I    between atoms: C28_46  and  N12_48 
REMARK   12  A    between atoms: N12_48  and  C29_50 
ROOT
HETATM    1  N4  UNL     1       5.686   0.069  13.082  1.00  0.00    -0.350 N 
ATOM      2  H4  UNL     1       5.503  -0.025  14.081  1.00  0.00     0.163 HD
HETATM    3  C10 UNL     1       5.283   1.259  12.360  1.00  0.00     0.267 C 
HETATM    4  N5  UNL     1       4.118   1.448  11.760  1.00  0.00    -0.338 NA
HETATM    5  C11 UNL     1       3.079   1.615  11.224  1.00  0.00     0.273 C 
HETATM    6  N6  UNL     1       1.876   0.861  11.452  1.00  0.00    -0.049 NA
HETATM    7  N7  UNL     1       2.913   2.658  10.229  1.00  0.00    -0.293 N 
ATOM      8  H7  UNL     1       3.532   2.693   9.420  1.00  0.00     0.172 HD
HETATM    9  C12 UNL     1       1.991   3.532  10.367  1.00  0.00     0.191 C 
HETATM   10  N8  UNL     1       1.133   3.489  11.482  1.00  0.00    -0.063 NA
HETATM   11  N9  UNL     1       1.833   4.551   9.397  1.00  0.00    -0.364 N 
ATOM     12  H9  UNL     1       2.178   5.484   9.621  1.00  0.00     0.162 HD
HETATM   13  N10 UNL     1       6.246   2.179  12.363  1.00  0.00    -0.253 N 
ATOM     14  H10 UNL     1       6.072   3.061  11.881  1.00  0.00     0.182 HD
HETATM   15  C23 UNL     1       7.463   2.004  12.980  1.00  0.00     0.185 C 
HETATM   16  N11 UNL     1       8.490   1.845  13.481  1.00  0.00    -0.172 NA
ENDROOT
BRANCH   1  17
HETATM   17  C9  UNL     1       6.351  -0.969  12.354  1.00  0.00     0.123 C 
BRANCH  17  18
HETATM   18  C8  UNL     1       5.984  -2.356  12.906  1.00  0.00     0.021 C 
BRANCH  18  19
HETATM   19  C7  UNL     1       4.696  -2.296  13.669  1.00  0.00     0.029 C 
BRANCH  19  20
HETATM   20  C6  UNL     1       4.737  -2.519  15.113  1.00  0.00     0.237 C 
BRANCH  20  21
HETATM   21  N3  UNL     1       3.972  -3.512  15.741  1.00  0.00    -0.064 N 
HETATM   22  C5  UNL     1       4.489  -3.917  17.060  1.00  0.00     0.270 C 
HETATM   23  C4  UNL     1       4.019  -5.356  17.276  1.00  0.00     0.165 C 
HETATM   24  C26 UNL     1       3.268  -5.618  15.988  1.00  0.00     0.045 C 
HETATM   25  C25 UNL     1       2.007  -4.835  15.905  1.00  0.00     0.037 C 
HETATM   26  C27 UNL     1       4.146  -4.819  15.043  1.00  0.00     0.244 C 
HETATM   27  C24 UNL     1       2.556  -3.405  15.750  1.00  0.00     0.238 C 
BRANCH  23  28
HETATM   28  O2  UNL     1       5.123  -6.248  17.239  1.00  0.00    -0.295 OA
BRANCH  28  29
HETATM   29  C3  UNL     1       6.370  -6.007  17.736  1.00  0.00     0.380 C 
HETATM   30  N2  UNL     1       7.475  -6.090  16.850  1.00  0.00    -0.239 N 
ATOM     31  H2  UNL     1       7.336  -6.323  15.867  1.00  0.00     0.192 HD
HETATM   32  O1  UNL     1       6.488  -5.724  18.952  1.00  0.00    -0.237 OA
BRANCH  30  33
HETATM   33  N1  UNL     1       8.747  -5.847  17.345  1.00  0.00    -0.239 N 
HETATM   34  C28 UNL     1       9.490  -4.692  17.000  1.00  0.00     0.337 C 
HETATM   35  O3  UNL     1      10.639  -4.489  17.466  1.00  0.00    -0.245 OA
HETATM   36  N12 UNL     1       8.946  -3.710  16.097  1.00  0.00    -0.338 N 
ATOM     37  H12 UNL     1       8.017  -3.857  15.705  1.00  0.00     0.164 HD
BRANCH  33  38
HETATM   38  C2  UNL     1       9.332  -6.805  18.251  1.00  0.00     0.150 C 
HETATM   39  C1  UNL     1       9.419  -8.144  17.548  1.00  0.00     0.028 C 
ENDBRANCH  33  38
BRANCH  36  40
HETATM   40  C29 UNL     1       9.676  -2.535  15.735  1.00  0.00     0.078 C 
HETATM   41  C30 UNL     1      10.682  -2.808  14.630  1.00  0.00     0.032 C 
HETATM   42  C31 UNL     1       8.745  -1.456  15.243  1.00  0.00     0.032 C 
ENDBRANCH  36  40
ENDBRANCH  30  33
ENDBRANCH  28  29
ENDBRANCH  23  28
ENDBRANCH  20  21
ENDBRANCH  19  20
ENDBRANCH  18  19
ENDBRANCH  17  18
ENDBRANCH   1  17
BRANCH  11  43
HETATM   43  C13 UNL     1       1.216   4.345   8.117  1.00  0.00     0.127 C 
BRANCH  43  44
HETATM   44  C14 UNL     1       2.272   4.030   7.093  1.00  0.00     0.004 C 
HETATM   45  C15 UNL     1       3.497   4.872   7.265  1.00  0.00     0.007 C 
HETATM   46  C16 UNL     1       3.385   6.142   6.485  1.00  0.00     0.006 C 
HETATM   47  C17 UNL     1       3.455   5.807   5.007  1.00  0.00    -0.003 C 
HETATM   48  C18 UNL     1       2.611   6.760   4.187  1.00  0.00     0.032 C 
HETATM   49  C21 UNL     1       2.869   4.469   4.704  1.00  0.00     0.012 C 
HETATM   50  C19 UNL     1       2.125   5.897   3.086  1.00  0.00    -0.030 C 
HETATM   51  C20 UNL     1       2.265   4.622   3.367  1.00  0.00    -0.026 C 
HETATM   52  C22 UNL     1       1.773   4.083   5.676  1.00  0.00     0.015 C 
ENDBRANCH  43  44
ENDBRANCH  11  43
TORSDOF 12
ENDMDL
MODEL 5
REMARK VINA RESULT: -9.285323933      4.048     11.698
REMARK  12 active torsions:
REMARK  status: ('A' for Active; 'I' for Inactive)
REMARK    1  A    between atoms: C2_2  and  N1_3 
REMARK    2  A    between atoms: N1_3  and  N2_4 
REMARK       I    between atoms: N1_3  and  C28_46 
REMARK       I    between atoms: N2_4  and  C3_6 
REMARK    3  A    between atoms: C3_6  and  O2_8 
REMARK    4  A    between atoms: O2_8  and  C4_9 
REMARK    5  A    between atoms: N3_11  and  C6_12 
REMARK    6  A    between atoms: C6_12  and  C7_13 
REMARK    7  A    between atoms: C7_13  and  C8_14 
REMARK    8  A    between atoms: C8_14  and  C9_15 
REMARK    9  A    between atoms: C9_15  and  N4_16 
REMARK       I    between atoms: N4_16  and  C10_18 
REMARK       I    between atoms: C10_18  and  N5_19 
REMARK       I    between atoms: N5_19  and  C11_20 
REMARK       I    between atoms: C11_20  and  N7_22 
REMARK       I    between atoms: C12_24  and  N9_26 
REMARK   10  A    between atoms: N9_26  and  C13_28 
REMARK   11  A    between atoms: C13_28  and  C14_29 
REMARK       I    between atoms: C28_46  and  N12_48 
REMARK   12  A    between atoms: N12_48  and  C29_50 
ROOT
HETATM    1  N4  UNL     1       5.696   0.007  13.669  1.00  0.00    -0.350 N 
ATOM      2  H4  UNL     1       5.495   0.071  14.667  1.00  0.00     0.163 HD
HETATM    3  C10 UNL     1       5.367   1.097  12.771  1.00  0.00     0.267 C 
HETATM    4  N5  UNL     1       4.221   1.255  12.127  1.00  0.00    -0.338 NA
HETATM    5  C11 UNL     1       3.199   1.396  11.551  1.00  0.00     0.273 C 
HETATM    6  N6  UNL     1       1.955   0.748  11.864  1.00  0.00    -0.049 NA
HETATM    7  N7  UNL     1       3.102   2.287  10.411  1.00  0.00    -0.293 N 
ATOM      8  H7  UNL     1       3.732   2.169   9.618  1.00  0.00     0.172 HD
HETATM    9  C12 UNL     1       2.228   3.219  10.400  1.00  0.00     0.191 C 
HETATM   10  N8  UNL     1       1.356   3.386  11.492  1.00  0.00    -0.063 NA
HETATM   11  N9  UNL     1       2.138   4.090   9.289  1.00  0.00    -0.364 N 
ATOM     12  H9  UNL     1       2.531   5.027   9.379  1.00  0.00     0.162 HD
HETATM   13  N10 UNL     1       6.379   1.955  12.658  1.00  0.00    -0.253 N 
ATOM     14  H10 UNL     1       6.259   2.764  12.049  1.00  0.00     0.182 HD
HETATM   15  C23 UNL     1       7.577   1.809  13.318  1.00  0.00     0.185 C 
HETATM   16  N11 UNL     1       8.588   1.673  13.857  1.00  0.00    -0.172 NA
ENDROOT
BRANCH   1  17
HETATM   17  C9  UNL     1       6.311  -1.160  13.114  1.00  0.00     0.123 C 
BRANCH  17  18
HETATM   18  C8  UNL     1       7.153  -1.898  14.168  1.00  0.00     0.021 C 
BRANCH  18  19
HETATM   19  C7  UNL     1       6.632  -3.287  14.382  1.00  0.00     0.029 C 
BRANCH  19  20
HETATM   20  C6  UNL     1       5.189  -3.504  14.301  1.00  0.00     0.237 C 
BRANCH  20  21
HETATM   21  N3  UNL     1       4.410  -3.800  15.428  1.00  0.00    -0.064 N 
HETATM   22  C5  UNL     1       5.193  -3.982  16.662  1.00  0.00     0.270 C 
HETATM   23  C4  UNL     1       4.368  -4.908  17.555  1.00  0.00     0.165 C 
HETATM   24  C26 UNL     1       3.163  -5.170  16.677  1.00  0.00     0.045 C 
HETATM   25  C25 UNL     1       2.309  -3.963  16.524  1.00  0.00     0.037 C 
HETATM   26  C27 UNL     1       3.859  -5.183  15.330  1.00  0.00     0.244 C 
HETATM   27  C24 UNL     1       3.221  -3.061  15.673  1.00  0.00     0.238 C 
BRANCH  23  28
HETATM   28  O2  UNL     1       5.005  -6.171  17.681  1.00  0.00    -0.295 OA
BRANCH  28  29
HETATM   29  C3  UNL     1       6.310  -6.384  18.018  1.00  0.00     0.380 C 
HETATM   30  N2  UNL     1       7.102  -7.190  17.160  1.00  0.00    -0.239 N 
ATOM     31  H2  UNL     1       6.704  -7.596  16.314  1.00  0.00     0.192 HD
HETATM   32  O1  UNL     1       6.752  -5.863  19.069  1.00  0.00    -0.237 OA
BRANCH  30  33
HETATM   33  N1  UNL     1       8.430  -7.413  17.493  1.00  0.00    -0.239 N 
HETATM   34  C28 UNL     1       9.481  -6.595  17.018  1.00  0.00     0.337 C 
HETATM   35  O3  UNL     1      10.677  -6.812  17.338  1.00  0.00    -0.245 OA
HETATM   36  N12 UNL     1       9.210  -5.481  16.145  1.00  0.00    -0.338 N 
ATOM     37  H12 UNL     1       8.247  -5.289  15.870  1.00  0.00     0.164 HD
BRANCH  33  38
HETATM   38  C2  UNL     1       8.748  -8.520  18.363  1.00  0.00     0.150 C 
HETATM   39  C1  UNL     1       8.763  -9.792  17.541  1.00  0.00     0.028 C 
ENDBRANCH  33  38
BRANCH  36  40
HETATM   40  C29 UNL     1      10.255  -4.638  15.654  1.00  0.00     0.078 C 
HETATM   41  C30 UNL     1      10.353  -4.678  14.138  1.00  0.00     0.032 C 
HETATM   42  C31 UNL     1      10.020  -3.204  16.054  1.00  0.00     0.032 C 
ENDBRANCH  36  40
ENDBRANCH  30  33
ENDBRANCH  28  29
ENDBRANCH  23  28
ENDBRANCH  20  21
ENDBRANCH  19  20
ENDBRANCH  18  19
ENDBRANCH  17  18
ENDBRANCH   1  17
BRANCH  11  43
HETATM   43  C13 UNL     1       1.526   3.729   8.041  1.00  0.00     0.127 C 
BRANCH  43  44
HETATM   44  C14 UNL     1       0.764   4.906   7.494  1.00  0.00     0.004 C 
HETATM   45  C15 UNL     1       0.845   4.991   6.003  1.00  0.00     0.007 C 
HETATM   46  C16 UNL     1       2.029   5.796   5.577  1.00  0.00     0.006 C 
HETATM   47  C17 UNL     1       1.781   7.247   5.947  1.00  0.00    -0.003 C 
HETATM   48  C18 UNL     1       3.073   7.951   6.306  1.00  0.00     0.032 C 
HETATM   49  C21 UNL     1       0.954   7.381   7.181  1.00  0.00     0.012 C 
HETATM   50  C19 UNL     1       2.642   8.908   7.350  1.00  0.00    -0.030 C 
HETATM   51  C20 UNL     1       1.464   8.598   7.841  1.00  0.00    -0.026 C 
HETATM   52  C22 UNL     1       1.140   6.215   8.132  1.00  0.00     0.015 C 
ENDBRANCH  43  44
ENDBRANCH  11  43
TORSDOF 12
ENDMDL
