MODEL 1
REMARK VINA RESULT: -9.990447789      0.000      0.000
REMARK  13 active torsions:
REMARK  status: ('A' for Active; 'I' for Inactive)
REMARK    1  A    between atoms: C2_2  and  C3_3 
REMARK    2  A    between atoms: C3_3  and  N1_4 
REMARK       I    between atoms: N1_4  and  C4_6 
REMARK    3  A    between atoms: C4_6  and  C5_8 
REMARK    4  A    between atoms: C8_11  and  C9_12 
REMARK       I    between atoms: C9_12  and  N2_14 
REMARK    5  A    between atoms: N3_17  and  C11_18 
REMARK    6  A    between atoms: C11_18  and  O3_19 
REMARK    7  A    between atoms: C11_18  and  C12_21 
REMARK    8  A    between atoms: C12_21  and  C14_23 
REMARK    9  A    between atoms: C12_21  and  C22_41 
REMARK   10  A    between atoms: C14_23  and  N4_24 
REMARK       I    between atoms: N4_24  and  C15_26 
REMARK       I    between atoms: C15_26  and  N5_28 
REMARK   11  A    between atoms: C19_32  and  N6_33 
REMARK       I    between atoms: N6_33  and  C20_35 
REMARK   12  A    between atoms: C22_41  and  N9_42 
REMARK       I    between atoms: N9_42  and  C23_44 
REMARK   13  A    between atoms: C23_44  and  C24_46 
ROOT
HETATM    1  C12 UNL     1       5.745  -1.237  13.813  1.00  0.00     0.053 C 
HETATM    2  C13 UNL     1       5.474  -2.187  12.697  1.00  0.00     0.027 C 
ENDROOT
BRANCH   1   3
HETATM    3  C11 UNL     1       4.894  -1.227  14.957  1.00  0.00     0.127 C 
BRANCH   3   4
HETATM    4  N3  UNL     1       3.757  -2.025  15.360  1.00  0.00    -0.338 N 
HETATM    5  C5  UNL     1       3.876  -2.834  16.577  1.00  0.00     0.179 C 
HETATM    6  C6  UNL     1       2.494  -2.990  17.092  1.00  0.00     0.037 C 
HETATM    7  C7  UNL     1       1.677  -2.975  15.840  1.00  0.00     0.037 C 
HETATM    8  C8  UNL     1       2.489  -2.233  14.780  1.00  0.00     0.179 C 
BRANCH   5   9
HETATM    9  C4  UNL     1       4.452  -4.170  16.369  1.00  0.00     0.240 C 
HETATM   10  N1  UNL     1       4.301  -5.296  17.215  1.00  0.00    -0.356 N 
ATOM     11  H1  UNL     1       3.743  -5.190  18.063  1.00  0.00     0.162 HD
HETATM   12  O1  UNL     1       5.171  -4.363  15.327  1.00  0.00    -0.271 OA
BRANCH  10  13
HETATM   13  C3  UNL     1       4.889  -6.579  16.947  1.00  0.00     0.149 C 
BRANCH  13  14
HETATM   14  C2  UNL     1       4.005  -7.600  16.380  1.00  0.00    -0.018 C 
HETATM   15  C1  UNL     1       3.376  -7.489  15.243  1.00  0.00     0.008 C 
ENDBRANCH  13  14
ENDBRANCH  10  13
ENDBRANCH   5   9
BRANCH   8  16
HETATM   16  C9  UNL     1       1.705  -1.029  14.381  1.00  0.00     0.240 C 
HETATM   17  O2  UNL     1       2.264   0.052  14.210  1.00  0.00    -0.271 OA
HETATM   18  N2  UNL     1       0.323  -1.170  14.198  1.00  0.00    -0.364 N 
HETATM   19  C10 UNL     1      -0.445   0.016  13.798  1.00  0.00     0.149 C 
ATOM     20  H2  UNL     1      -0.136  -2.070  14.338  1.00  0.00     0.161 HD
ENDBRANCH   8  16
ENDBRANCH   3   4
BRANCH   3  21
HETATM   21  O3  UNL     1       5.171  -0.325  15.854  1.00  0.00    -0.349 OA
ATOM     22  H3  UNL     1       5.987  -0.526  16.298  1.00  0.00     0.219 HD
ENDBRANCH   3  21
ENDBRANCH   1   3
BRANCH   1  23
HETATM   23  C14 UNL     1       5.673   0.172  13.154  1.00  0.00     0.143 C 
BRANCH  23  24
HETATM   24  N4  UNL     1       4.482   0.313  12.339  1.00  0.00    -0.342 N 
HETATM   25  C15 UNL     1       4.232   1.552  11.738  1.00  0.00     0.318 C 
HETATM   26  O4  UNL     1       5.056   2.502  11.937  1.00  0.00    -0.247 OA
HETATM   27  N5  UNL     1       3.122   1.828  10.920  1.00  0.00    -0.332 N 
HETATM   28  C16 UNL     1       2.123   0.830  10.597  1.00  0.00     0.127 C 
HETATM   29  C21 UNL     1       2.906   3.149  10.327  1.00  0.00     0.152 C 
HETATM   30  C17 UNL     1       0.762   1.352  10.917  1.00  0.00     0.022 C 
HETATM   31  C18 UNL     1       0.839   2.668  11.622  1.00  0.00     0.028 C 
HETATM   32  C19 UNL     1       1.574   3.719  10.801  1.00  0.00     0.102 C 
ATOM     33  H4  UNL     1       3.842  -0.472  12.207  1.00  0.00     0.164 HD
BRANCH  32  34
HETATM   34  N6  UNL     1       0.801   4.186   9.683  1.00  0.00    -0.359 N 
HETATM   35  C20 UNL     1       1.374   4.434   8.421  1.00  0.00     0.182 C 
HETATM   36  N7  UNL     1       1.559   5.662   8.025  1.00  0.00    -0.374 N 
HETATM   37  N8  UNL     1       1.769   3.406   7.527  1.00  0.00    -0.064 NA
ATOM     38  H72 UNL     1       1.275   6.402   8.667  1.00  0.00     0.158 HD
ATOM     39  H71 UNL     1       1.974   5.842   7.111  1.00  0.00     0.158 HD
ATOM     40  H6  UNL     1      -0.199   4.343   9.809  1.00  0.00     0.162 HD
ENDBRANCH  32  34
ENDBRANCH  23  24
ENDBRANCH   1  23
BRANCH   1  41
HETATM   41  C22 UNL     1       7.246  -1.325  14.171  1.00  0.00     0.142 C 
BRANCH  41  42
HETATM   42  N9  UNL     1       7.521  -2.533  14.902  1.00  0.00    -0.359 N 
HETATM   43  C23 UNL     1       8.867  -2.842  15.218  1.00  0.00     0.226 C 
HETATM   44  O5  UNL     1       9.814  -2.060  14.868  1.00  0.00    -0.273 OA
ATOM     45  H9  UNL     1       6.763  -3.154  15.187  1.00  0.00     0.162 HD
BRANCH  43  46
HETATM   46  C24 UNL     1       9.257  -4.068  15.955  1.00  0.00     0.042 C 
HETATM   47  C25 UNL     1      10.498  -3.883  16.767  1.00  0.00     0.024 C 
HETATM   48  C26 UNL     1      10.763  -5.101  17.583  1.00  0.00    -0.013 C 
HETATM   49  C27 UNL     1      11.011  -6.273  16.634  1.00  0.00     0.009 C 
HETATM   50  C31 UNL     1       9.603  -5.507  18.446  1.00  0.00     0.009 C 
HETATM   51  C28 UNL     1       9.793  -6.473  15.778  1.00  0.00    -0.013 C 
HETATM   52  C29 UNL     1       8.620  -6.837  16.658  1.00  0.00     0.009 C 
HETATM   53  C33 UNL     1       9.439  -5.220  15.018  1.00  0.00     0.024 C 
HETATM   54  C30 UNL     1       8.356  -5.689  17.604  1.00  0.00    -0.013 C 
HETATM   55  C32 UNL     1       8.091  -4.406  16.900  1.00  0.00     0.024 C 
ENDBRANCH  43  46
ENDBRANCH  41  42
ENDBRANCH   1  41
TORSDOF 13
ENDMDL
MODEL 2
REMARK VINA RESULT: -9.982003662      2.351      8.754
REMARK  13 active torsions:
REMARK  status: ('A' for Active; 'I' for Inactive)
REMARK    1  A    between atoms: C2_2  and  C3_3 
REMARK    2  A    between atoms: C3_3  and  N1_4 
REMARK       I    between atoms: N1_4  and  C4_6 
REMARK    3  A    between atoms: C4_6  and  C5_8 
REMARK    4  A    between atoms: C8_11  and  C9_12 
REMARK       I    between atoms: C9_12  and  N2_14 
REMARK    5  A    between atoms: N3_17  and  C11_18 
REMARK    6  A    between atoms: C11_18  and  O3_19 
REMARK    7  A    between atoms: C11_18  and  C12_21 
REMARK    8  A    between atoms: C12_21  and  C14_23 
REMARK    9  A    between atoms: C12_21  and  C22_41 
REMARK   10  A    between atoms: C14_23  and  N4_24 
REMARK       I    between atoms: N4_24  and  C15_26 
REMARK       I    between atoms: C15_26  and  N5_28 
REMARK   11  A    between atoms: C19_32  and  N6_33 
REMARK       I    between atoms: N6_33  and  C20_35 
REMARK   12  A    between atoms: C22_41  and  N9_42 
REMARK       I    between atoms: N9_42  and  C23_44 
REMARK   13  A    between atoms: C23_44  and  C24_46 
ROOT
HETATM    1  C12 UNL     1       6.093   0.039  13.306  1.00  0.00     0.053 C 
HETATM    2  C13 UNL     1       5.707  -1.123  12.456  1.00  0.00     0.027 C 
ENDROOT
BRANCH   1   3
HETATM    3  C11 UNL     1       6.228   1.332  12.719  1.00  0.00     0.127 C 
BRANCH   3   4
HETATM    4  N3  UNL     1       5.591   1.990  11.600  1.00  0.00    -0.338 N 
HETATM    5  C5  UNL     1       4.278   2.606  11.815  1.00  0.00     0.179 C 
HETATM    6  C6  UNL     1       4.177   3.693  10.812  1.00  0.00     0.037 C 
HETATM    7  C7  UNL     1       4.983   3.160   9.671  1.00  0.00     0.037 C 
HETATM    8  C8  UNL     1       5.968   2.146  10.251  1.00  0.00     0.179 C 
BRANCH   5   9
HETATM    9  C4  UNL     1       3.139   1.695  11.637  1.00  0.00     0.240 C 
HETATM   10  N1  UNL     1       1.785   1.963  11.960  1.00  0.00    -0.356 N 
ATOM     11  H1  UNL     1       1.557   2.873  12.361  1.00  0.00     0.162 HD
HETATM   12  O1  UNL     1       3.363   0.534  11.146  1.00  0.00    -0.271 OA
BRANCH  10  13
HETATM   13  C3  UNL     1       0.716   1.027  11.752  1.00  0.00     0.149 C 
BRANCH  13  14
HETATM   14  C2  UNL     1       0.124   0.432  12.952  1.00  0.00    -0.018 C 
HETATM   15  C1  UNL     1       0.770  -0.309  13.810  1.00  0.00     0.008 C 
ENDBRANCH  13  14
ENDBRANCH  10  13
ENDBRANCH   5   9
BRANCH   8  16
HETATM   16  C9  UNL     1       7.343   2.651   9.971  1.00  0.00     0.240 C 
HETATM   17  O2  UNL     1       8.327   2.040  10.379  1.00  0.00    -0.271 OA
HETATM   18  N2  UNL     1       7.475   3.830   9.224  1.00  0.00    -0.364 N 
HETATM   19  C10 UNL     1       8.832   4.321   8.945  1.00  0.00     0.149 C 
ATOM     20  H2  UNL     1       6.655   4.332   8.885  1.00  0.00     0.161 HD
ENDBRANCH   8  16
ENDBRANCH   3   4
BRANCH   3  21
HETATM   21  O3  UNL     1       7.097   2.118  13.288  1.00  0.00    -0.349 OA
ATOM     22  H3  UNL     1       7.763   1.615  13.742  1.00  0.00     0.219 HD
ENDBRANCH   3  21
ENDBRANCH   1   3
BRANCH   1  23
HETATM   23  C14 UNL     1       7.474  -0.357  13.907  1.00  0.00     0.143 C 
BRANCH  23  24
HETATM   24  N4  UNL     1       7.627  -1.798  13.972  1.00  0.00    -0.342 N 
HETATM   25  C15 UNL     1       8.275  -2.346  15.085  1.00  0.00     0.318 C 
HETATM   26  O4  UNL     1       8.707  -1.559  15.987  1.00  0.00    -0.247 OA
HETATM   27  N5  UNL     1       8.487  -3.722  15.282  1.00  0.00    -0.332 N 
HETATM   28  C16 UNL     1       8.027  -4.725  14.343  1.00  0.00     0.127 C 
HETATM   29  C21 UNL     1       9.183  -4.238  16.462  1.00  0.00     0.152 C 
HETATM   30  C17 UNL     1       9.159  -5.618  13.958  1.00  0.00     0.022 C 
HETATM   31  C18 UNL     1      10.454  -5.121  14.516  1.00  0.00     0.028 C 
HETATM   32  C19 UNL     1      10.423  -5.015  16.035  1.00  0.00     0.102 C 
ATOM     33  H4  UNL     1       7.271  -2.396  13.226  1.00  0.00     0.164 HD
BRANCH  32  34
HETATM   34  N6  UNL     1      10.458  -6.300  16.679  1.00  0.00    -0.359 N 
HETATM   35  C20 UNL     1       9.445  -6.731  17.556  1.00  0.00     0.182 C 
HETATM   36  N7  UNL     1       9.671  -6.761  18.840  1.00  0.00    -0.374 N 
HETATM   37  N8  UNL     1       8.162  -7.150  17.122  1.00  0.00    -0.064 NA
ATOM     38  H72 UNL     1      10.594  -6.459  19.153  1.00  0.00     0.158 HD
ATOM     39  H71 UNL     1       8.937  -7.073  19.476  1.00  0.00     0.158 HD
ATOM     40  H6  UNL     1      11.245  -6.921  16.493  1.00  0.00     0.162 HD
ENDBRANCH  32  34
ENDBRANCH  23  24
ENDBRANCH   1  23
BRANCH   1  41
HETATM   41  C22 UNL     1       5.203   0.033  14.569  1.00  0.00     0.142 C 
BRANCH  41  42
HETATM   42  N9  UNL     1       4.539  -1.235  14.713  1.00  0.00    -0.359 N 
HETATM   43  C23 UNL     1       4.701  -1.950  15.926  1.00  0.00     0.226 C 
HETATM   44  O5  UNL     1       5.414  -1.474  16.872  1.00  0.00    -0.273 OA
ATOM     45  H9  UNL     1       3.964  -1.611  13.960  1.00  0.00     0.162 HD
BRANCH  43  46
HETATM   46  C24 UNL     1       4.070  -3.269  16.169  1.00  0.00     0.042 C 
HETATM   47  C25 UNL     1       2.870  -3.181  17.056  1.00  0.00     0.024 C 
HETATM   48  C26 UNL     1       2.208  -4.512  17.156  1.00  0.00    -0.013 C 
HETATM   49  C27 UNL     1       3.184  -5.490  17.807  1.00  0.00     0.009 C 
HETATM   50  C31 UNL     1       1.856  -5.106  15.823  1.00  0.00     0.009 C 
HETATM   51  C28 UNL     1       4.419  -5.585  16.958  1.00  0.00    -0.013 C 
HETATM   52  C29 UNL     1       4.049  -6.142  15.603  1.00  0.00     0.009 C 
HETATM   53  C33 UNL     1       5.054  -4.233  16.754  1.00  0.00     0.024 C 
HETATM   54  C30 UNL     1       3.085  -5.186  14.939  1.00  0.00    -0.013 C 
HETATM   55  C32 UNL     1       3.635  -3.812  14.797  1.00  0.00     0.024 C 
ENDBRANCH  43  46
ENDBRANCH  41  42
ENDBRANCH   1  41
TORSDOF 13
ENDMDL
MODEL 3
REMARK VINA RESULT: -9.975400547      2.765      9.690
REMARK  13 active torsions:
REMARK  status: ('A' for Active; 'I' for Inactive)
REMARK    1  A    between atoms: C2_2  and  C3_3 
REMARK    2  A    between atoms: C3_3  and  N1_4 
REMARK       I    between atoms: N1_4  and  C4_6 
REMARK    3  A    between atoms: C4_6  and  C5_8 
REMARK    4  A    between atoms: C8_11  and  C9_12 
REMARK       I    between atoms: C9_12  and  N2_14 
REMARK    5  A    between atoms: N3_17  and  C11_18 
REMARK    6  A    between atoms: C11_18  and  O3_19 
REMARK    7  A    between atoms: C11_18  and  C12_21 
REMARK    8  A    between atoms: C12_21  and  C14_23 
REMARK    9  A    between atoms: C12_21  and  C22_41 
REMARK   10  A    between atoms: C14_23  and  N4_24 
REMARK       I    between atoms: N4_24  and  C15_26 
REMARK       I    between atoms: C15_26  and  N5_28 
REMARK   11  A    between atoms: C19_32  and  N6_33 
REMARK       I    between atoms: N6_33  and  C20_35 
REMARK   12  A    between atoms: C22_41  and  N9_42 
REMARK       I    between atoms: N9_42  and  C23_44 
REMARK   13  A    between atoms: C23_44  and  C24_46 
ROOT
HETATM    1  C12 UNL     1       5.034  -2.032  15.233  1.00  0.00     0.053 C 
HETATM    2  C13 UNL     1       4.881  -2.645  13.884  1.00  0.00     0.027 C 
ENDROOT
BRANCH   1   3
HETATM    3  C11 UNL     1       6.164  -2.363  16.038  1.00  0.00     0.127 C 
BRANCH   3   4
HETATM    4  N3  UNL     1       7.368  -3.128  15.799  1.00  0.00    -0.338 N 
HETATM    5  C5  UNL     1       7.239  -4.572  15.584  1.00  0.00     0.179 C 
HETATM    6  C6  UNL     1       8.409  -4.961  14.759  1.00  0.00     0.037 C 
HETATM    7  C7  UNL     1       9.456  -3.990  15.203  1.00  0.00     0.037 C 
HETATM    8  C8  UNL     1       8.730  -2.767  15.759  1.00  0.00     0.179 C 
BRANCH   5   9
HETATM    9  C4  UNL     1       7.243  -5.376  16.813  1.00  0.00     0.240 C 
HETATM   10  N1  UNL     1       7.813  -6.663  16.979  1.00  0.00    -0.356 N 
ATOM     11  H1  UNL     1       8.267  -7.096  16.175  1.00  0.00     0.162 HD
HETATM   12  O1  UNL     1       6.680  -4.891  17.856  1.00  0.00    -0.271 OA
BRANCH  10  13
HETATM   13  C3  UNL     1       7.787  -7.392  18.216  1.00  0.00     0.149 C 
BRANCH  13  14
HETATM   14  C2  UNL     1       7.834  -8.853  18.118  1.00  0.00    -0.018 C 
HETATM   15  C1  UNL     1       8.674  -9.520  17.377  1.00  0.00     0.008 C 
ENDBRANCH  13  14
ENDBRANCH  10  13
ENDBRANCH   5   9
BRANCH   8  16
HETATM   16  C9  UNL     1       9.112  -1.599  14.914  1.00  0.00     0.240 C 
HETATM   17  O2  UNL     1      10.146  -1.621  14.251  1.00  0.00    -0.271 OA
HETATM   18  N2  UNL     1       8.257  -0.490  14.893  1.00  0.00    -0.364 N 
HETATM   19  C10 UNL     1       8.633   0.657  14.055  1.00  0.00     0.149 C 
ATOM     20  H2  UNL     1       7.398  -0.478  15.444  1.00  0.00     0.161 HD
ENDBRANCH   8  16
ENDBRANCH   3   4
BRANCH   3  21
HETATM   21  O3  UNL     1       6.146  -1.890  17.251  1.00  0.00    -0.349 OA
ATOM     22  H3  UNL     1       5.436  -1.268  17.363  1.00  0.00     0.219 HD
ENDBRANCH   3  21
ENDBRANCH   1   3
BRANCH   1  23
HETATM   23  C14 UNL     1       3.754  -2.466  16.008  1.00  0.00     0.143 C 
BRANCH  23  24
HETATM   24  N4  UNL     1       3.424  -3.853  15.745  1.00  0.00    -0.342 N 
HETATM   25  C15 UNL     1       3.262  -4.715  16.835  1.00  0.00     0.318 C 
HETATM   26  O4  UNL     1       3.417  -4.247  18.009  1.00  0.00    -0.247 OA
HETATM   27  N5  UNL     1       2.935  -6.078  16.728  1.00  0.00    -0.332 N 
HETATM   28  C16 UNL     1       2.711  -6.729  15.454  1.00  0.00     0.127 C 
HETATM   29  C21 UNL     1       2.790  -6.935  17.906  1.00  0.00     0.152 C 
HETATM   30  C17 UNL     1       3.568  -7.947  15.348  1.00  0.00     0.022 C 
HETATM   31  C18 UNL     1       4.515  -8.045  16.500  1.00  0.00     0.028 C 
HETATM   32  C19 UNL     1       3.790  -8.084  17.839  1.00  0.00     0.102 C 
ATOM     33  H4  UNL     1       3.312  -4.192  14.788  1.00  0.00     0.164 HD
BRANCH  32  34
HETATM   34  N6  UNL     1       3.130  -9.339  18.073  1.00  0.00    -0.359 N 
HETATM   35  C20 UNL     1       3.817 -10.568  18.054  1.00  0.00     0.182 C 
HETATM   36  N7  UNL     1       3.671 -11.375  17.041  1.00  0.00    -0.374 N 
HETATM   37  N8  UNL     1       4.678 -10.997  19.096  1.00  0.00    -0.064 NA
ATOM     38  H72 UNL     1       3.052 -11.067  16.291  1.00  0.00     0.158 HD
ATOM     39  H71 UNL     1       4.169 -12.266  17.027  1.00  0.00     0.158 HD
ATOM     40  H6  UNL     1       2.127  -9.339  18.259  1.00  0.00     0.162 HD
ENDBRANCH  32  34
ENDBRANCH  23  24
ENDBRANCH   1  23
BRANCH   1  41
HETATM   41  C22 UNL     1       4.804  -0.509  15.103  1.00  0.00     0.142 C 
BRANCH  41  42
HETATM   42  N9  UNL     1       3.616  -0.241  14.338  1.00  0.00    -0.359 N 
HETATM   43  C23 UNL     1       3.738   0.498  13.135  1.00  0.00     0.226 C 
HETATM   44  O5  UNL     1       4.879   0.910  12.737  1.00  0.00    -0.273 OA
ATOM     45  H9  UNL     1       2.706  -0.576  14.653  1.00  0.00     0.162 HD
BRANCH  43  46
HETATM   46  C24 UNL     1       2.575   0.838  12.281  1.00  0.00     0.042 C 
HETATM   47  C25 UNL     1       2.596   0.126  10.966  1.00  0.00     0.024 C 
HETATM   48  C26 UNL     1       1.342   0.406  10.212  1.00  0.00    -0.013 C 
HETATM   49  C27 UNL     1       1.279   1.904   9.917  1.00  0.00     0.009 C 
HETATM   50  C31 UNL     1       0.095   0.085  10.984  1.00  0.00     0.009 C 
HETATM   51  C28 UNL     1       1.285   2.657  11.217  1.00  0.00    -0.013 C 
HETATM   52  C29 UNL     1       0.050   2.295  12.007  1.00  0.00     0.009 C 
HETATM   53  C33 UNL     1       2.494   2.314  12.049  1.00  0.00     0.024 C 
HETATM   54  C30 UNL     1       0.093   0.815  12.313  1.00  0.00    -0.013 C 
HETATM   55  C32 UNL     1       1.316   0.412  13.056  1.00  0.00     0.024 C 
ENDBRANCH  43  46
ENDBRANCH  41  42
ENDBRANCH   1  41
TORSDOF 13
ENDMDL
MODEL 4
REMARK VINA RESULT: -9.945251064      2.715      9.546
REMARK  13 active torsions:
REMARK  status: ('A' for Active; 'I' for Inactive)
REMARK    1  A    between atoms: C2_2  and  C3_3 
REMARK    2  A    between atoms: C3_3  and  N1_4 
REMARK       I    between atoms: N1_4  and  C4_6 
REMARK    3  A    between atoms: C4_6  and  C5_8 
REMARK    4  A    between atoms: C8_11  and  C9_12 
REMARK       I    between atoms: C9_12  and  N2_14 
REMARK    5  A    between atoms: N3_17  and  C11_18 
REMARK    6  A    between atoms: C11_18  and  O3_19 
REMARK    7  A    between atoms: C11_18  and  C12_21 
REMARK    8  A    between atoms: C12_21  and  C14_23 
REMARK    9  A    between atoms: C12_21  and  C22_41 
REMARK   10  A    between atoms: C14_23  and  N4_24 
REMARK       I    between atoms: N4_24  and  C15_26 
REMARK       I    between atoms: C15_26  and  N5_28 
REMARK   11  A    between atoms: C19_32  and  N6_33 
REMARK       I    between atoms: N6_33  and  C20_35 
REMARK   12  A    between atoms: C22_41  and  N9_42 
REMARK       I    between atoms: N9_42  and  C23_44 
REMARK   13  A    between atoms: C23_44  and  C24_46 
ROOT
HETATM    1  C12 UNL     1       5.281  -2.004  15.038  1.00  0.00     0.053 C 
HETATM    2  C13 UNL     1       5.334  -2.416  13.608  1.00  0.00     0.027 C 
ENDROOT
BRANCH   1   3
HETATM    3  C11 UNL     1       6.381  -2.292  15.900  1.00  0.00     0.127 C 
BRANCH   3   4
HETATM    4  N3  UNL     1       7.702  -2.840  15.680  1.00  0.00    -0.338 N 
HETATM    5  C5  UNL     1       7.835  -4.294  15.556  1.00  0.00     0.179 C 
HETATM    6  C6  UNL     1       9.048  -4.516  14.731  1.00  0.00     0.037 C 
HETATM    7  C7  UNL     1       9.905  -3.346  15.092  1.00  0.00     0.037 C 
HETATM    8  C8  UNL     1       8.974  -2.242  15.590  1.00  0.00     0.179 C 
BRANCH   5   9
HETATM    9  C4  UNL     1       7.999  -5.005  16.831  1.00  0.00     0.240 C 
HETATM   10  N1  UNL     1       8.896  -6.070  17.096  1.00  0.00    -0.356 N 
ATOM     11  H1  UNL     1       9.495  -6.394  16.337  1.00  0.00     0.162 HD
HETATM   12  O1  UNL     1       7.268  -4.649  17.820  1.00  0.00    -0.271 OA
BRANCH  10  13
HETATM   13  C3  UNL     1       9.010  -6.717  18.373  1.00  0.00     0.149 C 
BRANCH  13  14
HETATM   14  C2  UNL     1       8.787  -8.164  18.397  1.00  0.00    -0.018 C 
HETATM   15  C1  UNL     1       8.893  -8.949  17.360  1.00  0.00     0.008 C 
ENDBRANCH  13  14
ENDBRANCH  10  13
ENDBRANCH   5   9
BRANCH   8  16
HETATM   16  C9  UNL     1       9.129  -1.080  14.668  1.00  0.00     0.240 C 
HETATM   17  O2  UNL     1       9.988  -1.090  13.789  1.00  0.00    -0.271 OA
HETATM   18  N2  UNL     1       8.264   0.011  14.828  1.00  0.00    -0.364 N 
HETATM   19  C10 UNL     1       8.415   1.151  13.913  1.00  0.00     0.149 C 
ATOM     20  H2  UNL     1       7.551   0.013  15.557  1.00  0.00     0.161 HD
ENDBRANCH   8  16
ENDBRANCH   3   4
BRANCH   3  21
HETATM   21  O3  UNL     1       6.197  -2.011  17.158  1.00  0.00    -0.349 OA
ATOM     22  H3  UNL     1       5.271  -2.009  17.374  1.00  0.00     0.219 HD
ENDBRANCH   3  21
ENDBRANCH   1   3
BRANCH   1  23
HETATM   23  C14 UNL     1       4.027  -2.730  15.609  1.00  0.00     0.143 C 
BRANCH  23  24
HETATM   24  N4  UNL     1       4.381  -4.005  16.202  1.00  0.00    -0.342 N 
HETATM   25  C15 UNL     1       3.875  -5.172  15.618  1.00  0.00     0.318 C 
HETATM   26  O4  UNL     1       3.122  -5.064  14.596  1.00  0.00    -0.247 OA
HETATM   27  N5  UNL     1       4.140  -6.472  16.082  1.00  0.00    -0.332 N 
HETATM   28  C16 UNL     1       4.996  -6.734  17.221  1.00  0.00     0.127 C 
HETATM   29  C21 UNL     1       3.572  -7.657  15.436  1.00  0.00     0.152 C 
HETATM   30  C17 UNL     1       4.282  -7.599  18.205  1.00  0.00     0.022 C 
HETATM   31  C18 UNL     1       2.854  -7.801  17.812  1.00  0.00     0.028 C 
HETATM   32  C19 UNL     1       2.720  -8.434  16.434  1.00  0.00     0.102 C 
ATOM     33  H4  UNL     1       4.983  -4.051  17.025  1.00  0.00     0.164 HD
BRANCH  32  34
HETATM   34  N6  UNL     1       3.082  -9.825  16.427  1.00  0.00    -0.359 N 
HETATM   35  C20 UNL     1       4.271 -10.292  15.835  1.00  0.00     0.182 C 
HETATM   36  N7  UNL     1       4.221 -10.927  14.698  1.00  0.00    -0.374 N 
HETATM   37  N8  UNL     1       5.553 -10.115  16.415  1.00  0.00    -0.064 NA
ATOM     38  H72 UNL     1       3.299 -11.055  14.281  1.00  0.00     0.158 HD
ATOM     39  H71 UNL     1       5.082 -11.266  14.269  1.00  0.00     0.158 HD
ATOM     40  H6  UNL     1       2.454 -10.497  16.867  1.00  0.00     0.162 HD
ENDBRANCH  32  34
ENDBRANCH  23  24
ENDBRANCH   1  23
BRANCH   1  41
HETATM   41  C22 UNL     1       4.828  -0.528  15.102  1.00  0.00     0.142 C 
BRANCH  41  42
HETATM   42  N9  UNL     1       3.649  -0.326  14.303  1.00  0.00    -0.359 N 
HETATM   43  C23 UNL     1       3.722   0.564  13.203  1.00  0.00     0.226 C 
HETATM   44  O5  UNL     1       4.812   1.167  12.923  1.00  0.00    -0.273 OA
ATOM     45  H9  UNL     1       2.781  -0.813  14.523  1.00  0.00     0.162 HD
BRANCH  43  46
HETATM   46  C24 UNL     1       2.561   0.850  12.326  1.00  0.00     0.042 C 
HETATM   47  C25 UNL     1       2.618   0.104  11.031  1.00  0.00     0.024 C 
HETATM   48  C26 UNL     1       1.366   0.331  10.254  1.00  0.00    -0.013 C 
HETATM   49  C27 UNL     1       1.269   1.818   9.918  1.00  0.00     0.009 C 
HETATM   50  C31 UNL     1       0.118  -0.001  11.020  1.00  0.00     0.009 C 
HETATM   51  C28 UNL     1       1.239   2.606  11.196  1.00  0.00    -0.013 C 
HETATM   52  C29 UNL     1       0.004   2.233  11.981  1.00  0.00     0.009 C 
HETATM   53  C33 UNL     1       2.446   2.317  12.052  1.00  0.00     0.024 C 
HETATM   54  C30 UNL     1       0.081   0.764  12.328  1.00  0.00    -0.013 C 
HETATM   55  C32 UNL     1       1.304   0.413  13.097  1.00  0.00     0.024 C 
ENDBRANCH  43  46
ENDBRANCH  41  42
ENDBRANCH   1  41
TORSDOF 13
ENDMDL
MODEL 5
REMARK VINA RESULT: -9.916385164      2.448      8.846
REMARK  13 active torsions:
REMARK  status: ('A' for Active; 'I' for Inactive)
REMARK    1  A    between atoms: C2_2  and  C3_3 
REMARK    2  A    between atoms: C3_3  and  N1_4 
REMARK       I    between atoms: N1_4  and  C4_6 
REMARK    3  A    between atoms: C4_6  and  C5_8 
REMARK    4  A    between atoms: C8_11  and  C9_12 
REMARK       I    between atoms: C9_12  and  N2_14 
REMARK    5  A    between atoms: N3_17  and  C11_18 
REMARK    6  A    between atoms: C11_18  and  O3_19 
REMARK    7  A    between atoms: C11_18  and  C12_21 
REMARK    8  A    between atoms: C12_21  and  C14_23 
REMARK    9  A    between atoms: C12_21  and  C22_41 
REMARK   10  A    between atoms: C14_23  and  N4_24 
REMARK       I    between atoms: N4_24  and  C15_26 
REMARK       I    between atoms: C15_26  and  N5_28 
REMARK   11  A    between atoms: C19_32  and  N6_33 
REMARK       I    between atoms: N6_33  and  C20_35 
REMARK   12  A    between atoms: C22_41  and  N9_42 
REMARK       I    between atoms: N9_42  and  C23_44 
REMARK   13  A    between atoms: C23_44  and  C24_46 
ROOT
HETATM    1  C12 UNL     1       6.322   0.383  13.288  1.00  0.00     0.053 C 
HETATM    2  C13 UNL     1       6.221  -0.897  12.533  1.00  0.00     0.027 C 
ENDROOT
BRANCH   1   3
HETATM    3  C11 UNL     1       6.440   1.616  12.580  1.00  0.00     0.127 C 
BRANCH   3   4
HETATM    4  N3  UNL     1       5.803   2.151  11.398  1.00  0.00    -0.338 N 
HETATM    5  C5  UNL     1       4.470   2.745  11.539  1.00  0.00     0.179 C 
HETATM    6  C6  UNL     1       4.354   3.735  10.440  1.00  0.00     0.037 C 
HETATM    7  C7  UNL     1       5.193   3.126   9.364  1.00  0.00     0.037 C 
HETATM    8  C8  UNL     1       6.197   2.198  10.046  1.00  0.00     0.179 C 
BRANCH   5   9
HETATM    9  C4  UNL     1       3.360   1.789  11.428  1.00  0.00     0.240 C 
HETATM   10  N1  UNL     1       1.983   2.067  11.619  1.00  0.00    -0.356 N 
ATOM     11  H1  UNL     1       1.714   3.020  11.863  1.00  0.00     0.162 HD
HETATM   12  O1  UNL     1       3.635   0.573  11.134  1.00  0.00    -0.271 OA
BRANCH  10  13
HETATM   13  C3  UNL     1       0.946   1.082  11.488  1.00  0.00     0.149 C 
BRANCH  13  14
HETATM   14  C2  UNL     1       0.001   0.972  12.601  1.00  0.00    -0.018 C 
HETATM   15  C1  UNL     1      -0.130  -0.079  13.362  1.00  0.00     0.008 C 
ENDBRANCH  13  14
ENDBRANCH  10  13
ENDBRANCH   5   9
BRANCH   8  16
HETATM   16  C9  UNL     1       7.561   2.716   9.740  1.00  0.00     0.240 C 
HETATM   17  O2  UNL     1       8.558   2.151  10.184  1.00  0.00    -0.271 OA
HETATM   18  N2  UNL     1       7.670   3.853   8.928  1.00  0.00    -0.364 N 
HETATM   19  C10 UNL     1       9.016   4.358   8.624  1.00  0.00     0.149 C 
ATOM     20  H2  UNL     1       6.840   4.317   8.560  1.00  0.00     0.161 HD
ENDBRANCH   8  16
ENDBRANCH   3   4
BRANCH   3  21
HETATM   21  O3  UNL     1       7.290   2.468  13.078  1.00  0.00    -0.349 OA
ATOM     22  H3  UNL     1       8.171   2.289  12.769  1.00  0.00     0.219 HD
ENDBRANCH   3  21
ENDBRANCH   1   3
BRANCH   1  23
HETATM   23  C14 UNL     1       7.593   0.218  14.172  1.00  0.00     0.143 C 
BRANCH  23  24
HETATM   24  N4  UNL     1       7.525  -0.990  14.972  1.00  0.00    -0.342 N 
HETATM   25  C15 UNL     1       8.643  -1.831  15.000  1.00  0.00     0.318 C 
HETATM   26  O4  UNL     1       9.667  -1.504  14.318  1.00  0.00    -0.247 OA
HETATM   27  N5  UNL     1       8.719  -3.027  15.735  1.00  0.00    -0.332 N 
HETATM   28  C16 UNL     1       7.633  -3.501  16.567  1.00  0.00     0.127 C 
HETATM   29  C21 UNL     1       9.913  -3.874  15.716  1.00  0.00     0.152 C 
HETATM   30  C17 UNL     1       7.294  -4.909  16.206  1.00  0.00     0.022 C 
HETATM   31  C18 UNL     1       8.050  -5.355  14.996  1.00  0.00     0.028 C 
HETATM   32  C19 UNL     1       9.558  -5.261  15.193  1.00  0.00     0.102 C 
ATOM     33  H4  UNL     1       6.684  -1.220  15.502  1.00  0.00     0.164 HD
BRANCH  32  34
HETATM   34  N6  UNL     1      10.064  -6.276  16.076  1.00  0.00    -0.359 N 
HETATM   35  C20 UNL     1      10.638  -5.971  17.325  1.00  0.00     0.182 C 
HETATM   36  N7  UNL     1      11.930  -6.052  17.479  1.00  0.00    -0.374 N 
HETATM   37  N8  UNL     1       9.881  -5.574  18.456  1.00  0.00    -0.064 NA
ATOM     38  H72 UNL     1      12.475  -6.337  16.666  1.00  0.00     0.158 HD
ATOM     39  H71 UNL     1      12.346  -5.831  18.384  1.00  0.00     0.158 HD
ATOM     40  H6  UNL     1      10.004  -7.252  15.787  1.00  0.00     0.162 HD
ENDBRANCH  32  34
ENDBRANCH  23  24
ENDBRANCH   1  23
BRANCH   1  41
HETATM   41  C22 UNL     1       5.209   0.402  14.362  1.00  0.00     0.142 C 
BRANCH  41  42
HETATM   42  N9  UNL     1       4.494  -0.845  14.369  1.00  0.00    -0.359 N 
HETATM   43  C23 UNL     1       4.476  -1.609  15.563  1.00  0.00     0.226 C 
HETATM   44  O5  UNL     1       5.077  -1.193  16.610  1.00  0.00    -0.273 OA
ATOM     45  H9  UNL     1       4.009  -1.174  13.534  1.00  0.00     0.162 HD
BRANCH  43  46
HETATM   46  C24 UNL     1       3.779  -2.913  15.671  1.00  0.00     0.042 C 
HETATM   47  C25 UNL     1       4.348  -3.949  14.755  1.00  0.00     0.024 C 
HETATM   48  C26 UNL     1       3.695  -5.265  15.003  1.00  0.00    -0.013 C 
HETATM   49  C27 UNL     1       2.209  -5.136  14.675  1.00  0.00     0.009 C 
HETATM   50  C31 UNL     1       3.765  -5.707  16.436  1.00  0.00     0.009 C 
HETATM   51  C28 UNL     1       1.605  -4.081  15.557  1.00  0.00    -0.013 C 
HETATM   52  C29 UNL     1       1.719  -4.513  17.000  1.00  0.00     0.009 C 
HETATM   53  C33 UNL     1       2.315  -2.760  15.404  1.00  0.00     0.024 C 
HETATM   54  C30 UNL     1       3.184  -4.644  17.347  1.00  0.00    -0.013 C 
HETATM   55  C32 UNL     1       3.947  -3.387  17.124  1.00  0.00     0.024 C 
ENDBRANCH  43  46
ENDBRANCH  41  42
ENDBRANCH   1  41
TORSDOF 13
ENDMDL
