MODEL 1
REMARK VINA RESULT: -9.594675537      0.000      0.000
REMARK  13 active torsions:
REMARK  status: ('A' for Active; 'I' for Inactive)
REMARK    1  A    between atoms: C2_2  and  C3_3 
REMARK    2  A    between atoms: C3_3  and  C4_4 
REMARK    3  A    between atoms: N1_10  and  C10_11 
REMARK    4  A    between atoms: C10_11  and  C11_12 
REMARK    5  A    between atoms: N5_27  and  C18_28 
REMARK    6  A    between atoms: C18_28  and  O3_29 
REMARK    7  A    between atoms: C18_28  and  C19_31 
REMARK    8  A    between atoms: C19_31  and  N6_32 
REMARK    9  A    between atoms: C19_31  and  C32_53 
REMARK       I    between atoms: N6_32  and  C20_34 
REMARK   10  A    between atoms: C20_34  and  C21_36 
REMARK   11  A    between atoms: C21_36  and  N7_37 
REMARK   12  A    between atoms: C21_36  and  C29_50 
REMARK       I    between atoms: N7_37  and  C22_39 
REMARK       I    between atoms: N9_41  and  C23_43 
REMARK   13  A    between atoms: C23_43  and  C24_45 
ROOT
HETATM    1  C18 UNL     1       4.943  -0.541  13.016  1.00  0.00     0.139 C 
ENDROOT
BRANCH   1   2
HETATM    2  N5  UNL     1       4.182   0.616  12.934  1.00  0.00    -0.336 N 
HETATM    3  C11 UNL     1       4.270   1.643  11.929  1.00  0.00     0.227 C 
HETATM    4  N2  UNL     1       3.157   2.572  12.082  1.00  0.00    -0.333 N 
HETATM    5  C12 UNL     1       1.874   2.418  11.517  1.00  0.00     0.242 C 
ATOM      6  H2  UNL     1       3.322   3.406  12.646  1.00  0.00     0.165 HD
HETATM    7  O1  UNL     1       0.910   2.994  12.110  1.00  0.00    -0.271 OA
HETATM    8  C13 UNL     1       1.532   1.651  10.302  1.00  0.00     0.174 C 
HETATM    9  C14 UNL     1       0.423   2.416   9.609  1.00  0.00     0.042 C 
HETATM   10  N3  UNL     1       1.121   0.298  10.631  1.00  0.00    -0.330 N 
HETATM   11  C15 UNL     1       0.403  -0.071  11.814  1.00  0.00     0.316 C 
ATOM     12  H3  UNL     1       1.361  -0.443   9.972  1.00  0.00     0.165 HD
HETATM   13  O2  UNL     1      -0.736  -0.674  11.662  1.00  0.00    -0.247 OA
HETATM   14  N4  UNL     1       0.850   0.179  13.145  1.00  0.00    -0.342 N 
HETATM   15  C16 UNL     1       2.081  -0.233  13.738  1.00  0.00     0.144 C 
ATOM     16  H4  UNL     1       0.217   0.712  13.741  1.00  0.00     0.164 HD
HETATM   17  C17 UNL     1       3.123   0.806  13.958  1.00  0.00     0.147 C 
BRANCH   3  18
HETATM   18  C10 UNL     1       5.586   2.372  11.953  1.00  0.00     0.105 C 
BRANCH  18  19
HETATM   19  N1  UNL     1       6.226   2.431  10.729  1.00  0.00    -0.385 N 
HETATM   20  C4  UNL     1       7.551   2.152  10.475  1.00  0.00     0.087 C 
HETATM   21  C5  UNL     1       7.818   2.337   8.962  1.00  0.00     0.029 C 
HETATM   22  C6  UNL     1       7.340   3.654   8.452  1.00  0.00    -0.015 C 
HETATM   23  C7  UNL     1       7.388   3.582   6.937  1.00  0.00     0.010 C 
HETATM   24  C8  UNL     1       5.902   3.915   8.882  1.00  0.00     0.024 C 
HETATM   25  C9  UNL     1       5.384   2.670   9.579  1.00  0.00     0.123 C 
BRANCH  20  26
HETATM   26  C3  UNL     1       7.954   0.694  10.719  1.00  0.00     0.051 C 
BRANCH  26  27
HETATM   27  C2  UNL     1       9.081   0.728  11.682  1.00  0.00    -0.035 C 
HETATM   28  C1  UNL     1       9.028   1.471  12.771  1.00  0.00     0.007 C 
ENDBRANCH  26  27
ENDBRANCH  20  26
ENDBRANCH  18  19
ENDBRANCH   3  18
ENDBRANCH   1   2
BRANCH   1  29
HETATM   29  O3  UNL     1       5.013  -1.241  11.908  1.00  0.00    -0.348 OA
ATOM     30  H3  UNL     1       5.803  -1.759  11.808  1.00  0.00     0.219 HD
ENDBRANCH   1  29
BRANCH   1  31
HETATM   31  C19 UNL     1       5.694  -1.129  14.127  1.00  0.00     0.162 C 
BRANCH  31  32
HETATM   32  N6  UNL     1       5.038  -2.384  14.534  1.00  0.00    -0.347 N 
HETATM   33  C20 UNL     1       4.663  -2.657  15.866  1.00  0.00     0.241 C 
HETATM   34  O4  UNL     1       4.846  -1.885  16.837  1.00  0.00    -0.271 OA
ATOM     35  H6  UNL     1       4.846  -3.087  13.820  1.00  0.00     0.163 HD
BRANCH  33  36
HETATM   36  C21 UNL     1       3.990  -3.986  16.137  1.00  0.00     0.179 C 
BRANCH  36  37
HETATM   37  N7  UNL     1       4.450  -4.526  17.375  1.00  0.00    -0.351 N 
HETATM   38  C22 UNL     1       5.788  -5.022  17.604  1.00  0.00     0.191 C 
HETATM   39  N8  UNL     1       5.957  -6.137  18.462  1.00  0.00    -0.063 NA
HETATM   40  N9  UNL     1       6.784  -4.475  17.061  1.00  0.00    -0.301 N 
HETATM   41  C23 UNL     1       8.140  -4.700  17.077  1.00  0.00     0.228 C 
ATOM     42  H9  UNL     1       6.524  -3.682  16.474  1.00  0.00     0.171 HD
HETATM   43  O5  UNL     1       8.842  -3.918  16.320  1.00  0.00    -0.273 OA
ATOM     44  H7  UNL     1       3.789  -4.566  18.152  1.00  0.00     0.163 HD
BRANCH  41  45
HETATM   45  C24 UNL     1       8.903  -5.717  17.844  1.00  0.00     0.078 C 
HETATM   46  C25 UNL     1       8.681  -7.087  17.197  1.00  0.00     0.014 C 
HETATM   47  C26 UNL     1       9.909  -7.255  16.305  1.00  0.00     0.001 C 
HETATM   48  C27 UNL     1      11.014  -6.679  17.179  1.00  0.00     0.001 C 
HETATM   49  C28 UNL     1      10.372  -5.497  17.837  1.00  0.00     0.014 C 
ENDBRANCH  41  45
ENDBRANCH  36  37
BRANCH  36  50
HETATM   50  C29 UNL     1       2.492  -3.749  16.173  1.00  0.00     0.009 C 
HETATM   51  C30 UNL     1       1.660  -4.773  15.468  1.00  0.00     0.012 C 
HETATM   52  C31 UNL     1       1.998  -3.672  17.620  1.00  0.00     0.012 C 
ENDBRANCH  36  50
ENDBRANCH  33  36
ENDBRANCH  31  32
BRANCH  31  53
HETATM   53  C32 UNL     1       7.089  -1.584  13.670  1.00  0.00     0.008 C 
HETATM   54  C33 UNL     1       8.170  -1.244  14.644  1.00  0.00     0.012 C 
HETATM   55  C34 UNL     1       7.090  -3.104  13.531  1.00  0.00     0.012 C 
ENDBRANCH  31  53
ENDBRANCH   1  31
TORSDOF 13
ENDMDL
MODEL 2
REMARK VINA RESULT: -9.455898149      2.913     10.681
REMARK  13 active torsions:
REMARK  status: ('A' for Active; 'I' for Inactive)
REMARK    1  A    between atoms: C2_2  and  C3_3 
REMARK    2  A    between atoms: C3_3  and  C4_4 
REMARK    3  A    between atoms: N1_10  and  C10_11 
REMARK    4  A    between atoms: C10_11  and  C11_12 
REMARK    5  A    between atoms: N5_27  and  C18_28 
REMARK    6  A    between atoms: C18_28  and  O3_29 
REMARK    7  A    between atoms: C18_28  and  C19_31 
REMARK    8  A    between atoms: C19_31  and  N6_32 
REMARK    9  A    between atoms: C19_31  and  C32_53 
REMARK       I    between atoms: N6_32  and  C20_34 
REMARK   10  A    between atoms: C20_34  and  C21_36 
REMARK   11  A    between atoms: C21_36  and  N7_37 
REMARK   12  A    between atoms: C21_36  and  C29_50 
REMARK       I    between atoms: N7_37  and  C22_39 
REMARK       I    between atoms: N9_41  and  C23_43 
REMARK   13  A    between atoms: C23_43  and  C24_45 
ROOT
HETATM    1  C18 UNL     1       6.780   1.103  11.690  1.00  0.00     0.139 C 
ENDROOT
BRANCH   1   2
HETATM    2  N5  UNL     1       6.222   0.935  12.950  1.00  0.00    -0.336 N 
HETATM    3  C11 UNL     1       4.878   0.522  13.256  1.00  0.00     0.227 C 
HETATM    4  N2  UNL     1       4.760   0.262  14.684  1.00  0.00    -0.333 N 
HETATM    5  C12 UNL     1       5.061  -0.957  15.326  1.00  0.00     0.242 C 
ATOM      6  H2  UNL     1       4.432   1.029  15.271  1.00  0.00     0.165 HD
HETATM    7  O1  UNL     1       5.388  -0.899  16.552  1.00  0.00    -0.271 OA
HETATM    8  C13 UNL     1       5.038  -2.303  14.718  1.00  0.00     0.174 C 
HETATM    9  C14 UNL     1       4.544  -3.251  15.791  1.00  0.00     0.042 C 
HETATM   10  N3  UNL     1       6.351  -2.685  14.232  1.00  0.00    -0.330 N 
HETATM   11  C15 UNL     1       7.589  -2.310  14.848  1.00  0.00     0.316 C 
ATOM     12  H3  UNL     1       6.395  -3.262  13.392  1.00  0.00     0.165 HD
HETATM   13  O2  UNL     1       8.388  -3.263  15.219  1.00  0.00    -0.247 OA
HETATM   14  N4  UNL     1       8.003  -0.967  15.083  1.00  0.00    -0.342 N 
HETATM   15  C16 UNL     1       8.139   0.080  14.122  1.00  0.00     0.144 C 
ATOM     16  H4  UNL     1       8.228  -0.726  16.048  1.00  0.00     0.164 HD
HETATM   17  C17 UNL     1       7.111   1.155  14.120  1.00  0.00     0.147 C 
BRANCH   3  18
HETATM   18  C10 UNL     1       3.844   1.516  12.802  1.00  0.00     0.105 C 
BRANCH  18  19
HETATM   19  N1  UNL     1       2.573   0.991  12.659  1.00  0.00    -0.385 N 
HETATM   20  C4  UNL     1       1.474   1.624  12.121  1.00  0.00     0.087 C 
HETATM   21  C5  UNL     1       0.274   0.648  12.151  1.00  0.00     0.029 C 
HETATM   22  C6  UNL     1       0.059   0.043  13.496  1.00  0.00    -0.015 C 
HETATM   23  C7  UNL     1      -0.931  -1.093  13.316  1.00  0.00     0.010 C 
HETATM   24  C8  UNL     1       1.359  -0.528  14.050  1.00  0.00     0.024 C 
HETATM   25  C9  UNL     1       2.422  -0.412  12.973  1.00  0.00     0.123 C 
BRANCH  20  26
HETATM   26  C3  UNL     1       1.600   1.967  10.633  1.00  0.00     0.051 C 
BRANCH  26  27
HETATM   27  C2  UNL     1       0.788   3.189  10.417  1.00  0.00    -0.035 C 
HETATM   28  C1  UNL     1      -0.370   3.139   9.787  1.00  0.00     0.007 C 
ENDBRANCH  26  27
ENDBRANCH  20  26
ENDBRANCH  18  19
ENDBRANCH   3  18
ENDBRANCH   1   2
BRANCH   1  29
HETATM   29  O3  UNL     1       6.904   0.003  10.985  1.00  0.00    -0.348 OA
ATOM     30  H3  UNL     1       7.481   0.069  10.233  1.00  0.00     0.219 HD
ENDBRANCH   1  29
BRANCH   1  31
HETATM   31  C19 UNL     1       7.259   2.299  10.995  1.00  0.00     0.162 C 
BRANCH  31  32
HETATM   32  N6  UNL     1       6.691   2.320   9.636  1.00  0.00    -0.347 N 
HETATM   33  C20 UNL     1       7.409   2.776   8.511  1.00  0.00     0.241 C 
HETATM   34  O4  UNL     1       8.584   3.212   8.536  1.00  0.00    -0.271 OA
ATOM     35  H6  UNL     1       5.734   1.990   9.503  1.00  0.00     0.163 HD
BRANCH  33  36
HETATM   36  C21 UNL     1       6.700   2.733   7.173  1.00  0.00     0.179 C 
BRANCH  36  37
HETATM   37  N7  UNL     1       6.383   4.055   6.742  1.00  0.00    -0.351 N 
HETATM   38  C22 UNL     1       5.089   4.464   6.242  1.00  0.00     0.191 C 
HETATM   39  N8  UNL     1       5.042   5.433   5.209  1.00  0.00    -0.063 NA
HETATM   40  N9  UNL     1       4.028   3.978   6.713  1.00  0.00    -0.301 N 
HETATM   41  C23 UNL     1       2.688   4.153   6.462  1.00  0.00     0.228 C 
ATOM     42  H9  UNL     1       4.203   3.298   7.453  1.00  0.00     0.171 HD
HETATM   43  O5  UNL     1       1.890   3.403   7.154  1.00  0.00    -0.273 OA
ATOM     44  H7  UNL     1       7.118   4.761   6.791  1.00  0.00     0.163 HD
BRANCH  41  45
HETATM   45  C24 UNL     1       2.037   5.084   5.505  1.00  0.00     0.078 C 
HETATM   46  C25 UNL     1       0.683   4.499   5.095  1.00  0.00     0.014 C 
HETATM   47  C26 UNL     1      -0.300   5.215   6.018  1.00  0.00     0.001 C 
HETATM   48  C27 UNL     1       0.263   6.629   6.043  1.00  0.00     0.001 C 
HETATM   49  C28 UNL     1       1.746   6.424   6.076  1.00  0.00     0.014 C 
ENDBRANCH  41  45
ENDBRANCH  36  37
BRANCH  36  50
HETATM   50  C29 UNL     1       7.620   2.047   6.182  1.00  0.00     0.009 C 
HETATM   51  C30 UNL     1       6.987   0.977   5.348  1.00  0.00     0.012 C 
HETATM   52  C31 UNL     1       8.235   3.072   5.226  1.00  0.00     0.012 C 
ENDBRANCH  36  50
ENDBRANCH  33  36
ENDBRANCH  31  32
BRANCH  31  53
HETATM   53  C32 UNL     1       6.695   3.575  11.640  1.00  0.00     0.008 C 
HETATM   54  C33 UNL     1       7.670   4.707  11.662  1.00  0.00     0.012 C 
HETATM   55  C34 UNL     1       5.494   4.049  10.827  1.00  0.00     0.012 C 
ENDBRANCH  31  53
ENDBRANCH   1  31
TORSDOF 13
ENDMDL
MODEL 3
REMARK VINA RESULT: -9.433988896      3.498     11.425
REMARK  13 active torsions:
REMARK  status: ('A' for Active; 'I' for Inactive)
REMARK    1  A    between atoms: C2_2  and  C3_3 
REMARK    2  A    between atoms: C3_3  and  C4_4 
REMARK    3  A    between atoms: N1_10  and  C10_11 
REMARK    4  A    between atoms: C10_11  and  C11_12 
REMARK    5  A    between atoms: N5_27  and  C18_28 
REMARK    6  A    between atoms: C18_28  and  O3_29 
REMARK    7  A    between atoms: C18_28  and  C19_31 
REMARK    8  A    between atoms: C19_31  and  N6_32 
REMARK    9  A    between atoms: C19_31  and  C32_53 
REMARK       I    between atoms: N6_32  and  C20_34 
REMARK   10  A    between atoms: C20_34  and  C21_36 
REMARK   11  A    between atoms: C21_36  and  N7_37 
REMARK   12  A    between atoms: C21_36  and  C29_50 
REMARK       I    between atoms: N7_37  and  C22_39 
REMARK       I    between atoms: N9_41  and  C23_43 
REMARK   13  A    between atoms: C23_43  and  C24_45 
ROOT
HETATM    1  C18 UNL     1       5.108  -5.688  16.630  1.00  0.00     0.139 C 
ENDROOT
BRANCH   1   2
HETATM    2  N5  UNL     1       5.668  -6.522  17.587  1.00  0.00    -0.336 N 
HETATM    3  C11 UNL     1       5.515  -7.949  17.692  1.00  0.00     0.227 C 
HETATM    4  N2  UNL     1       6.433  -8.466  18.698  1.00  0.00    -0.333 N 
HETATM    5  C12 UNL     1       7.776  -8.835  18.474  1.00  0.00     0.242 C 
ATOM      6  H2  UNL     1       6.073  -8.570  19.647  1.00  0.00     0.165 HD
HETATM    7  O1  UNL     1       8.562  -8.784  19.469  1.00  0.00    -0.271 OA
HETATM    8  C13 UNL     1       8.367  -9.275  17.194  1.00  0.00     0.174 C 
HETATM    9  C14 UNL     1       9.397 -10.331  17.537  1.00  0.00     0.042 C 
HETATM   10  N3  UNL     1       8.962  -8.162  16.477  1.00  0.00    -0.330 N 
HETATM   11  C15 UNL     1       9.605  -7.043  17.099  1.00  0.00     0.316 C 
ATOM     12  H3  UNL     1       8.920  -8.178  15.459  1.00  0.00     0.165 HD
HETATM   13  O2  UNL     1      10.838  -6.802  16.776  1.00  0.00    -0.247 OA
HETATM   14  N4  UNL     1       8.986  -6.177  18.048  1.00  0.00    -0.342 N 
HETATM   15  C16 UNL     1       7.786  -5.422  17.880  1.00  0.00     0.144 C 
ATOM     16  H4  UNL     1       9.455  -6.086  18.949  1.00  0.00     0.164 HD
HETATM   17  C17 UNL     1       6.567  -5.895  18.590  1.00  0.00     0.147 C 
BRANCH   3  18
HETATM   18  C10 UNL     1       4.099  -8.362  17.992  1.00  0.00     0.105 C 
BRANCH  18  19
HETATM   19  N1  UNL     1       3.627  -9.393  17.200  1.00  0.00    -0.385 N 
HETATM   20  C4  UNL     1       2.626 -10.284  17.515  1.00  0.00     0.087 C 
HETATM   21  C5  UNL     1       2.426 -11.250  16.323  1.00  0.00     0.029 C 
HETATM   22  C6  UNL     1       3.702 -11.869  15.865  1.00  0.00    -0.015 C 
HETATM   23  C7  UNL     1       3.414 -12.540  14.534  1.00  0.00     0.010 C 
HETATM   24  C8  UNL     1       4.776 -10.809  15.653  1.00  0.00     0.024 C 
HETATM   25  C9  UNL     1       4.139  -9.446  15.849  1.00  0.00     0.123 C 
BRANCH  20  26
HETATM   26  C3  UNL     1       1.239  -9.654  17.682  1.00  0.00     0.051 C 
BRANCH  26  27
HETATM   27  C2  UNL     1       0.864  -9.843  19.104  1.00  0.00    -0.035 C 
HETATM   28  C1  UNL     1       1.513 -10.693  19.877  1.00  0.00     0.007 C 
ENDBRANCH  26  27
ENDBRANCH  20  26
ENDBRANCH  18  19
ENDBRANCH   3  18
ENDBRANCH   1   2
BRANCH   1  29
HETATM   29  O3  UNL     1       5.015  -6.205  15.427  1.00  0.00    -0.348 OA
ATOM     30  H3  UNL     1       4.261  -5.920  14.923  1.00  0.00     0.219 HD
ENDBRANCH   1  29
BRANCH   1  31
HETATM   31  C19 UNL     1       4.593  -4.320  16.719  1.00  0.00     0.162 C 
BRANCH  31  32
HETATM   32  N6  UNL     1       5.290  -3.482  15.729  1.00  0.00    -0.347 N 
HETATM   33  C20 UNL     1       5.596  -2.124  15.952  1.00  0.00     0.241 C 
HETATM   34  O4  UNL     1       5.312  -1.484  16.992  1.00  0.00    -0.271 OA
ATOM     35  H6  UNL     1       5.565  -3.904  14.841  1.00  0.00     0.163 HD
BRANCH  33  36
HETATM   36  C21 UNL     1       6.324  -1.387  14.847  1.00  0.00     0.179 C 
BRANCH  36  37
HETATM   37  N7  UNL     1       5.801  -0.067  14.709  1.00  0.00    -0.351 N 
HETATM   38  C22 UNL     1       4.488   0.241  14.188  1.00  0.00     0.191 C 
HETATM   39  N8  UNL     1       4.330   1.417  13.413  1.00  0.00    -0.063 NA
HETATM   40  N9  UNL     1       3.505  -0.510  14.421  1.00  0.00    -0.301 N 
HETATM   41  C23 UNL     1       2.173  -0.494  14.082  1.00  0.00     0.228 C 
ATOM     42  H9  UNL     1       3.755  -1.316  14.994  1.00  0.00     0.171 HD
HETATM   43  O5  UNL     1       1.483  -1.510  14.493  1.00  0.00    -0.273 OA
ATOM     44  H7  UNL     1       6.393   0.712  14.997  1.00  0.00     0.163 HD
BRANCH  41  45
HETATM   45  C24 UNL     1       1.425   0.530  13.309  1.00  0.00     0.078 C 
HETATM   46  C25 UNL     1       1.802   0.401  11.831  1.00  0.00     0.014 C 
HETATM   47  C26 UNL     1       0.670  -0.447  11.255  1.00  0.00     0.001 C 
HETATM   48  C27 UNL     1      -0.545   0.115  11.978  1.00  0.00     0.001 C 
HETATM   49  C28 UNL     1      -0.051   0.367  13.368  1.00  0.00     0.014 C 
ENDBRANCH  41  45
ENDBRANCH  36  37
BRANCH  36  50
HETATM   50  C29 UNL     1       7.798  -1.351  15.205  1.00  0.00     0.009 C 
HETATM   51  C30 UNL     1       8.494  -2.674  15.204  1.00  0.00     0.012 C 
HETATM   52  C31 UNL     1       8.557  -0.429  14.247  1.00  0.00     0.012 C 
ENDBRANCH  36  50
ENDBRANCH  33  36
ENDBRANCH  31  32
BRANCH  31  53
HETATM   53  C32 UNL     1       3.123  -4.254  16.274  1.00  0.00     0.008 C 
HETATM   54  C33 UNL     1       2.443  -5.585  16.282  1.00  0.00     0.012 C 
HETATM   55  C34 UNL     1       2.354  -3.366  17.247  1.00  0.00     0.012 C 
ENDBRANCH  31  53
ENDBRANCH   1  31
TORSDOF 13
ENDMDL
MODEL 4
REMARK VINA RESULT: -9.364683108      2.897     11.163
REMARK  13 active torsions:
REMARK  status: ('A' for Active; 'I' for Inactive)
REMARK    1  A    between atoms: C2_2  and  C3_3 
REMARK    2  A    between atoms: C3_3  and  C4_4 
REMARK    3  A    between atoms: N1_10  and  C10_11 
REMARK    4  A    between atoms: C10_11  and  C11_12 
REMARK    5  A    between atoms: N5_27  and  C18_28 
REMARK    6  A    between atoms: C18_28  and  O3_29 
REMARK    7  A    between atoms: C18_28  and  C19_31 
REMARK    8  A    between atoms: C19_31  and  N6_32 
REMARK    9  A    between atoms: C19_31  and  C32_53 
REMARK       I    between atoms: N6_32  and  C20_34 
REMARK   10  A    between atoms: C20_34  and  C21_36 
REMARK   11  A    between atoms: C21_36  and  N7_37 
REMARK   12  A    between atoms: C21_36  and  C29_50 
REMARK       I    between atoms: N7_37  and  C22_39 
REMARK       I    between atoms: N9_41  and  C23_43 
REMARK   13  A    between atoms: C23_43  and  C24_45 
ROOT
HETATM    1  C18 UNL     1       4.669  -6.312  16.343  1.00  0.00     0.139 C 
ENDROOT
BRANCH   1   2
HETATM    2  N5  UNL     1       5.684  -6.366  17.287  1.00  0.00    -0.336 N 
HETATM    3  C11 UNL     1       6.454  -7.520  17.670  1.00  0.00     0.227 C 
HETATM    4  N2  UNL     1       7.556  -7.108  18.528  1.00  0.00    -0.333 N 
HETATM    5  C12 UNL     1       8.822  -6.668  18.088  1.00  0.00     0.242 C 
ATOM      6  H2  UNL     1       7.399  -7.142  19.536  1.00  0.00     0.165 HD
HETATM    7  O1  UNL     1       9.469  -5.901  18.866  1.00  0.00    -0.271 OA
HETATM    8  C13 UNL     1       9.475  -7.005  16.807  1.00  0.00     0.174 C 
HETATM    9  C14 UNL     1      10.958  -7.120  17.099  1.00  0.00     0.042 C 
HETATM   10  N3  UNL     1       9.207  -5.999  15.797  1.00  0.00    -0.330 N 
HETATM   11  C15 UNL     1       9.057  -4.599  16.060  1.00  0.00     0.316 C 
ATOM     12  H3  UNL     1       9.120  -6.311  14.830  1.00  0.00     0.165 HD
HETATM   13  O2  UNL     1       9.853  -3.782  15.441  1.00  0.00    -0.247 OA
HETATM   14  N4  UNL     1       8.097  -4.041  16.954  1.00  0.00    -0.342 N 
HETATM   15  C16 UNL     1       6.680  -4.208  16.920  1.00  0.00     0.144 C 
ATOM     16  H4  UNL     1       8.465  -3.455  17.703  1.00  0.00     0.164 HD
HETATM   17  C17 UNL     1       6.063  -5.090  17.948  1.00  0.00     0.147 C 
BRANCH   3  18
HETATM   18  C10 UNL     1       5.621  -8.582  18.336  1.00  0.00     0.105 C 
BRANCH  18  19
HETATM   19  N1  UNL     1       5.401  -9.704  17.558  1.00  0.00    -0.385 N 
HETATM   20  C4  UNL     1       6.347 -10.426  16.865  1.00  0.00     0.087 C 
HETATM   21  C5  UNL     1       5.646 -11.606  16.150  1.00  0.00     0.029 C 
HETATM   22  C6  UNL     1       4.469 -11.172  15.345  1.00  0.00    -0.015 C 
HETATM   23  C7  UNL     1       3.715 -12.430  14.953  1.00  0.00     0.010 C 
HETATM   24  C8  UNL     1       3.543 -10.286  16.170  1.00  0.00     0.024 C 
HETATM   25  C9  UNL     1       4.065 -10.254  17.594  1.00  0.00     0.123 C 
BRANCH  20  26
HETATM   26  C3  UNL     1       7.385 -11.128  17.747  1.00  0.00     0.051 C 
BRANCH  26  27
HETATM   27  C2  UNL     1       8.712 -10.656  17.284  1.00  0.00    -0.035 C 
HETATM   28  C1  UNL     1       9.721 -10.518  18.123  1.00  0.00     0.007 C 
ENDBRANCH  26  27
ENDBRANCH  20  26
ENDBRANCH  18  19
ENDBRANCH   3  18
ENDBRANCH   1   2
BRANCH   1  29
HETATM   29  O3  UNL     1       4.740  -7.219  15.396  1.00  0.00    -0.348 OA
ATOM     30  H3  UNL     1       5.591  -7.307  14.985  1.00  0.00     0.219 HD
ENDBRANCH   1  29
BRANCH   1  31
HETATM   31  C19 UNL     1       3.516  -5.419  16.210  1.00  0.00     0.162 C 
BRANCH  31  32
HETATM   32  N6  UNL     1       3.754  -4.496  15.088  1.00  0.00    -0.347 N 
HETATM   33  C20 UNL     1       3.880  -3.101  15.254  1.00  0.00     0.241 C 
HETATM   34  O4  UNL     1       3.800  -2.498  16.350  1.00  0.00    -0.271 OA
ATOM     35  H6  UNL     1       3.832  -4.884  14.147  1.00  0.00     0.163 HD
BRANCH  33  36
HETATM   36  C21 UNL     1       4.132  -2.275  14.010  1.00  0.00     0.179 C 
BRANCH  36  37
HETATM   37  N7  UNL     1       4.084  -0.885  14.326  1.00  0.00    -0.351 N 
HETATM   38  C22 UNL     1       3.301   0.091  13.601  1.00  0.00     0.191 C 
HETATM   39  N8  UNL     1       3.829   1.397  13.446  1.00  0.00    -0.063 NA
HETATM   40  N9  UNL     1       2.175  -0.206  13.122  1.00  0.00    -0.301 N 
HETATM   41  C23 UNL     1       1.218   0.473  12.406  1.00  0.00     0.228 C 
ATOM     42  H9  UNL     1       1.913  -1.174  13.309  1.00  0.00     0.171 HD
HETATM   43  O5  UNL     1       0.189  -0.228  12.052  1.00  0.00    -0.273 OA
ATOM     44  H7  UNL     1       4.639  -0.556  15.116  1.00  0.00     0.163 HD
BRANCH  41  45
HETATM   45  C24 UNL     1       1.209   1.898  11.988  1.00  0.00     0.078 C 
HETATM   46  C25 UNL     1       2.033   2.037  10.705  1.00  0.00     0.014 C 
HETATM   47  C26 UNL     1       0.973   2.006   9.606  1.00  0.00     0.001 C 
HETATM   48  C27 UNL     1      -0.147   2.830  10.223  1.00  0.00     0.001 C 
HETATM   49  C28 UNL     1      -0.143   2.420  11.663  1.00  0.00     0.014 C 
ENDBRANCH  41  45
ENDBRANCH  36  37
BRANCH  36  50
HETATM   50  C29 UNL     1       5.494  -2.659  13.465  1.00  0.00     0.009 C 
HETATM   51  C30 UNL     1       5.680  -2.462  11.994  1.00  0.00     0.012 C 
HETATM   52  C31 UNL     1       6.596  -1.870  14.178  1.00  0.00     0.012 C 
ENDBRANCH  36  50
ENDBRANCH  33  36
ENDBRANCH  31  32
BRANCH  31  53
HETATM   53  C32 UNL     1       2.263  -6.197  15.776  1.00  0.00     0.008 C 
HETATM   54  C33 UNL     1       1.775  -7.158  16.811  1.00  0.00     0.012 C 
HETATM   55  C34 UNL     1       1.128  -5.206  15.531  1.00  0.00     0.012 C 
ENDBRANCH  31  53
ENDBRANCH   1  31
TORSDOF 13
ENDMDL
MODEL 5
REMARK VINA RESULT: -9.320738588      3.321     11.560
REMARK  13 active torsions:
REMARK  status: ('A' for Active; 'I' for Inactive)
REMARK    1  A    between atoms: C2_2  and  C3_3 
REMARK    2  A    between atoms: C3_3  and  C4_4 
REMARK    3  A    between atoms: N1_10  and  C10_11 
REMARK    4  A    between atoms: C10_11  and  C11_12 
REMARK    5  A    between atoms: N5_27  and  C18_28 
REMARK    6  A    between atoms: C18_28  and  O3_29 
REMARK    7  A    between atoms: C18_28  and  C19_31 
REMARK    8  A    between atoms: C19_31  and  N6_32 
REMARK    9  A    between atoms: C19_31  and  C32_53 
REMARK       I    between atoms: N6_32  and  C20_34 
REMARK   10  A    between atoms: C20_34  and  C21_36 
REMARK   11  A    between atoms: C21_36  and  N7_37 
REMARK   12  A    between atoms: C21_36  and  C29_50 
REMARK       I    between atoms: N7_37  and  C22_39 
REMARK       I    between atoms: N9_41  and  C23_43 
REMARK   13  A    between atoms: C23_43  and  C24_45 
ROOT
HETATM    1  C18 UNL     1       5.475  -5.404  16.526  1.00  0.00     0.139 C 
ENDROOT
BRANCH   1   2
HETATM    2  N5  UNL     1       5.949  -6.280  17.491  1.00  0.00    -0.336 N 
HETATM    3  C11 UNL     1       5.732  -7.702  17.556  1.00  0.00     0.227 C 
HETATM    4  N2  UNL     1       6.574  -8.278  18.595  1.00  0.00    -0.333 N 
HETATM    5  C12 UNL     1       7.910  -8.698  18.432  1.00  0.00     0.242 C 
ATOM      6  H2  UNL     1       6.161  -8.386  19.522  1.00  0.00     0.165 HD
HETATM    7  O1  UNL     1       8.645  -8.701  19.468  1.00  0.00    -0.271 OA
HETATM    8  C13 UNL     1       8.549  -9.136  17.175  1.00  0.00     0.174 C 
HETATM    9  C14 UNL     1       9.516 -10.241  17.546  1.00  0.00     0.042 C 
HETATM   10  N3  UNL     1       9.227  -8.034  16.516  1.00  0.00    -0.330 N 
HETATM   11  C15 UNL     1       9.881  -6.956  17.195  1.00  0.00     0.316 C 
ATOM     12  H3  UNL     1       9.237  -8.027  15.496  1.00  0.00     0.165 HD
HETATM   13  O2  UNL     1      11.139  -6.761  16.941  1.00  0.00    -0.247 OA
HETATM   14  N4  UNL     1       9.249  -6.085  18.130  1.00  0.00    -0.342 N 
HETATM   15  C16 UNL     1       8.092  -5.277  17.918  1.00  0.00     0.144 C 
ATOM     16  H4  UNL     1       9.673  -6.033  19.056  1.00  0.00     0.164 HD
HETATM   17  C17 UNL     1       6.819  -5.713  18.554  1.00  0.00     0.147 C 
BRANCH   3  18
HETATM   18  C10 UNL     1       4.287  -8.061  17.773  1.00  0.00     0.105 C 
BRANCH  18  19
HETATM   19  N1  UNL     1       3.850  -9.141  17.027  1.00  0.00    -0.385 N 
HETATM   20  C4  UNL     1       3.875 -10.466  17.400  1.00  0.00     0.087 C 
HETATM   21  C5  UNL     1       3.272 -11.316  16.256  1.00  0.00     0.029 C 
HETATM   22  C6  UNL     1       3.892 -11.021  14.933  1.00  0.00    -0.015 C 
HETATM   23  C7  UNL     1       3.023 -11.685  13.881  1.00  0.00     0.010 C 
HETATM   24  C8  UNL     1       3.917  -9.520  14.667  1.00  0.00     0.024 C 
HETATM   25  C9  UNL     1       3.168  -8.829  15.791  1.00  0.00     0.123 C 
BRANCH  20  26
HETATM   26  C3  UNL     1       2.978 -10.810  18.593  1.00  0.00     0.051 C 
BRANCH  26  27
HETATM   27  C2  UNL     1       1.592 -10.867  18.069  1.00  0.00    -0.035 C 
HETATM   28  C1  UNL     1       0.662 -10.037  18.503  1.00  0.00     0.007 C 
ENDBRANCH  26  27
ENDBRANCH  20  26
ENDBRANCH  18  19
ENDBRANCH   3  18
ENDBRANCH   1   2
BRANCH   1  29
HETATM   29  O3  UNL     1       5.934  -5.608  15.314  1.00  0.00    -0.348 OA
ATOM     30  H3  UNL     1       6.589  -4.986  15.021  1.00  0.00     0.219 HD
ENDBRANCH   1  29
BRANCH   1  31
HETATM   31  C19 UNL     1       4.539  -4.280  16.614  1.00  0.00     0.162 C 
BRANCH  31  32
HETATM   32  N6  UNL     1       4.548  -3.551  15.334  1.00  0.00    -0.347 N 
HETATM   33  C20 UNL     1       4.883  -2.185  15.232  1.00  0.00     0.241 C 
HETATM   34  O4  UNL     1       5.198  -1.447  16.196  1.00  0.00    -0.271 OA
ATOM     35  H6  UNL     1       4.302  -4.058  14.484  1.00  0.00     0.163 HD
BRANCH  33  36
HETATM   36  C21 UNL     1       4.858  -1.568  13.849  1.00  0.00     0.179 C 
BRANCH  36  37
HETATM   37  N7  UNL     1       4.797  -0.146  13.947  1.00  0.00    -0.351 N 
HETATM   38  C22 UNL     1       3.836   0.681  13.251  1.00  0.00     0.191 C 
HETATM   39  N8  UNL     1       4.252   1.955  12.791  1.00  0.00    -0.063 NA
HETATM   40  N9  UNL     1       2.656   0.285  13.062  1.00  0.00    -0.301 N 
HETATM   41  C23 UNL     1       1.542   0.817  12.457  1.00  0.00     0.228 C 
ATOM     42  H9  UNL     1       2.488  -0.644  13.447  1.00  0.00     0.171 HD
HETATM   43  O5  UNL     1       0.503   0.044  12.431  1.00  0.00    -0.273 OA
ATOM     44  H7  UNL     1       5.477   0.320  14.548  1.00  0.00     0.163 HD
BRANCH  41  45
HETATM   45  C24 UNL     1       1.374   2.153  11.832  1.00  0.00     0.078 C 
HETATM   46  C25 UNL     1       2.022   2.130  10.445  1.00  0.00     0.014 C 
HETATM   47  C26 UNL     1       0.841   1.864   9.513  1.00  0.00     0.001 C 
HETATM   48  C27 UNL     1      -0.254   2.713  10.141  1.00  0.00     0.001 C 
HETATM   49  C28 UNL     1      -0.043   2.540  11.613  1.00  0.00     0.014 C 
ENDBRANCH  41  45
ENDBRANCH  36  37
BRANCH  36  50
HETATM   50  C29 UNL     1       6.114  -2.007  13.121  1.00  0.00     0.009 C 
HETATM   51  C30 UNL     1       6.771  -0.959  12.280  1.00  0.00     0.012 C 
HETATM   52  C31 UNL     1       7.157  -2.518  14.118  1.00  0.00     0.012 C 
ENDBRANCH  36  50
ENDBRANCH  33  36
ENDBRANCH  31  32
BRANCH  31  53
HETATM   53  C32 UNL     1       3.090  -4.777  16.734  1.00  0.00     0.008 C 
HETATM   54  C33 UNL     1       2.160  -3.755  17.303  1.00  0.00     0.012 C 
HETATM   55  C34 UNL     1       2.568  -5.115  15.341  1.00  0.00     0.012 C 
ENDBRANCH  31  53
ENDBRANCH   1  31
TORSDOF 13
ENDMDL
