MODEL 1
REMARK VINA RESULT: -6.731609985      0.000      0.000
REMARK  14 active torsions:
REMARK  status: ('A' for Active; 'I' for Inactive)
REMARK    1  A    between atoms: C2_2  and  C4_4 
REMARK    2  A    between atoms: C4_4  and  C5_5 
REMARK    3  A    between atoms: C7_10  and  C8_11 
REMARK    4  A    between atoms: C8_11  and  C9_12 
REMARK    5  A    between atoms: C9_12  and  N2_13 
REMARK    6  A    between atoms: C14_20  and  C15_21 
REMARK    7  A    between atoms: C18_26  and  O2_27 
REMARK    8  A    between atoms: C25_37  and  C26_38 
REMARK    9  A    between atoms: C29_43  and  O4_44 
REMARK   10  A    between atoms: C30_46  and  C31_47 
REMARK   11  A    between atoms: C31_47  and  C32_48 
REMARK   12  A    between atoms: C32_48  and  C33_49 
REMARK   13  A    between atoms: C33_49  and  C34_50 
REMARK   14  A    between atoms: C34_50  and  N7_51 
ROOT
HETATM    1  C5  UNL     1       2.475   3.239  10.524  1.00  0.00     0.177 C 
HETATM    2  N1  UNL     1       3.741   3.942  10.562  1.00  0.00    -0.346 N 
ATOM      3  H1  UNL     1       3.813   4.673  11.270  1.00  0.00     0.163 HD
HETATM    4  C6  UNL     1       4.870   3.767   9.778  1.00  0.00     0.240 C 
HETATM    5  O1  UNL     1       5.320   4.809   9.179  1.00  0.00    -0.271 OA
HETATM    6  C7  UNL     1       5.627   2.516   9.546  1.00  0.00     0.171 C 
HETATM    7  N3  UNL     1       6.722   2.742   8.631  1.00  0.00    -0.404 N 
ATOM      8  H3  UNL     1       7.154   3.659   8.515  1.00  0.00     0.154 HD
HETATM    9  C13 UNL     1       7.155   1.605   7.908  1.00  0.00     0.167 C 
HETATM   10  C14 UNL     1       6.825   1.604   6.433  1.00  0.00     0.009 C 
HETATM   11  N4  UNL     1       6.203   2.805   6.021  1.00  0.00    -0.344 N 
ATOM     12  H4  UNL     1       5.327   2.936   6.525  1.00  0.00     0.167 HD
HETATM   13  C18 UNL     1       6.411   3.859   5.148  1.00  0.00     0.139 C 
HETATM   14  C19 UNL     1       7.089   5.153   5.217  1.00  0.00     0.162 C 
HETATM   15  C20 UNL     1       8.056   5.337   6.366  1.00  0.00     0.034 C 
HETATM   16  C21 UNL     1       8.776   6.641   6.148  1.00  0.00     0.004 C 
HETATM   17  C22 UNL     1       8.503   7.293   4.831  1.00  0.00     0.020 C 
HETATM   18  C23 UNL     1       7.026   7.484   4.568  1.00  0.00     0.127 C 
HETATM   19  N5  UNL     1       6.262   6.333   5.137  1.00  0.00    -0.338 N 
HETATM   20  C24 UNL     1       4.958   6.601   5.496  1.00  0.00     0.243 C 
HETATM   21  O3  UNL     1       4.768   7.576   6.331  1.00  0.00    -0.271 OA
HETATM   22  C25 UNL     1       3.662   5.955   5.092  1.00  0.00     0.179 C 
HETATM   23  N6  UNL     1       2.541   6.515   5.827  1.00  0.00    -0.359 N 
ATOM     24  H6  UNL     1       1.970   7.193   5.322  1.00  0.00     0.162 HD
HETATM   25  C29 UNL     1       2.145   6.241   7.139  1.00  0.00     0.135 C 
HETATM   26  C30 UNL     1       1.747   4.947   7.712  1.00  0.00     0.159 C 
HETATM   27  N8  UNL     1       1.400   5.138   9.134  1.00  0.00    -0.347 N 
ATOM     28  H8  UNL     1       1.149   6.086   9.414  1.00  0.00     0.163 HD
HETATM   29  C35 UNL     1       1.376   4.171  10.134  1.00  0.00     0.241 C 
HETATM   30  O5  UNL     1       0.272   4.081  10.793  1.00  0.00    -0.271 OA
ENDROOT
BRANCH  26  31
HETATM   31  C31 UNL     1       0.641   4.278   6.999  1.00  0.00     0.033 C 
BRANCH  31  32
HETATM   32  C32 UNL     1      -0.571   5.004   6.619  1.00  0.00     0.004 C 
BRANCH  32  33
HETATM   33  C33 UNL     1      -0.646   5.646   5.268  1.00  0.00     0.027 C 
BRANCH  33  34
HETATM   34  C34 UNL     1      -0.982   7.157   5.438  1.00  0.00     0.229 C 
BRANCH  34  35
HETATM   35  N7  UNL     1      -1.039   7.498   6.825  1.00  0.00    -0.079 N 
ATOM     36  H73 UNL     1      -0.462   6.879   7.394  1.00  0.00     0.274 HD
ATOM     37  H72 UNL     1      -0.557   8.375   7.022  1.00  0.00     0.274 HD
ATOM     38  H71 UNL     1      -2.008   7.516   7.145  1.00  0.00     0.274 HD
ENDBRANCH  34  35
ENDBRANCH  33  34
ENDBRANCH  32  33
ENDBRANCH  31  32
ENDBRANCH  26  31
BRANCH  25  39
HETATM   39  O4  UNL     1       2.128   7.252   7.958  1.00  0.00    -0.348 OA
ATOM     40  H4  UNL     1       2.548   7.118   8.800  1.00  0.00     0.219 HD
ENDBRANCH  25  39
BRANCH  22  41
HETATM   41  C26 UNL     1       3.346   6.210   3.639  1.00  0.00     0.009 C 
HETATM   42  C27 UNL     1       2.680   4.980   3.080  1.00  0.00     0.012 C 
HETATM   43  C28 UNL     1       2.421   7.371   3.435  1.00  0.00     0.012 C 
ENDBRANCH  22  41
BRANCH   1  44
HETATM   44  C4  UNL     1       2.456   1.983   9.743  1.00  0.00     0.038 C 
BRANCH  44  45
HETATM   45  C2  UNL     1       1.919   0.850  10.600  1.00  0.00    -0.020 C 
HETATM   46  C1  UNL     1       1.401  -0.199   9.604  1.00  0.00     0.009 C 
HETATM   47  C3  UNL     1       3.085   0.137  11.300  1.00  0.00     0.009 C 
ENDBRANCH  44  45
ENDBRANCH   1  44
BRANCH   6  48
HETATM   48  C8  UNL     1       6.136   1.925  10.854  1.00  0.00     0.062 C 
BRANCH  48  49
HETATM   49  C9  UNL     1       7.544   2.336  11.145  1.00  0.00     0.238 C 
BRANCH  49  50
HETATM   50  N2  UNL     1       8.192   1.239  11.874  1.00  0.00    -0.079 N 
HETATM   51  C10 UNL     1       7.205   0.147  11.850  1.00  0.00     0.271 C 
HETATM   52  C11 UNL     1       8.390   1.699  13.222  1.00  0.00     0.271 C 
HETATM   53  C12 UNL     1       9.408   0.841  11.217  1.00  0.00     0.271 C 
ENDBRANCH  49  50
ENDBRANCH  48  49
ENDBRANCH   6  48
BRANCH  13  54
HETATM   54  O2  UNL     1       5.888   3.706   3.952  1.00  0.00    -0.348 OA
ATOM     55  H2  UNL     1       5.020   3.321   3.936  1.00  0.00     0.219 HD
ENDBRANCH  13  54
BRANCH  10  56
HETATM   56  C15 UNL     1       7.908   0.966   5.680  1.00  0.00     0.025 C 
HETATM   57  C16 UNL     1       8.800   1.836   4.841  1.00  0.00     0.016 C 
HETATM   58  C17 UNL     1       7.511  -0.232   4.848  1.00  0.00     0.016 C 
ENDBRANCH  10  56
TORSDOF 14
ENDMDL
MODEL 2
REMARK VINA RESULT: -5.930013460     12.838     18.883
REMARK  14 active torsions:
REMARK  status: ('A' for Active; 'I' for Inactive)
REMARK    1  A    between atoms: C2_2  and  C4_4 
REMARK    2  A    between atoms: C4_4  and  C5_5 
REMARK    3  A    between atoms: C7_10  and  C8_11 
REMARK    4  A    between atoms: C8_11  and  C9_12 
REMARK    5  A    between atoms: C9_12  and  N2_13 
REMARK    6  A    between atoms: C14_20  and  C15_21 
REMARK    7  A    between atoms: C18_26  and  O2_27 
REMARK    8  A    between atoms: C25_37  and  C26_38 
REMARK    9  A    between atoms: C29_43  and  O4_44 
REMARK   10  A    between atoms: C30_46  and  C31_47 
REMARK   11  A    between atoms: C31_47  and  C32_48 
REMARK   12  A    between atoms: C32_48  and  C33_49 
REMARK   13  A    between atoms: C33_49  and  C34_50 
REMARK   14  A    between atoms: C34_50  and  N7_51 
ROOT
HETATM    1  C5  UNL     1       7.765  -6.537  17.766  1.00  0.00     0.177 C 
HETATM    2  N1  UNL     1       6.401  -6.742  18.210  1.00  0.00    -0.346 N 
ATOM      3  H1  UNL     1       6.152  -6.278  19.083  1.00  0.00     0.163 HD
HETATM    4  C6  UNL     1       5.384  -7.477  17.621  1.00  0.00     0.240 C 
HETATM    5  O1  UNL     1       4.818  -8.364  18.355  1.00  0.00    -0.271 OA
HETATM    6  C7  UNL     1       4.865  -7.361  16.240  1.00  0.00     0.171 C 
HETATM    7  N3  UNL     1       3.826  -8.335  16.000  1.00  0.00    -0.404 N 
ATOM      8  H3  UNL     1       3.260  -8.724  16.753  1.00  0.00     0.154 HD
HETATM    9  C13 UNL     1       3.647  -8.712  14.647  1.00  0.00     0.167 C 
HETATM   10  C14 UNL     1       4.091 -10.113  14.295  1.00  0.00     0.009 C 
HETATM   11  N4  UNL     1       4.538 -10.835  15.425  1.00  0.00    -0.344 N 
ATOM     12  H4  UNL     1       5.337 -10.363  15.848  1.00  0.00     0.167 HD
HETATM   13  C18 UNL     1       4.231 -11.981  16.138  1.00  0.00     0.139 C 
HETATM   14  C19 UNL     1       3.345 -12.309  17.256  1.00  0.00     0.162 C 
HETATM   15  C20 UNL     1       2.271 -11.292  17.574  1.00  0.00     0.034 C 
HETATM   16  C21 UNL     1       1.365 -11.899  18.612  1.00  0.00     0.004 C 
HETATM   17  C22 UNL     1       1.634 -13.339  18.910  1.00  0.00     0.020 C 
HETATM   18  C23 UNL     1       3.075 -13.601  19.285  1.00  0.00     0.127 C 
HETATM   19  N5  UNL     1       3.970 -12.701  18.496  1.00  0.00    -0.338 N 
HETATM   20  C24 UNL     1       5.178 -12.394  19.086  1.00  0.00     0.243 C 
HETATM   21  O3  UNL     1       5.136 -11.872  20.272  1.00  0.00    -0.271 OA
HETATM   22  C25 UNL     1       6.592 -12.555  18.599  1.00  0.00     0.179 C 
HETATM   23  N6  UNL     1       7.542 -11.978  19.535  1.00  0.00    -0.359 N 
ATOM     24  H6  UNL     1       8.031 -12.640  20.138  1.00  0.00     0.162 HD
HETATM   25  C29 UNL     1       7.868 -10.632  19.714  1.00  0.00     0.135 C 
HETATM   26  C30 UNL     1       8.427  -9.698  18.726  1.00  0.00     0.159 C 
HETATM   27  N8  UNL     1       8.621  -8.382  19.365  1.00  0.00    -0.347 N 
ATOM     28  H8  UNL     1       8.688  -8.380  20.382  1.00  0.00     0.163 HD
HETATM   29  C35 UNL     1       8.723  -7.145  18.736  1.00  0.00     0.241 C 
HETATM   30  O5  UNL     1       9.769  -6.455  19.034  1.00  0.00    -0.271 OA
ENDROOT
BRANCH  26  31
HETATM   31  C31 UNL     1       9.683 -10.153  18.097  1.00  0.00     0.033 C 
BRANCH  31  32
HETATM   32  C32 UNL     1      10.397 -11.332  18.586  1.00  0.00     0.004 C 
BRANCH  32  33
HETATM   33  C33 UNL     1      10.825 -12.385  17.610  1.00  0.00     0.027 C 
BRANCH  33  34
HETATM   34  C34 UNL     1      11.044 -13.727  18.368  1.00  0.00     0.229 C 
BRANCH  34  35
HETATM   35  N7  UNL     1      11.542 -14.725  17.473  1.00  0.00    -0.079 N 
ATOM     36  H73 UNL     1      11.667 -15.625  17.936  1.00  0.00     0.274 HD
ATOM     37  H72 UNL     1      10.840 -15.006  16.788  1.00  0.00     0.274 HD
ATOM     38  H71 UNL     1      12.402 -14.403  17.028  1.00  0.00     0.274 HD
ENDBRANCH  34  35
ENDBRANCH  33  34
ENDBRANCH  32  33
ENDBRANCH  31  32
ENDBRANCH  26  31
BRANCH  25  39
HETATM   39  O4  UNL     1       7.652 -10.139  20.898  1.00  0.00    -0.348 OA
ATOM     40  H4  UNL     1       7.078  -9.383  20.942  1.00  0.00     0.219 HD
ENDBRANCH  25  39
BRANCH  22  41
HETATM   41  C26 UNL     1       6.979 -14.009  18.491  1.00  0.00     0.009 C 
HETATM   42  C27 UNL     1       7.712 -14.206  17.191  1.00  0.00     0.012 C 
HETATM   43  C28 UNL     1       7.876 -14.461  19.603  1.00  0.00     0.012 C 
ENDBRANCH  22  41
BRANCH   1  44
HETATM   44  C4  UNL     1       8.054  -6.921  16.367  1.00  0.00     0.038 C 
BRANCH  44  45
HETATM   45  C2  UNL     1       8.489  -5.699  15.575  1.00  0.00    -0.020 C 
HETATM   46  C1  UNL     1       7.952  -4.495  16.364  1.00  0.00     0.009 C 
HETATM   47  C3  UNL     1      10.013  -5.541  15.670  1.00  0.00     0.009 C 
ENDBRANCH  44  45
ENDBRANCH   1  44
BRANCH   6  48
HETATM   48  C8  UNL     1       4.357  -5.954  15.955  1.00  0.00     0.062 C 
BRANCH  48  49
HETATM   49  C9  UNL     1       3.109  -5.643  16.719  1.00  0.00     0.238 C 
BRANCH  49  50
HETATM   50  N2  UNL     1       2.538  -4.408  16.166  1.00  0.00    -0.079 N 
HETATM   51  C10 UNL     1       3.485  -4.005  15.113  1.00  0.00     0.271 C 
HETATM   52  C11 UNL     1       2.537  -3.442  17.231  1.00  0.00     0.271 C 
HETATM   53  C12 UNL     1       1.235  -4.656  15.611  1.00  0.00     0.271 C 
ENDBRANCH  49  50
ENDBRANCH  48  49
ENDBRANCH   6  48
BRANCH  13  54
HETATM   54  O2  UNL     1       4.867 -13.065  15.756  1.00  0.00    -0.348 OA
ATOM     55  H2  UNL     1       4.534 -13.878  16.117  1.00  0.00     0.219 HD
ENDBRANCH  13  54
BRANCH  10  56
HETATM   56  C15 UNL     1       3.194 -10.683  13.287  1.00  0.00     0.025 C 
HETATM   57  C16 UNL     1       2.449 -11.943  13.627  1.00  0.00     0.016 C 
HETATM   58  C17 UNL     1       3.781 -10.850  11.904  1.00  0.00     0.016 C 
ENDBRANCH  10  56
TORSDOF 14
ENDMDL
MODEL 3
REMARK VINA RESULT: -5.836206076     11.222     17.146
REMARK  14 active torsions:
REMARK  status: ('A' for Active; 'I' for Inactive)
REMARK    1  A    between atoms: C2_2  and  C4_4 
REMARK    2  A    between atoms: C4_4  and  C5_5 
REMARK    3  A    between atoms: C7_10  and  C8_11 
REMARK    4  A    between atoms: C8_11  and  C9_12 
REMARK    5  A    between atoms: C9_12  and  N2_13 
REMARK    6  A    between atoms: C14_20  and  C15_21 
REMARK    7  A    between atoms: C18_26  and  O2_27 
REMARK    8  A    between atoms: C25_37  and  C26_38 
REMARK    9  A    between atoms: C29_43  and  O4_44 
REMARK   10  A    between atoms: C30_46  and  C31_47 
REMARK   11  A    between atoms: C31_47  and  C32_48 
REMARK   12  A    between atoms: C32_48  and  C33_49 
REMARK   13  A    between atoms: C33_49  and  C34_50 
REMARK   14  A    between atoms: C34_50  and  N7_51 
ROOT
HETATM    1  C5  UNL     1       6.158  -4.683  16.790  1.00  0.00     0.177 C 
HETATM    2  N1  UNL     1       5.405  -5.477  17.739  1.00  0.00    -0.346 N 
ATOM      3  H1  UNL     1       5.272  -5.050  18.656  1.00  0.00     0.163 HD
HETATM    4  C6  UNL     1       4.837  -6.732  17.585  1.00  0.00     0.240 C 
HETATM    5  O1  UNL     1       5.166  -7.621  18.451  1.00  0.00    -0.271 OA
HETATM    6  C7  UNL     1       3.890  -7.175  16.538  1.00  0.00     0.171 C 
HETATM    7  N3  UNL     1       3.563  -8.573  16.702  1.00  0.00    -0.404 N 
ATOM      8  H3  UNL     1       3.622  -9.044  17.605  1.00  0.00     0.154 HD
HETATM    9  C13 UNL     1       3.155  -9.244  15.524  1.00  0.00     0.167 C 
HETATM   10  C14 UNL     1       4.140 -10.247  14.968  1.00  0.00     0.009 C 
HETATM   11  N4  UNL     1       5.280 -10.393  15.792  1.00  0.00    -0.344 N 
ATOM     12  H4  UNL     1       5.770  -9.503  15.873  1.00  0.00     0.167 HD
HETATM   13  C18 UNL     1       5.939 -11.366  16.523  1.00  0.00     0.139 C 
HETATM   14  C19 UNL     1       5.854 -11.882  17.890  1.00  0.00     0.162 C 
HETATM   15  C20 UNL     1       4.596 -11.533  18.655  1.00  0.00     0.034 C 
HETATM   16  C21 UNL     1       4.622 -12.306  19.946  1.00  0.00     0.004 C 
HETATM   17  C22 UNL     1       5.728 -13.305  20.054  1.00  0.00     0.020 C 
HETATM   18  C23 UNL     1       7.091 -12.699  19.802  1.00  0.00     0.127 C 
HETATM   19  N5  UNL     1       6.983 -11.640  18.754  1.00  0.00    -0.338 N 
HETATM   20  C24 UNL     1       7.931 -10.641  18.816  1.00  0.00     0.243 C 
HETATM   21  O3  UNL     1       8.034  -9.997  19.937  1.00  0.00    -0.271 OA
HETATM   22  C25 UNL     1       8.910 -10.134  17.792  1.00  0.00     0.179 C 
HETATM   23  N6  UNL     1       9.638  -8.978  18.285  1.00  0.00    -0.359 N 
ATOM     24  H6  UNL     1      10.589  -9.156  18.611  1.00  0.00     0.162 HD
HETATM   25  C29 UNL     1       9.202  -7.653  18.368  1.00  0.00     0.135 C 
HETATM   26  C30 UNL     1       8.751  -6.780  17.276  1.00  0.00     0.159 C 
HETATM   27  N8  UNL     1       8.395  -5.460  17.832  1.00  0.00    -0.347 N 
ATOM     28  H8  UNL     1       8.807  -5.224  18.734  1.00  0.00     0.163 HD
HETATM   29  C35 UNL     1       7.561  -4.501  17.264  1.00  0.00     0.241 C 
HETATM   30  O5  UNL     1       8.072  -3.325  17.140  1.00  0.00    -0.271 OA
ENDROOT
BRANCH  26  31
HETATM   31  C31 UNL     1       9.723  -6.627  16.175  1.00  0.00     0.033 C 
BRANCH  31  32
HETATM   32  C32 UNL     1       9.344  -6.015  14.902  1.00  0.00     0.004 C 
BRANCH  32  33
HETATM   33  C33 UNL     1      10.091  -4.810  14.419  1.00  0.00     0.027 C 
BRANCH  33  34
HETATM   34  C34 UNL     1      10.801  -4.130  15.626  1.00  0.00     0.229 C 
BRANCH  34  35
HETATM   35  N7  UNL     1      10.417  -2.756  15.716  1.00  0.00    -0.079 N 
ATOM     36  H73 UNL     1      10.769  -2.209  14.930  1.00  0.00     0.274 HD
ATOM     37  H72 UNL     1       9.419  -2.628  15.552  1.00  0.00     0.274 HD
ATOM     38  H71 UNL     1      10.710  -2.365  16.612  1.00  0.00     0.274 HD
ENDBRANCH  34  35
ENDBRANCH  33  34
ENDBRANCH  32  33
ENDBRANCH  31  32
ENDBRANCH  26  31
BRANCH  25  39
HETATM   39  O4  UNL     1       9.189  -7.125  19.557  1.00  0.00    -0.348 OA
ATOM     40  H4  UNL     1       9.609  -6.277  19.645  1.00  0.00     0.219 HD
ENDBRANCH  25  39
BRANCH  22  41
HETATM   41  C26 UNL     1       9.969 -11.163  17.481  1.00  0.00     0.009 C 
HETATM   42  C27 UNL     1      10.716 -11.469  18.752  1.00  0.00     0.012 C 
HETATM   43  C28 UNL     1       9.403 -12.446  16.954  1.00  0.00     0.012 C 
ENDBRANCH  22  41
BRANCH   1  44
HETATM   44  C4  UNL     1       6.089  -5.126  15.380  1.00  0.00     0.038 C 
BRANCH  44  45
HETATM   45  C2  UNL     1       5.701  -3.957  14.490  1.00  0.00    -0.020 C 
HETATM   46  C1  UNL     1       5.334  -2.820  15.456  1.00  0.00     0.009 C 
HETATM   47  C3  UNL     1       6.947  -3.427  13.766  1.00  0.00     0.009 C 
ENDBRANCH  44  45
ENDBRANCH   1  44
BRANCH   6  48
HETATM   48  C8  UNL     1       2.626  -6.327  16.538  1.00  0.00     0.062 C 
BRANCH  48  49
HETATM   49  C9  UNL     1       2.621  -5.328  15.425  1.00  0.00     0.238 C 
BRANCH  49  50
HETATM   50  N2  UNL     1       1.801  -4.185  15.849  1.00  0.00    -0.079 N 
HETATM   51  C10 UNL     1       2.085  -4.042  17.286  1.00  0.00     0.271 C 
HETATM   52  C11 UNL     1       0.429  -4.566  15.649  1.00  0.00     0.271 C 
HETATM   53  C12 UNL     1       2.180  -2.997  15.134  1.00  0.00     0.271 C 
ENDBRANCH  49  50
ENDBRANCH  48  49
ENDBRANCH   6  48
BRANCH  13  54
HETATM   54  O2  UNL     1       6.882 -12.011  15.874  1.00  0.00    -0.348 OA
ATOM     55  H2  UNL     1       7.002 -12.917  16.130  1.00  0.00     0.219 HD
ENDBRANCH  13  54
BRANCH  10  56
HETATM   56  C15 UNL     1       3.421 -11.384  14.388  1.00  0.00     0.025 C 
HETATM   57  C16 UNL     1       3.036 -11.318  12.937  1.00  0.00     0.016 C 
HETATM   58  C17 UNL     1       2.218 -11.866  15.166  1.00  0.00     0.016 C 
ENDBRANCH  10  56
TORSDOF 14
ENDMDL
MODEL 4
REMARK VINA RESULT: -5.780657727      1.805      3.575
REMARK  14 active torsions:
REMARK  status: ('A' for Active; 'I' for Inactive)
REMARK    1  A    between atoms: C2_2  and  C4_4 
REMARK    2  A    between atoms: C4_4  and  C5_5 
REMARK    3  A    between atoms: C7_10  and  C8_11 
REMARK    4  A    between atoms: C8_11  and  C9_12 
REMARK    5  A    between atoms: C9_12  and  N2_13 
REMARK    6  A    between atoms: C14_20  and  C15_21 
REMARK    7  A    between atoms: C18_26  and  O2_27 
REMARK    8  A    between atoms: C25_37  and  C26_38 
REMARK    9  A    between atoms: C29_43  and  O4_44 
REMARK   10  A    between atoms: C30_46  and  C31_47 
REMARK   11  A    between atoms: C31_47  and  C32_48 
REMARK   12  A    between atoms: C32_48  and  C33_49 
REMARK   13  A    between atoms: C33_49  and  C34_50 
REMARK   14  A    between atoms: C34_50  and  N7_51 
ROOT
HETATM    1  C5  UNL     1       4.134   1.903  12.014  1.00  0.00     0.177 C 
HETATM    2  N1  UNL     1       4.846   3.096  11.599  1.00  0.00    -0.346 N 
ATOM      3  H1  UNL     1       4.862   3.853  12.283  1.00  0.00     0.163 HD
HETATM    4  C6  UNL     1       5.506   3.360  10.410  1.00  0.00     0.240 C 
HETATM    5  O1  UNL     1       5.156   4.423   9.783  1.00  0.00    -0.271 OA
HETATM    6  C7  UNL     1       6.575   2.560   9.771  1.00  0.00     0.171 C 
HETATM    7  N3  UNL     1       6.976   3.152   8.516  1.00  0.00    -0.404 N 
ATOM      8  H3  UNL     1       6.863   4.146   8.322  1.00  0.00     0.154 HD
HETATM    9  C13 UNL     1       7.537   2.256   7.573  1.00  0.00     0.167 C 
HETATM   10  C14 UNL     1       6.677   1.952   6.368  1.00  0.00     0.009 C 
HETATM   11  N4  UNL     1       5.477   2.699   6.363  1.00  0.00    -0.344 N 
ATOM     12  H4  UNL     1       4.924   2.479   7.191  1.00  0.00     0.167 HD
HETATM   13  C18 UNL     1       4.817   3.637   5.587  1.00  0.00     0.139 C 
HETATM   14  C19 UNL     1       4.806   5.097   5.497  1.00  0.00     0.162 C 
HETATM   15  C20 UNL     1       5.961   5.813   6.164  1.00  0.00     0.034 C 
HETATM   16  C21 UNL     1       5.864   7.269   5.797  1.00  0.00     0.004 C 
HETATM   17  C22 UNL     1       4.821   7.588   4.776  1.00  0.00     0.020 C 
HETATM   18  C23 UNL     1       3.451   7.073   5.158  1.00  0.00     0.127 C 
HETATM   19  N5  UNL     1       3.587   5.769   5.875  1.00  0.00    -0.338 N 
HETATM   20  C24 UNL     1       2.574   5.466   6.758  1.00  0.00     0.243 C 
HETATM   21  O3  UNL     1       2.324   6.337   7.687  1.00  0.00    -0.271 OA
HETATM   22  C25 UNL     1       1.665   4.272   6.858  1.00  0.00     0.179 C 
HETATM   23  N6  UNL     1       0.819   4.348   8.037  1.00  0.00    -0.359 N 
ATOM     24  H6  UNL     1      -0.145   4.644   7.875  1.00  0.00     0.162 HD
HETATM   25  C29 UNL     1       1.157   4.068   9.363  1.00  0.00     0.135 C 
HETATM   26  C30 UNL     1       1.651   2.801   9.921  1.00  0.00     0.159 C 
HETATM   27  N8  UNL     1       1.865   2.967  11.372  1.00  0.00    -0.347 N 
ATOM     28  H8  UNL     1       1.355   3.728  11.820  1.00  0.00     0.163 HD
HETATM   29  C35 UNL     1       2.684   2.202  12.198  1.00  0.00     0.241 C 
HETATM   30  O5  UNL     1       2.111   1.700  13.237  1.00  0.00    -0.271 OA
ENDROOT
BRANCH  26  31
HETATM   31  C31 UNL     1       0.779   1.638   9.661  1.00  0.00     0.033 C 
BRANCH  31  32
HETATM   32  C32 UNL     1      -0.134   1.125  10.682  1.00  0.00     0.004 C 
BRANCH  32  33
HETATM   33  C33 UNL     1       0.140  -0.210  11.304  1.00  0.00     0.027 C 
BRANCH  33  34
HETATM   34  C34 UNL     1      -0.588  -0.294  12.677  1.00  0.00     0.229 C 
BRANCH  34  35
HETATM   35  N7  UNL     1      -0.850   1.019  13.180  1.00  0.00    -0.079 N 
ATOM     36  H73 UNL     1      -1.849   1.197  13.282  1.00  0.00     0.274 HD
ATOM     37  H72 UNL     1      -0.580   1.113  14.159  1.00  0.00     0.274 HD
ATOM     38  H71 UNL     1      -0.397   1.719  12.591  1.00  0.00     0.274 HD
ENDBRANCH  34  35
ENDBRANCH  33  34
ENDBRANCH  32  33
ENDBRANCH  31  32
ENDBRANCH  26  31
BRANCH  25  39
HETATM   39  O4  UNL     1       1.023   5.046  10.210  1.00  0.00    -0.348 OA
ATOM     40  H4  UNL     1       0.936   4.801  11.125  1.00  0.00     0.219 HD
ENDBRANCH  25  39
BRANCH  22  41
HETATM   41  C26 UNL     1       0.710   4.203   5.692  1.00  0.00     0.009 C 
HETATM   42  C27 UNL     1      -0.228   5.378   5.783  1.00  0.00     0.012 C 
HETATM   43  C28 UNL     1       1.401   4.263   4.364  1.00  0.00     0.012 C 
ENDBRANCH  22  41
BRANCH   1  44
HETATM   44  C4  UNL     1       4.365   0.696  11.192  1.00  0.00     0.038 C 
BRANCH  44  45
HETATM   45  C2  UNL     1       4.120  -0.551  12.025  1.00  0.00    -0.020 C 
HETATM   46  C1  UNL     1       5.211  -1.544  11.595  1.00  0.00     0.009 C 
HETATM   47  C3  UNL     1       4.457  -0.261  13.495  1.00  0.00     0.009 C 
ENDBRANCH  44  45
ENDBRANCH   1  44
BRANCH   6  48
HETATM   48  C8  UNL     1       7.775   2.399  10.695  1.00  0.00     0.062 C 
BRANCH  48  49
HETATM   49  C9  UNL     1       7.994   0.973  11.087  1.00  0.00     0.238 C 
BRANCH  49  50
HETATM   50  N2  UNL     1       8.638   0.962  12.406  1.00  0.00    -0.079 N 
HETATM   51  C10 UNL     1       8.363   2.298  12.961  1.00  0.00     0.271 C 
HETATM   52  C11 UNL     1      10.049   0.801  12.175  1.00  0.00     0.271 C 
HETATM   53  C12 UNL     1       8.071  -0.063  13.240  1.00  0.00     0.271 C 
ENDBRANCH  49  50
ENDBRANCH  48  49
ENDBRANCH   6  48
BRANCH  13  54
HETATM   54  O2  UNL     1       3.984   3.142   4.700  1.00  0.00    -0.348 OA
ATOM     55  H2  UNL     1       3.568   3.781   4.134  1.00  0.00     0.219 HD
ENDBRANCH  13  54
BRANCH  10  56
HETATM   56  C15 UNL     1       7.520   1.787   5.182  1.00  0.00     0.025 C 
HETATM   57  C16 UNL     1       8.256   0.488   5.007  1.00  0.00     0.016 C 
HETATM   58  C17 UNL     1       8.492   2.911   4.905  1.00  0.00     0.016 C 
ENDBRANCH  10  56
TORSDOF 14
ENDMDL
MODEL 5
REMARK VINA RESULT: -5.451831118      1.472      2.217
REMARK  14 active torsions:
REMARK  status: ('A' for Active; 'I' for Inactive)
REMARK    1  A    between atoms: C2_2  and  C4_4 
REMARK    2  A    between atoms: C4_4  and  C5_5 
REMARK    3  A    between atoms: C7_10  and  C8_11 
REMARK    4  A    between atoms: C8_11  and  C9_12 
REMARK    5  A    between atoms: C9_12  and  N2_13 
REMARK    6  A    between atoms: C14_20  and  C15_21 
REMARK    7  A    between atoms: C18_26  and  O2_27 
REMARK    8  A    between atoms: C25_37  and  C26_38 
REMARK    9  A    between atoms: C29_43  and  O4_44 
REMARK   10  A    between atoms: C30_46  and  C31_47 
REMARK   11  A    between atoms: C31_47  and  C32_48 
REMARK   12  A    between atoms: C32_48  and  C33_49 
REMARK   13  A    between atoms: C33_49  and  C34_50 
REMARK   14  A    between atoms: C34_50  and  N7_51 
ROOT
HETATM    1  C5  UNL     1       4.021   2.886  11.109  1.00  0.00     0.177 C 
HETATM    2  N1  UNL     1       5.176   3.679  10.739  1.00  0.00    -0.346 N 
ATOM      3  H1  UNL     1       5.352   4.494  11.327  1.00  0.00     0.163 HD
HETATM    4  C6  UNL     1       6.078   3.492   9.704  1.00  0.00     0.240 C 
HETATM    5  O1  UNL     1       6.251   4.483   8.908  1.00  0.00    -0.271 OA
HETATM    6  C7  UNL     1       6.874   2.281   9.404  1.00  0.00     0.171 C 
HETATM    7  N3  UNL     1       7.669   2.473   8.213  1.00  0.00    -0.404 N 
ATOM      8  H3  UNL     1       7.960   3.397   7.896  1.00  0.00     0.154 HD
HETATM    9  C13 UNL     1       8.015   1.290   7.516  1.00  0.00     0.167 C 
HETATM   10  C14 UNL     1       7.321   1.085   6.190  1.00  0.00     0.009 C 
HETATM   11  N4  UNL     1       6.494   2.178   5.842  1.00  0.00    -0.344 N 
ATOM     12  H4  UNL     1       5.768   2.306   6.546  1.00  0.00     0.167 HD
HETATM   13  C18 UNL     1       6.362   3.131   4.846  1.00  0.00     0.139 C 
HETATM   14  C19 UNL     1       6.899   4.470   4.604  1.00  0.00     0.162 C 
HETATM   15  C20 UNL     1       8.105   4.862   5.430  1.00  0.00     0.034 C 
HETATM   16  C21 UNL     1       8.608   6.178   4.901  1.00  0.00     0.004 C 
HETATM   17  C22 UNL     1       7.941   6.644   3.647  1.00  0.00     0.020 C 
HETATM   18  C23 UNL     1       6.434   6.694   3.769  1.00  0.00     0.127 C 
HETATM   19  N5  UNL     1       5.964   5.568   4.631  1.00  0.00    -0.338 N 
HETATM   20  C24 UNL     1       4.776   5.782   5.297  1.00  0.00     0.243 C 
HETATM   21  O3  UNL     1       4.707   6.835   6.051  1.00  0.00    -0.271 OA
HETATM   22  C25 UNL     1       3.492   4.999   5.317  1.00  0.00     0.179 C 
HETATM   23  N6  UNL     1       2.545   5.561   6.266  1.00  0.00    -0.359 N 
ATOM     24  H6  UNL     1       1.798   6.130   5.866  1.00  0.00     0.162 HD
HETATM   25  C29 UNL     1       2.530   5.422   7.656  1.00  0.00     0.135 C 
HETATM   26  C30 UNL     1       2.426   4.182   8.439  1.00  0.00     0.159 C 
HETATM   27  N8  UNL     1       2.437   4.519   9.875  1.00  0.00    -0.347 N 
ATOM     28  H8  UNL     1       2.172   5.473  10.118  1.00  0.00     0.163 HD
HETATM   29  C35 UNL     1       2.769   3.681  10.937  1.00  0.00     0.241 C 
HETATM   30  O5  UNL     1       1.887   3.592  11.871  1.00  0.00    -0.271 OA
ENDROOT
BRANCH  26  31
HETATM   31  C31 UNL     1       1.248   3.352   8.116  1.00  0.00     0.033 C 
BRANCH  31  32
HETATM   32  C32 UNL     1       0.624   2.490   9.119  1.00  0.00     0.004 C 
BRANCH  32  33
HETATM   33  C33 UNL     1      -0.554   2.999   9.890  1.00  0.00     0.027 C 
BRANCH  33  34
HETATM   34  C34 UNL     1      -1.010   1.911  10.906  1.00  0.00     0.229 C 
BRANCH  34  35
HETATM   35  N7  UNL     1      -0.531   2.225  12.216  1.00  0.00    -0.079 N 
ATOM     36  H73 UNL     1       0.009   1.459  12.618  1.00  0.00     0.274 HD
ATOM     37  H72 UNL     1       0.205   2.931  12.192  1.00  0.00     0.274 HD
ATOM     38  H71 UNL     1      -1.306   2.502  12.819  1.00  0.00     0.274 HD
ENDBRANCH  34  35
ENDBRANCH  33  34
ENDBRANCH  32  33
ENDBRANCH  31  32
ENDBRANCH  26  31
BRANCH  25  39
HETATM   39  O4  UNL     1       2.620   6.520   8.346  1.00  0.00    -0.348 OA
ATOM     40  H4  UNL     1       3.342   6.573   8.962  1.00  0.00     0.219 HD
ENDBRANCH  25  39
BRANCH  22  41
HETATM   41  C26 UNL     1       2.789   5.051   3.984  1.00  0.00     0.009 C 
HETATM   42  C27 UNL     1       1.651   4.065   4.012  1.00  0.00     0.012 C 
HETATM   43  C28 UNL     1       2.224   6.403   3.671  1.00  0.00     0.012 C 
ENDBRANCH  22  41
BRANCH   1  44
HETATM   44  C4  UNL     1       3.931   1.547  10.489  1.00  0.00     0.038 C 
BRANCH  44  45
HETATM   45  C2  UNL     1       3.088   0.629  11.360  1.00  0.00    -0.020 C 
HETATM   46  C1  UNL     1       2.186  -0.138  10.381  1.00  0.00     0.009 C 
HETATM   47  C3  UNL     1       3.978  -0.466  11.965  1.00  0.00     0.009 C 
ENDBRANCH  44  45
ENDBRANCH   1  44
BRANCH   6  48
HETATM   48  C8  UNL     1       7.758   1.892  10.580  1.00  0.00     0.062 C 
BRANCH  48  49
HETATM   49  C9  UNL     1       7.388   0.557  11.143  1.00  0.00     0.238 C 
BRANCH  49  50
HETATM   50  N2  UNL     1       7.781   0.540  12.558  1.00  0.00    -0.079 N 
HETATM   51  C10 UNL     1       7.053   1.672  13.155  1.00  0.00     0.271 C 
HETATM   52  C11 UNL     1       9.198   0.784  12.596  1.00  0.00     0.271 C 
HETATM   53  C12 UNL     1       7.393  -0.699  13.178  1.00  0.00     0.271 C 
ENDBRANCH  49  50
ENDBRANCH  48  49
ENDBRANCH   6  48
BRANCH  13  54
HETATM   54  O2  UNL     1       5.569   2.796   3.854  1.00  0.00    -0.348 OA
ATOM     55  H2  UNL     1       5.303   1.884   3.838  1.00  0.00     0.219 HD
ENDBRANCH  13  54
BRANCH  10  56
HETATM   56  C15 UNL     1       8.233   0.440   5.242  1.00  0.00     0.025 C 
HETATM   57  C16 UNL     1       9.018   1.313   4.303  1.00  0.00     0.016 C 
HETATM   58  C17 UNL     1       7.648  -0.698   4.439  1.00  0.00     0.016 C 
ENDBRANCH  10  56
TORSDOF 14
ENDMDL
