MODEL 1
REMARK VINA RESULT: -6.519791745      0.000      0.000
REMARK  11 active torsions:
REMARK  status: ('A' for Active; 'I' for Inactive)
REMARK    1  A    between atoms: C2_2  and  C3_3 
REMARK    2  A    between atoms: C3_3  and  S1_4 
REMARK    3  A    between atoms: S1_4  and  C4_6 
REMARK    4  A    between atoms: C4_6  and  C5_7 
REMARK    5  A    between atoms: C20_32  and  C21_33 
REMARK    6  A    between atoms: C25_40  and  C26_41 
REMARK    7  A    between atoms: C26_41  and  C27_42 
REMARK    8  A    between atoms: C27_42  and  C28_43 
REMARK    9  A    between atoms: C28_43  and  C29_44 
REMARK   10  A    between atoms: C29_44  and  C30_45 
REMARK   11  A    between atoms: C30_45  and  C31_46 
ROOT
HETATM    1  C5  UNL     1       7.713  -9.011  17.433  1.00  0.00     0.089 C 
HETATM    2  C6  UNL     1       9.004  -9.758  17.298  1.00  0.00     0.015 C 
HETATM    3  C7  UNL     1       9.669 -10.097  18.597  1.00  0.00     0.002 C 
HETATM    4  C8  UNL     1       9.663 -11.580  18.885  1.00  0.00     0.020 C 
HETATM    5  C9  UNL     1      10.363 -12.370  17.807  1.00  0.00     0.122 C 
HETATM    6  N1  UNL     1      10.835 -13.656  18.281  1.00  0.00    -0.361 N 
ATOM      7  H1  UNL     1      11.628 -13.667  18.923  1.00  0.00     0.162 HD
HETATM    8  C10 UNL     1      10.264 -14.904  17.909  1.00  0.00     0.217 C 
HETATM    9  O2  UNL     1      10.630 -15.937  18.524  1.00  0.00    -0.274 OA
HETATM   10  C11 UNL     1       9.256 -15.034  16.829  1.00  0.00     0.112 C 
HETATM   11  C12 UNL     1       8.637 -16.421  16.890  1.00  0.00     0.112 C 
HETATM   12  C13 UNL     1       7.537 -16.512  17.896  1.00  0.00     0.218 C 
HETATM   13  O3  UNL     1       7.571 -17.492  18.728  1.00  0.00    -0.274 OA
HETATM   14  N2  UNL     1       6.460 -15.637  18.033  1.00  0.00    -0.348 N 
ATOM     15  H2  UNL     1       6.282 -15.302  18.980  1.00  0.00     0.163 HD
HETATM   16  C14 UNL     1       5.566 -15.141  17.018  1.00  0.00     0.172 C 
HETATM   17  C15 UNL     1       5.860 -15.808  15.679  1.00  0.00     0.042 C 
HETATM   18  C16 UNL     1       4.128 -15.312  17.343  1.00  0.00     0.240 C 
HETATM   19  O4  UNL     1       3.592 -16.373  16.901  1.00  0.00    -0.271 OA
HETATM   20  N3  UNL     1       3.312 -14.438  18.075  1.00  0.00    -0.348 N 
ATOM     21  H3  UNL     1       2.381 -14.247  17.704  1.00  0.00     0.163 HD
HETATM   22  C17 UNL     1       3.679 -13.783  19.315  1.00  0.00     0.152 C 
HETATM   23  C18 UNL     1       3.538 -14.775  20.491  1.00  0.00     0.040 C 
HETATM   24  C19 UNL     1       2.909 -12.567  19.629  1.00  0.00     0.172 C 
HETATM   25  O5  UNL     1       2.401 -12.490  20.763  1.00  0.00    -0.293 OA
HETATM   26  C20 UNL     1       2.662 -11.403  18.753  1.00  0.00     0.159 C 
HETATM   27  N4  UNL     1       2.728 -11.635  17.351  1.00  0.00    -0.347 N 
ATOM     28  H4  UNL     1       1.883 -12.031  16.939  1.00  0.00     0.163 HD
HETATM   29  C24 UNL     1       3.771 -11.404  16.451  1.00  0.00     0.241 C 
HETATM   30  O6  UNL     1       3.767 -12.172  15.414  1.00  0.00    -0.271 OA
HETATM   31  C25 UNL     1       4.852 -10.419  16.530  1.00  0.00     0.176 C 
HETATM   32  N5  UNL     1       5.755 -10.674  17.634  1.00  0.00    -0.347 N 
ATOM     33  H5  UNL     1       5.697 -11.600  18.057  1.00  0.00     0.163 HD
HETATM   34  C34 UNL     1       6.689  -9.805  18.184  1.00  0.00     0.223 C 
HETATM   35  O7  UNL     1       6.693  -9.655  19.454  1.00  0.00    -0.273 OA
ENDROOT
BRANCH  31  36
HETATM   36  C26 UNL     1       4.293  -9.039  16.522  1.00  0.00     0.035 C 
BRANCH  36  37
HETATM   37  C27 UNL     1       3.766  -8.759  15.109  1.00  0.00     0.002 C 
BRANCH  37  38
HETATM   38  C28 UNL     1       3.471  -7.283  14.944  1.00  0.00     0.000 C 
BRANCH  38  39
HETATM   39  C29 UNL     1       2.673  -6.722  16.071  1.00  0.00     0.000 C 
BRANCH  39  40
HETATM   40  C30 UNL     1       2.292  -5.285  15.938  1.00  0.00     0.004 C 
BRANCH  40  41
HETATM   41  C31 UNL     1       2.516  -4.612  17.278  1.00  0.00    -0.023 C 
HETATM   42  C32 UNL     1       3.361  -5.435  18.197  1.00  0.00     0.009 C 
HETATM   43  C33 UNL     1       3.119  -3.234  17.150  1.00  0.00     0.009 C 
ENDBRANCH  40  41
ENDBRANCH  39  40
ENDBRANCH  38  39
ENDBRANCH  37  38
ENDBRANCH  36  37
ENDBRANCH  31  36
BRANCH  26  44
HETATM   44  C21 UNL     1       1.231 -10.939  19.098  1.00  0.00     0.007 C 
HETATM   45  C22 UNL     1       1.007  -9.488  18.876  1.00  0.00     0.012 C 
HETATM   46  C23 UNL     1       0.205 -11.719  18.329  1.00  0.00     0.012 C 
ENDBRANCH  26  44
BRANCH   1  47
HETATM   47  C4  UNL     1       7.822  -7.662  18.060  1.00  0.00     0.123 C 
BRANCH  47  48
HETATM   48  S1  UNL     1       9.138  -6.660  17.490  1.00  0.00     0.019 S 
HETATM   49  O1  UNL     1       9.797  -5.721  18.716  1.00  0.00    -0.258 OA
BRANCH  48  50
HETATM   50  C3  UNL     1       8.438  -5.488  16.316  1.00  0.00     0.135 C 
BRANCH  50  51
HETATM   51  C2  UNL     1       7.011  -5.231  16.642  1.00  0.00    -0.025 C 
HETATM   52  C1  UNL     1       6.113  -4.844  15.749  1.00  0.00     0.008 C 
ENDBRANCH  50  51
ENDBRANCH  48  50
ENDBRANCH  47  48
ENDBRANCH   1  47
TORSDOF 11
ENDMDL
MODEL 2
REMARK VINA RESULT: -6.182990434      0.891      1.124
REMARK  11 active torsions:
REMARK  status: ('A' for Active; 'I' for Inactive)
REMARK    1  A    between atoms: C2_2  and  C3_3 
REMARK    2  A    between atoms: C3_3  and  S1_4 
REMARK    3  A    between atoms: S1_4  and  C4_6 
REMARK    4  A    between atoms: C4_6  and  C5_7 
REMARK    5  A    between atoms: C20_32  and  C21_33 
REMARK    6  A    between atoms: C25_40  and  C26_41 
REMARK    7  A    between atoms: C26_41  and  C27_42 
REMARK    8  A    between atoms: C27_42  and  C28_43 
REMARK    9  A    between atoms: C28_43  and  C29_44 
REMARK   10  A    between atoms: C29_44  and  C30_45 
REMARK   11  A    between atoms: C30_45  and  C31_46 
ROOT
HETATM    1  C5  UNL     1       8.150  -9.705  17.989  1.00  0.00     0.089 C 
HETATM    2  C6  UNL     1       9.393 -10.530  17.857  1.00  0.00     0.015 C 
HETATM    3  C7  UNL     1       9.945 -11.040  19.153  1.00  0.00     0.002 C 
HETATM    4  C8  UNL     1       9.819 -12.540  19.291  1.00  0.00     0.020 C 
HETATM    5  C9  UNL     1      10.533 -13.273  18.182  1.00  0.00     0.122 C 
HETATM    6  N1  UNL     1      10.883 -14.630  18.553  1.00  0.00    -0.361 N 
ATOM      7  H1  UNL     1      11.629 -14.762  19.236  1.00  0.00     0.162 HD
HETATM    8  C10 UNL     1      10.254 -15.790  18.025  1.00  0.00     0.217 C 
HETATM    9  O2  UNL     1      10.507 -16.902  18.553  1.00  0.00    -0.274 OA
HETATM   10  C11 UNL     1       9.314 -15.742  16.878  1.00  0.00     0.112 C 
HETATM   11  C12 UNL     1       8.598 -17.078  16.764  1.00  0.00     0.112 C 
HETATM   12  C13 UNL     1       7.431 -17.182  17.688  1.00  0.00     0.218 C 
HETATM   13  O3  UNL     1       7.342 -18.237  18.418  1.00  0.00    -0.274 OA
HETATM   14  N2  UNL     1       6.410 -16.246  17.848  1.00  0.00    -0.348 N 
ATOM     15  H2  UNL     1       6.192 -15.991  18.811  1.00  0.00     0.163 HD
HETATM   16  C14 UNL     1       5.621 -15.590  16.836  1.00  0.00     0.172 C 
HETATM   17  C15 UNL     1       5.957 -16.146  15.457  1.00  0.00     0.042 C 
HETATM   18  C16 UNL     1       4.156 -15.684  17.057  1.00  0.00     0.240 C 
HETATM   19  O4  UNL     1       3.579 -16.655  16.479  1.00  0.00    -0.271 OA
HETATM   20  N3  UNL     1       3.354 -14.825  17.823  1.00  0.00    -0.348 N 
ATOM     21  H3  UNL     1       2.466 -14.531  17.418  1.00  0.00     0.163 HD
HETATM   22  C17 UNL     1       3.683 -14.321  19.142  1.00  0.00     0.152 C 
HETATM   23  C18 UNL     1       3.396 -15.407  20.202  1.00  0.00     0.040 C 
HETATM   24  C19 UNL     1       2.979 -13.086  19.529  1.00  0.00     0.172 C 
HETATM   25  O5  UNL     1       2.402 -13.080  20.633  1.00  0.00    -0.293 OA
HETATM   26  C20 UNL     1       2.870 -11.829  18.761  1.00  0.00     0.159 C 
HETATM   27  N4  UNL     1       3.013 -11.930  17.349  1.00  0.00    -0.347 N 
ATOM     28  H4  UNL     1       2.172 -12.221  16.850  1.00  0.00     0.163 HD
HETATM   29  C24 UNL     1       4.127 -11.693  16.540  1.00  0.00     0.241 C 
HETATM   30  O6  UNL     1       4.139 -12.356  15.434  1.00  0.00    -0.271 OA
HETATM   31  C25 UNL     1       5.265 -10.803  16.781  1.00  0.00     0.176 C 
HETATM   32  N5  UNL     1       6.073 -11.229  17.906  1.00  0.00    -0.347 N 
ATOM     33  H5  UNL     1       5.925 -12.184  18.231  1.00  0.00     0.163 HD
HETATM   34  C34 UNL     1       7.026 -10.489  18.595  1.00  0.00     0.223 C 
HETATM   35  O7  UNL     1       6.956 -10.462  19.871  1.00  0.00    -0.273 OA
ENDROOT
BRANCH  31  36
HETATM   36  C26 UNL     1       4.804  -9.390  16.879  1.00  0.00     0.035 C 
BRANCH  36  37
HETATM   37  C27 UNL     1       3.827  -9.141  15.723  1.00  0.00     0.002 C 
BRANCH  37  38
HETATM   38  C28 UNL     1       3.040  -7.871  15.970  1.00  0.00     0.000 C 
BRANCH  38  39
HETATM   39  C29 UNL     1       3.302  -6.819  14.948  1.00  0.00     0.000 C 
BRANCH  39  40
HETATM   40  C30 UNL     1       2.320  -5.695  14.914  1.00  0.00     0.004 C 
BRANCH  40  41
HETATM   41  C31 UNL     1       3.016  -4.446  15.422  1.00  0.00    -0.023 C 
HETATM   42  C32 UNL     1       2.697  -4.156  16.853  1.00  0.00     0.009 C 
HETATM   43  C33 UNL     1       4.515  -4.497  15.248  1.00  0.00     0.009 C 
ENDBRANCH  40  41
ENDBRANCH  39  40
ENDBRANCH  38  39
ENDBRANCH  37  38
ENDBRANCH  36  37
ENDBRANCH  31  36
BRANCH  26  44
HETATM   44  C21 UNL     1       1.455 -11.294  19.065  1.00  0.00     0.007 C 
HETATM   45  C22 UNL     1       1.351  -9.815  18.998  1.00  0.00     0.012 C 
HETATM   46  C23 UNL     1       0.434 -11.902  18.147  1.00  0.00     0.012 C 
ENDBRANCH  26  44
BRANCH   1  47
HETATM   47  C4  UNL     1       8.309  -8.434  18.753  1.00  0.00     0.123 C 
BRANCH  47  48
HETATM   48  S1  UNL     1       8.748  -7.027  17.811  1.00  0.00     0.019 S 
HETATM   49  O1  UNL     1       9.658  -5.930  18.696  1.00  0.00    -0.258 OA
BRANCH  48  50
HETATM   50  C3  UNL     1       7.220  -6.165  17.409  1.00  0.00     0.135 C 
BRANCH  50  51
HETATM   51  C2  UNL     1       6.406  -5.971  18.636  1.00  0.00    -0.025 C 
HETATM   52  C1  UNL     1       5.137  -6.336  18.740  1.00  0.00     0.008 C 
ENDBRANCH  50  51
ENDBRANCH  48  50
ENDBRANCH  47  48
ENDBRANCH   1  47
TORSDOF 11
ENDMDL
MODEL 3
REMARK VINA RESULT: -6.162549632      2.643      6.959
REMARK  11 active torsions:
REMARK  status: ('A' for Active; 'I' for Inactive)
REMARK    1  A    between atoms: C2_2  and  C3_3 
REMARK    2  A    between atoms: C3_3  and  S1_4 
REMARK    3  A    between atoms: S1_4  and  C4_6 
REMARK    4  A    between atoms: C4_6  and  C5_7 
REMARK    5  A    between atoms: C20_32  and  C21_33 
REMARK    6  A    between atoms: C25_40  and  C26_41 
REMARK    7  A    between atoms: C26_41  and  C27_42 
REMARK    8  A    between atoms: C27_42  and  C28_43 
REMARK    9  A    between atoms: C28_43  and  C29_44 
REMARK   10  A    between atoms: C29_44  and  C30_45 
REMARK   11  A    between atoms: C30_45  and  C31_46 
ROOT
HETATM    1  C5  UNL     1       3.799  -8.424  17.297  1.00  0.00     0.089 C 
HETATM    2  C6  UNL     1       2.509  -8.207  18.026  1.00  0.00     0.015 C 
HETATM    3  C7  UNL     1       1.336  -8.940  17.452  1.00  0.00     0.002 C 
HETATM    4  C8  UNL     1       0.839 -10.044  18.356  1.00  0.00     0.020 C 
HETATM    5  C9  UNL     1       0.420  -9.522  19.709  1.00  0.00     0.122 C 
HETATM    6  N1  UNL     1      -0.518 -10.404  20.376  1.00  0.00    -0.361 N 
ATOM      7  H1  UNL     1      -1.468 -10.456  20.007  1.00  0.00     0.162 HD
HETATM    8  C10 UNL     1      -0.201 -11.199  21.510  1.00  0.00     0.217 C 
HETATM    9  O2  UNL     1      -1.032 -12.062  21.888  1.00  0.00    -0.274 OA
HETATM   10  C11 UNL     1       1.069 -11.053  22.263  1.00  0.00     0.112 C 
HETATM   11  C12 UNL     1       1.227 -12.234  23.207  1.00  0.00     0.112 C 
HETATM   12  C13 UNL     1       1.794 -13.436  22.528  1.00  0.00     0.218 C 
HETATM   13  O3  UNL     1       1.188 -14.557  22.700  1.00  0.00    -0.274 OA
HETATM   14  N2  UNL     1       2.928 -13.477  21.717  1.00  0.00    -0.348 N 
ATOM     15  H2  UNL     1       2.814 -13.956  20.824  1.00  0.00     0.163 HD
HETATM   16  C14 UNL     1       4.238 -12.933  21.969  1.00  0.00     0.172 C 
HETATM   17  C15 UNL     1       4.311 -12.356  23.378  1.00  0.00     0.042 C 
HETATM   18  C16 UNL     1       5.343 -13.907  21.782  1.00  0.00     0.240 C 
HETATM   19  O4  UNL     1       5.706 -14.526  22.828  1.00  0.00    -0.271 OA
HETATM   20  N3  UNL     1       6.018 -14.208  20.591  1.00  0.00    -0.348 N 
ATOM     21  H3  UNL     1       7.034 -14.281  20.636  1.00  0.00     0.163 HD
HETATM   22  C17 UNL     1       5.394 -14.427  19.302  1.00  0.00     0.152 C 
HETATM   23  C18 UNL     1       4.808 -15.854  19.240  1.00  0.00     0.040 C 
HETATM   24  C19 UNL     1       6.278 -14.228  18.140  1.00  0.00     0.172 C 
HETATM   25  O5  UNL     1       6.317 -15.138  17.291  1.00  0.00    -0.293 OA
HETATM   26  C20 UNL     1       7.139 -13.063  17.848  1.00  0.00     0.159 C 
HETATM   27  N4  UNL     1       7.553 -12.282  18.962  1.00  0.00    -0.347 N 
ATOM     28  H4  UNL     1       8.354 -12.652  19.474  1.00  0.00     0.163 HD
HETATM   29  C24 UNL     1       7.033 -11.086  19.462  1.00  0.00     0.241 C 
HETATM   30  O6  UNL     1       7.228 -10.901  20.724  1.00  0.00    -0.271 OA
HETATM   31  C25 UNL     1       6.306 -10.031  18.752  1.00  0.00     0.176 C 
HETATM   32  N5  UNL     1       5.018 -10.479  18.262  1.00  0.00    -0.347 N 
ATOM     33  H5  UNL     1       4.663 -11.348  18.661  1.00  0.00     0.163 HD
HETATM   34  C34 UNL     1       4.210  -9.865  17.314  1.00  0.00     0.223 C 
HETATM   35  O7  UNL     1       3.763 -10.581  16.354  1.00  0.00    -0.273 OA
ENDROOT
BRANCH  31  36
HETATM   36  C26 UNL     1       7.169  -9.430  17.698  1.00  0.00     0.035 C 
BRANCH  36  37
HETATM   37  C27 UNL     1       8.248  -8.598  18.402  1.00  0.00     0.002 C 
BRANCH  37  38
HETATM   38  C28 UNL     1       9.226  -8.045  17.385  1.00  0.00     0.000 C 
BRANCH  38  39
HETATM   39  C29 UNL     1       9.746  -6.699  17.754  1.00  0.00     0.000 C 
BRANCH  39  40
HETATM   40  C30 UNL     1      10.486  -5.976  16.678  1.00  0.00     0.004 C 
BRANCH  40  41
HETATM   41  C31 UNL     1       9.487  -5.146  15.895  1.00  0.00    -0.023 C 
HETATM   42  C32 UNL     1       9.803  -3.686  15.931  1.00  0.00     0.009 C 
HETATM   43  C33 UNL     1       9.352  -5.589  14.459  1.00  0.00     0.009 C 
ENDBRANCH  40  41
ENDBRANCH  39  40
ENDBRANCH  38  39
ENDBRANCH  37  38
ENDBRANCH  36  37
ENDBRANCH  31  36
BRANCH  26  44
HETATM   44  C21 UNL     1       8.397 -13.654  17.178  1.00  0.00     0.007 C 
HETATM   45  C22 UNL     1       9.210 -12.647  16.449  1.00  0.00     0.012 C 
HETATM   46  C23 UNL     1       9.268 -14.358  18.179  1.00  0.00     0.012 C 
ENDBRANCH  26  44
BRANCH   1  47
HETATM   47  C4  UNL     1       3.821  -7.941  15.885  1.00  0.00     0.123 C 
BRANCH  47  48
HETATM   48  S1  UNL     1       3.430  -6.252  15.652  1.00  0.00     0.019 S 
HETATM   49  O1  UNL     1       2.615  -5.983  14.210  1.00  0.00    -0.258 OA
BRANCH  48  50
HETATM   50  C3  UNL     1       4.991  -5.368  15.489  1.00  0.00     0.135 C 
BRANCH  50  51
HETATM   51  C2  UNL     1       5.434  -4.868  16.816  1.00  0.00    -0.025 C 
HETATM   52  C1  UNL     1       6.202  -5.563  17.642  1.00  0.00     0.008 C 
ENDBRANCH  50  51
ENDBRANCH  48  50
ENDBRANCH  47  48
ENDBRANCH   1  47
TORSDOF 11
ENDMDL
MODEL 4
REMARK VINA RESULT: -6.132152204      2.972      8.193
REMARK  11 active torsions:
REMARK  status: ('A' for Active; 'I' for Inactive)
REMARK    1  A    between atoms: C2_2  and  C3_3 
REMARK    2  A    between atoms: C3_3  and  S1_4 
REMARK    3  A    between atoms: S1_4  and  C4_6 
REMARK    4  A    between atoms: C4_6  and  C5_7 
REMARK    5  A    between atoms: C20_32  and  C21_33 
REMARK    6  A    between atoms: C25_40  and  C26_41 
REMARK    7  A    between atoms: C26_41  and  C27_42 
REMARK    8  A    between atoms: C27_42  and  C28_43 
REMARK    9  A    between atoms: C28_43  and  C29_44 
REMARK   10  A    between atoms: C29_44  and  C30_45 
REMARK   11  A    between atoms: C30_45  and  C31_46 
ROOT
HETATM    1  C5  UNL     1       8.472 -12.507  21.404  1.00  0.00     0.089 C 
HETATM    2  C6  UNL     1       7.271 -13.265  21.877  1.00  0.00     0.015 C 
HETATM    3  C7  UNL     1       6.572 -12.658  23.055  1.00  0.00     0.002 C 
HETATM    4  C8  UNL     1       5.207 -12.112  22.705  1.00  0.00     0.020 C 
HETATM    5  C9  UNL     1       4.296 -13.179  22.147  1.00  0.00     0.122 C 
HETATM    6  N1  UNL     1       2.894 -12.845  22.302  1.00  0.00    -0.361 N 
ATOM      7  H1  UNL     1       2.497 -12.876  23.242  1.00  0.00     0.162 HD
HETATM    8  C10 UNL     1       2.036 -12.477  21.230  1.00  0.00     0.217 C 
HETATM    9  O2  UNL     1       0.894 -12.029  21.503  1.00  0.00    -0.274 OA
HETATM   10  C11 UNL     1       2.433 -12.601  19.807  1.00  0.00     0.112 C 
HETATM   11  C12 UNL     1       1.431 -11.852  18.943  1.00  0.00     0.112 C 
HETATM   12  C13 UNL     1       1.719 -10.388  18.873  1.00  0.00     0.218 C 
HETATM   13  O3  UNL     1       0.744  -9.580  19.096  1.00  0.00    -0.274 OA
HETATM   14  N2  UNL     1       2.947  -9.794  18.587  1.00  0.00    -0.348 N 
ATOM     15  H2  UNL     1       3.240  -9.057  19.228  1.00  0.00     0.163 HD
HETATM   16  C14 UNL     1       3.859 -10.081  17.508  1.00  0.00     0.172 C 
HETATM   17  C15 UNL     1       3.251 -11.107  16.558  1.00  0.00     0.042 C 
HETATM   18  C16 UNL     1       4.274  -8.884  16.733  1.00  0.00     0.240 C 
HETATM   19  O4  UNL     1       3.577  -8.632  15.704  1.00  0.00    -0.271 OA
HETATM   20  N3  UNL     1       5.340  -8.018  17.014  1.00  0.00    -0.348 N 
ATOM     21  H3  UNL     1       5.933  -7.739  16.233  1.00  0.00     0.163 HD
HETATM   22  C17 UNL     1       5.669  -7.484  18.321  1.00  0.00     0.152 C 
HETATM   23  C18 UNL     1       4.727  -6.308  18.658  1.00  0.00     0.040 C 
HETATM   24  C19 UNL     1       7.063  -7.032  18.476  1.00  0.00     0.172 C 
HETATM   25  O5  UNL     1       7.244  -5.888  18.935  1.00  0.00    -0.293 OA
HETATM   26  C20 UNL     1       8.296  -7.777  18.151  1.00  0.00     0.159 C 
HETATM   27  N4  UNL     1       8.183  -8.801  17.170  1.00  0.00    -0.347 N 
ATOM     28  H4  UNL     1       8.213  -8.476  16.203  1.00  0.00     0.163 HD
HETATM   29  C24 UNL     1       8.038 -10.181  17.325  1.00  0.00     0.241 C 
HETATM   30  O6  UNL     1       7.436 -10.772  16.348  1.00  0.00    -0.271 OA
HETATM   31  C25 UNL     1       8.471 -11.032  18.435  1.00  0.00     0.176 C 
HETATM   32  N5  UNL     1       7.767 -10.739  19.667  1.00  0.00    -0.347 N 
ATOM     33  H5  UNL     1       6.915 -10.185  19.577  1.00  0.00     0.163 HD
HETATM   34  C34 UNL     1       8.114 -11.123  20.956  1.00  0.00     0.223 C 
HETATM   35  O7  UNL     1       8.136 -10.224  21.864  1.00  0.00    -0.273 OA
ENDROOT
BRANCH  31  36
HETATM   36  C26 UNL     1       9.954 -10.987  18.571  1.00  0.00     0.035 C 
BRANCH  36  37
HETATM   37  C27 UNL     1      10.528 -12.165  17.774  1.00  0.00     0.002 C 
BRANCH  37  38
HETATM   38  C28 UNL     1       9.757 -13.431  18.085  1.00  0.00     0.000 C 
BRANCH  38  39
HETATM   39  C29 UNL     1       9.281 -14.135  16.862  1.00  0.00     0.000 C 
BRANCH  39  40
HETATM   40  C30 UNL     1       7.854 -14.575  16.885  1.00  0.00     0.004 C 
BRANCH  40  41
HETATM   41  C31 UNL     1       7.356 -14.480  18.315  1.00  0.00    -0.023 C 
HETATM   42  C32 UNL     1       6.049 -13.763  18.419  1.00  0.00     0.009 C 
HETATM   43  C33 UNL     1       7.238 -15.827  18.986  1.00  0.00     0.009 C 
ENDBRANCH  40  41
ENDBRANCH  39  40
ENDBRANCH  38  39
ENDBRANCH  37  38
ENDBRANCH  36  37
ENDBRANCH  31  36
BRANCH  26  44
HETATM   44  C21 UNL     1       9.282  -6.712  17.626  1.00  0.00     0.007 C 
HETATM   45  C22 UNL     1      10.646  -7.240  17.372  1.00  0.00     0.012 C 
HETATM   46  C23 UNL     1       8.765  -6.060  16.376  1.00  0.00     0.012 C 
ENDBRANCH  26  44
BRANCH   1  47
HETATM   47  C4  UNL     1       9.592 -12.414  22.385  1.00  0.00     0.123 C 
BRANCH  47  48
HETATM   48  S1  UNL     1      10.918 -13.529  22.138  1.00  0.00     0.019 S 
HETATM   49  O1  UNL     1      12.006 -12.974  20.986  1.00  0.00    -0.258 OA
BRANCH  48  50
HETATM   50  C3  UNL     1      10.216 -15.035  21.444  1.00  0.00     0.135 C 
BRANCH  50  51
HETATM   51  C2  UNL     1      11.219 -15.714  20.583  1.00  0.00    -0.025 C 
HETATM   52  C1  UNL     1      10.902 -16.574  19.627  1.00  0.00     0.008 C 
ENDBRANCH  50  51
ENDBRANCH  48  50
ENDBRANCH  47  48
ENDBRANCH   1  47
TORSDOF 11
ENDMDL
MODEL 5
REMARK VINA RESULT: -6.041672637      2.679      7.058
REMARK  11 active torsions:
REMARK  status: ('A' for Active; 'I' for Inactive)
REMARK    1  A    between atoms: C2_2  and  C3_3 
REMARK    2  A    between atoms: C3_3  and  S1_4 
REMARK    3  A    between atoms: S1_4  and  C4_6 
REMARK    4  A    between atoms: C4_6  and  C5_7 
REMARK    5  A    between atoms: C20_32  and  C21_33 
REMARK    6  A    between atoms: C25_40  and  C26_41 
REMARK    7  A    between atoms: C26_41  and  C27_42 
REMARK    8  A    between atoms: C27_42  and  C28_43 
REMARK    9  A    between atoms: C28_43  and  C29_44 
REMARK   10  A    between atoms: C29_44  and  C30_45 
REMARK   11  A    between atoms: C30_45  and  C31_46 
ROOT
HETATM    1  C5  UNL     1       3.636  -8.733  17.164  1.00  0.00     0.089 C 
HETATM    2  C6  UNL     1       2.374  -8.474  17.927  1.00  0.00     0.015 C 
HETATM    3  C7  UNL     1       1.204  -9.309  17.503  1.00  0.00     0.002 C 
HETATM    4  C8  UNL     1       0.793 -10.312  18.556  1.00  0.00     0.020 C 
HETATM    5  C9  UNL     1       0.418  -9.647  19.858  1.00  0.00     0.122 C 
HETATM    6  N1  UNL     1      -0.453 -10.473  20.670  1.00  0.00    -0.361 N 
ATOM      7  H1  UNL     1      -1.417 -10.600  20.359  1.00  0.00     0.162 HD
HETATM    8  C10 UNL     1      -0.053 -11.116  21.872  1.00  0.00     0.217 C 
HETATM    9  O2  UNL     1      -0.831 -11.954  22.392  1.00  0.00    -0.274 OA
HETATM   10  C11 UNL     1       1.244 -10.838  22.537  1.00  0.00     0.112 C 
HETATM   11  C12 UNL     1       1.492 -11.892  23.605  1.00  0.00     0.112 C 
HETATM   12  C13 UNL     1       2.074 -13.147  23.045  1.00  0.00     0.218 C 
HETATM   13  O3  UNL     1       1.520 -14.259  23.378  1.00  0.00    -0.274 OA
HETATM   14  N2  UNL     1       3.169 -13.247  22.187  1.00  0.00    -0.348 N 
ATOM     15  H2  UNL     1       3.032 -13.833  21.364  1.00  0.00     0.163 HD
HETATM   16  C14 UNL     1       4.467 -12.633  22.307  1.00  0.00     0.172 C 
HETATM   17  C15 UNL     1       4.583 -11.890  23.632  1.00  0.00     0.042 C 
HETATM   18  C16 UNL     1       5.599 -13.585  22.180  1.00  0.00     0.240 C 
HETATM   19  O4  UNL     1       6.034 -14.063  23.272  1.00  0.00    -0.271 OA
HETATM   20  N3  UNL     1       6.230 -14.005  21.001  1.00  0.00    -0.348 N 
ATOM     21  H3  UNL     1       7.249 -14.037  21.002  1.00  0.00     0.163 HD
HETATM   22  C17 UNL     1       5.555 -14.396  19.779  1.00  0.00     0.152 C 
HETATM   23  C18 UNL     1       5.023 -15.840  19.916  1.00  0.00     0.040 C 
HETATM   24  C19 UNL     1       6.376 -14.309  18.559  1.00  0.00     0.172 C 
HETATM   25  O5  UNL     1       6.411 -15.313  17.822  1.00  0.00    -0.293 OA
HETATM   26  C20 UNL     1       7.176 -13.160  18.088  1.00  0.00     0.159 C 
HETATM   27  N4  UNL     1       7.611 -12.237  19.079  1.00  0.00    -0.347 N 
ATOM     28  H4  UNL     1       8.448 -12.516  19.591  1.00  0.00     0.163 HD
HETATM   29  C24 UNL     1       7.069 -11.008  19.461  1.00  0.00     0.241 C 
HETATM   30  O6  UNL     1       7.315 -10.667  20.681  1.00  0.00    -0.271 OA
HETATM   31  C25 UNL     1       6.269 -10.070  18.669  1.00  0.00     0.176 C 
HETATM   32  N5  UNL     1       4.977 -10.616  18.302  1.00  0.00    -0.347 N 
ATOM     33  H5  UNL     1       4.675 -11.443  18.817  1.00  0.00     0.163 HD
HETATM   34  C34 UNL     1       4.103 -10.147  17.330  1.00  0.00     0.223 C 
HETATM   35  O7  UNL     1       3.640 -10.987  16.485  1.00  0.00    -0.273 OA
ENDROOT
BRANCH  31  36
HETATM   36  C26 UNL     1       7.058  -9.571  17.509  1.00  0.00     0.035 C 
BRANCH  36  37
HETATM   37  C27 UNL     1       7.667  -8.222  17.910  1.00  0.00     0.002 C 
BRANCH  37  38
HETATM   38  C28 UNL     1       9.039  -8.065  17.288  1.00  0.00     0.000 C 
BRANCH  38  39
HETATM   39  C29 UNL     1       9.709  -6.791  17.676  1.00  0.00     0.000 C 
BRANCH  39  40
HETATM   40  C30 UNL     1      10.486  -6.116  16.595  1.00  0.00     0.004 C 
BRANCH  40  41
HETATM   41  C31 UNL     1       9.540  -5.213  15.828  1.00  0.00    -0.023 C 
HETATM   42  C32 UNL     1       9.937  -3.774  15.901  1.00  0.00     0.009 C 
HETATM   43  C33 UNL     1       9.390  -5.614  14.380  1.00  0.00     0.009 C 
ENDBRANCH  40  41
ENDBRANCH  39  40
ENDBRANCH  38  39
ENDBRANCH  37  38
ENDBRANCH  36  37
ENDBRANCH  31  36
BRANCH  26  44
HETATM   44  C21 UNL     1       8.424 -13.784  17.430  1.00  0.00     0.007 C 
HETATM   45  C22 UNL     1       9.090 -12.888  16.450  1.00  0.00     0.012 C 
HETATM   46  C23 UNL     1       9.426 -14.216  18.461  1.00  0.00     0.012 C 
ENDBRANCH  26  44
BRANCH   1  47
HETATM   47  C4  UNL     1       3.573  -8.422  15.706  1.00  0.00     0.123 C 
BRANCH  47  48
HETATM   48  S1  UNL     1       3.819  -6.745  15.273  1.00  0.00     0.019 S 
HETATM   49  O1  UNL     1       4.686  -5.909  16.442  1.00  0.00    -0.258 OA
BRANCH  48  50
HETATM   50  C3  UNL     1       2.195  -5.967  15.237  1.00  0.00     0.135 C 
BRANCH  50  51
HETATM   51  C2  UNL     1       2.197  -4.744  16.080  1.00  0.00    -0.025 C 
HETATM   52  C1  UNL     1       2.248  -3.515  15.588  1.00  0.00     0.008 C 
ENDBRANCH  50  51
ENDBRANCH  48  50
ENDBRANCH  47  48
ENDBRANCH   1  47
TORSDOF 11
ENDMDL
