MODEL 1
REMARK VINA RESULT: -7.831551788      0.000      0.000
REMARK  12 active torsions:
REMARK  status: ('A' for Active; 'I' for Inactive)
REMARK    1  A    between atoms: C3_3  and  C4_4 
REMARK    2  A    between atoms: C4_4  and  C5_5 
REMARK    3  A    between atoms: C5_5  and  C6_6 
REMARK    4  A    between atoms: C6_6  and  C7_7 
REMARK    5  A    between atoms: C9_12  and  C10_13 
REMARK    6  A    between atoms: C20_29  and  C21_30 
REMARK    7  A    between atoms: C21_30  and  C22_31 
REMARK    8  A    between atoms: C22_31  and  C23_32 
REMARK    9  A    between atoms: C23_32  and  C24_33 
REMARK   10  A    between atoms: C24_33  and  N4_34 
REMARK   11  A    between atoms: C26_42  and  C27_43 
REMARK   12  A    between atoms: C27_43  and  C28_44 
ROOT
HETATM    1  C1  UNL     1       3.413  -1.816  14.616  1.00  0.00     0.012 C 
HETATM    2  C2  UNL     1       2.812  -2.560  15.348  1.00  0.00    -0.117 C 
HETATM    3  C3  UNL     1       2.106  -3.478  16.230  1.00  0.00     0.093 C 
ENDROOT
BRANCH   3   4
HETATM    4  C4  UNL     1       2.637  -3.402  17.666  1.00  0.00     0.012 C 
BRANCH   4   5
HETATM    5  C5  UNL     1       3.131  -4.725  18.127  1.00  0.00     0.003 C 
BRANCH   5   6
HETATM    6  C6  UNL     1       4.563  -4.963  17.943  1.00  0.00     0.035 C 
BRANCH   6   7
HETATM    7  C7  UNL     1       5.131  -5.396  16.665  1.00  0.00     0.176 C 
HETATM    8  N1  UNL     1       5.666  -4.321  15.855  1.00  0.00    -0.346 N 
HETATM    9  C8  UNL     1       6.900  -4.188  15.226  1.00  0.00     0.241 C 
ATOM     10  H1  UNL     1       5.033  -3.532  15.723  1.00  0.00     0.163 HD
HETATM   11  O1  UNL     1       6.889  -4.197  13.927  1.00  0.00    -0.271 OA
HETATM   12  C9  UNL     1       8.245  -4.032  15.805  1.00  0.00     0.180 C 
HETATM   13  N2  UNL     1       8.446  -4.578  17.115  1.00  0.00    -0.344 N 
HETATM   14  C13 UNL     1       9.701  -5.076  17.555  1.00  0.00     0.241 C 
ATOM     15  H2  UNL     1       7.654  -4.610  17.758  1.00  0.00     0.163 HD
HETATM   16  O2  UNL     1      10.141  -4.699  18.713  1.00  0.00    -0.269 OA
HETATM   17  C14 UNL     1      10.556  -5.984  16.821  1.00  0.00     0.070 C 
HETATM   18  C15 UNL     1      10.238  -7.142  16.302  1.00  0.00    -0.021 C 
HETATM   19  C16 UNL     1       8.908  -7.777  16.362  1.00  0.00     0.029 C 
HETATM   20  C17 UNL     1       8.560  -8.240  17.752  1.00  0.00     0.023 C 
HETATM   21  C18 UNL     1       9.568  -9.181  18.279  1.00  0.00     0.123 C 
HETATM   22  N3  UNL     1       9.517 -10.534  17.845  1.00  0.00    -0.356 N 
HETATM   23  C19 UNL     1       8.441 -11.355  17.545  1.00  0.00     0.267 C 
ATOM     24  H3  UNL     1      10.429 -10.978  17.735  1.00  0.00     0.162 HD
HETATM   25  O3  UNL     1       8.557 -12.067  16.481  1.00  0.00    -0.266 OA
HETATM   26  C20 UNL     1       7.169 -11.539  18.274  1.00  0.00     0.099 C 
HETATM   27  N5  UNL     1       6.433 -12.710  17.819  1.00  0.00    -0.321 N 
HETATM   28  C25 UNL     1       5.085 -12.684  17.361  1.00  0.00     0.245 C 
ATOM     29  H5  UNL     1       6.916 -13.608  17.828  1.00  0.00     0.169 HD
HETATM   30  O4  UNL     1       4.314 -13.590  17.757  1.00  0.00    -0.271 OA
HETATM   31  C26 UNL     1       4.520 -11.660  16.446  1.00  0.00     0.177 C 
HETATM   32  N6  UNL     1       3.482 -10.863  17.012  1.00  0.00    -0.346 N 
HETATM   33  C31 UNL     1       3.584  -9.565  17.536  1.00  0.00     0.236 C 
ATOM     34  H6  UNL     1       2.555 -11.286  17.040  1.00  0.00     0.163 HD
HETATM   35  O5  UNL     1       2.877  -9.224  18.548  1.00  0.00    -0.272 OA
HETATM   36  C32 UNL     1       4.469  -8.493  17.013  1.00  0.00     0.228 C 
HETATM   37  N7  UNL     1       3.739  -7.521  16.253  1.00  0.00    -0.346 N 
HETATM   38  C33 UNL     1       2.388  -7.862  15.860  1.00  0.00     0.153 C 
HETATM   39  C34 UNL     1       4.282  -6.278  15.863  1.00  0.00     0.242 C 
HETATM   40  O6  UNL     1       4.002  -5.881  14.665  1.00  0.00    -0.271 OA
BRANCH  12  41
HETATM   41  C10 UNL     1       8.646  -2.561  15.881  1.00  0.00     0.009 C 
HETATM   42  C11 UNL     1      10.110  -2.404  15.538  1.00  0.00     0.012 C 
HETATM   43  C12 UNL     1       7.852  -1.735  14.889  1.00  0.00     0.012 C 
ENDBRANCH  12  41
BRANCH  26  44
HETATM   44  C21 UNL     1       7.184 -11.310  19.720  1.00  0.00     0.009 C 
BRANCH  44  45
HETATM   45  C22 UNL     1       7.770 -12.263  20.656  1.00  0.00     0.031 C 
BRANCH  45  46
HETATM   46  C23 UNL     1       9.131 -12.009  21.191  1.00  0.00     0.031 C 
BRANCH  46  47
HETATM   47  C24 UNL     1       9.104 -10.580  21.766  1.00  0.00     0.230 C 
BRANCH  47  48
HETATM   48  N4  UNL     1      10.453 -10.063  21.880  1.00  0.00    -0.079 N 
ATOM     49  H43 UNL     1      10.753  -9.990  22.852  1.00  0.00     0.274 HD
ATOM     50  H42 UNL     1      11.148 -10.738  21.560  1.00  0.00     0.274 HD
ATOM     51  H41 UNL     1      10.530  -9.173  21.388  1.00  0.00     0.274 HD
ENDBRANCH  47  48
ENDBRANCH  46  47
ENDBRANCH  45  46
ENDBRANCH  44  45
ENDBRANCH  26  44
BRANCH  31  52
HETATM   52  C27 UNL     1       3.924 -12.474  15.286  1.00  0.00     0.038 C 
BRANCH  52  53
HETATM   53  C28 UNL     1       3.008 -11.643  14.435  1.00  0.00    -0.020 C 
HETATM   54  C29 UNL     1       2.242 -12.637  13.552  1.00  0.00     0.009 C 
HETATM   55  C30 UNL     1       3.834 -10.787  13.501  1.00  0.00     0.009 C 
ENDBRANCH  52  53
ENDBRANCH  31  52
ENDBRANCH   6   7
ENDBRANCH   5   6
ENDBRANCH   4   5
ENDBRANCH   3   4
TORSDOF 12
ENDMDL
MODEL 2
REMARK VINA RESULT: -7.589651666      0.849      1.409
REMARK  12 active torsions:
REMARK  status: ('A' for Active; 'I' for Inactive)
REMARK    1  A    between atoms: C3_3  and  C4_4 
REMARK    2  A    between atoms: C4_4  and  C5_5 
REMARK    3  A    between atoms: C5_5  and  C6_6 
REMARK    4  A    between atoms: C6_6  and  C7_7 
REMARK    5  A    between atoms: C9_12  and  C10_13 
REMARK    6  A    between atoms: C20_29  and  C21_30 
REMARK    7  A    between atoms: C21_30  and  C22_31 
REMARK    8  A    between atoms: C22_31  and  C23_32 
REMARK    9  A    between atoms: C23_32  and  C24_33 
REMARK   10  A    between atoms: C24_33  and  N4_34 
REMARK   11  A    between atoms: C26_42  and  C27_43 
REMARK   12  A    between atoms: C27_43  and  C28_44 
ROOT
HETATM    1  C1  UNL     1       3.355  -1.848  14.654  1.00  0.00     0.012 C 
HETATM    2  C2  UNL     1       2.767  -2.597  15.391  1.00  0.00    -0.117 C 
HETATM    3  C3  UNL     1       2.076  -3.520  16.280  1.00  0.00     0.093 C 
ENDROOT
BRANCH   3   4
HETATM    4  C4  UNL     1       2.639  -3.460  17.704  1.00  0.00     0.012 C 
BRANCH   4   5
HETATM    5  C5  UNL     1       3.106  -4.797  18.155  1.00  0.00     0.003 C 
BRANCH   5   6
HETATM    6  C6  UNL     1       4.535  -5.058  17.977  1.00  0.00     0.035 C 
BRANCH   6   7
HETATM    7  C7  UNL     1       5.105  -5.473  16.694  1.00  0.00     0.176 C 
HETATM    8  N1  UNL     1       5.639  -4.387  15.899  1.00  0.00    -0.346 N 
HETATM    9  C8  UNL     1       6.874  -4.244  15.274  1.00  0.00     0.241 C 
ATOM     10  H1  UNL     1       5.005  -3.597  15.777  1.00  0.00     0.163 HD
HETATM   11  O1  UNL     1       6.864  -4.236  13.974  1.00  0.00    -0.271 OA
HETATM   12  C9  UNL     1       8.218  -4.093  15.856  1.00  0.00     0.180 C 
HETATM   13  N2  UNL     1       8.417  -4.656  17.159  1.00  0.00    -0.344 N 
HETATM   14  C13 UNL     1       9.673  -5.158  17.594  1.00  0.00     0.241 C 
ATOM     15  H2  UNL     1       7.626  -4.698  17.800  1.00  0.00     0.163 HD
HETATM   16  O2  UNL     1      10.111  -4.796  18.757  1.00  0.00    -0.269 OA
HETATM   17  C14 UNL     1      10.531  -6.055  16.850  1.00  0.00     0.070 C 
HETATM   18  C15 UNL     1      10.215  -7.206  16.315  1.00  0.00    -0.021 C 
HETATM   19  C16 UNL     1       8.886  -7.844  16.365  1.00  0.00     0.029 C 
HETATM   20  C17 UNL     1       8.537  -8.326  17.748  1.00  0.00     0.023 C 
HETATM   21  C18 UNL     1       9.546  -9.272  18.263  1.00  0.00     0.123 C 
HETATM   22  N3  UNL     1       9.497 -10.620  17.811  1.00  0.00    -0.356 N 
HETATM   23  C19 UNL     1       8.423 -11.438  17.500  1.00  0.00     0.267 C 
ATOM     24  H3  UNL     1      10.411 -11.060  17.697  1.00  0.00     0.162 HD
HETATM   25  O3  UNL     1       8.541 -12.136  16.426  1.00  0.00    -0.266 OA
HETATM   26  C20 UNL     1       7.150 -11.633  18.224  1.00  0.00     0.099 C 
HETATM   27  N5  UNL     1       6.417 -12.800  17.753  1.00  0.00    -0.321 N 
HETATM   28  C25 UNL     1       5.070 -12.770  17.294  1.00  0.00     0.245 C 
ATOM     29  H5  UNL     1       6.901 -13.697  17.751  1.00  0.00     0.169 HD
HETATM   30  O4  UNL     1       4.299 -13.682  17.677  1.00  0.00    -0.271 OA
HETATM   31  C26 UNL     1       4.504 -11.735  16.392  1.00  0.00     0.177 C 
HETATM   32  N6  UNL     1       3.465 -10.947  16.967  1.00  0.00    -0.346 N 
HETATM   33  C31 UNL     1       3.563  -9.656  17.508  1.00  0.00     0.236 C 
ATOM     34  H6  UNL     1       2.538 -11.372  16.988  1.00  0.00     0.163 HD
HETATM   35  O5  UNL     1       2.854  -9.329  18.523  1.00  0.00    -0.272 OA
HETATM   36  C32 UNL     1       4.447  -8.575  17.000  1.00  0.00     0.228 C 
HETATM   37  N7  UNL     1       3.717  -7.595  16.253  1.00  0.00    -0.346 N 
HETATM   38  C33 UNL     1       2.367  -7.933  15.853  1.00  0.00     0.153 C 
HETATM   39  C34 UNL     1       4.258  -6.346  15.880  1.00  0.00     0.242 C 
HETATM   40  O6  UNL     1       3.979  -5.934  14.686  1.00  0.00    -0.271 OA
BRANCH  12  41
HETATM   41  C10 UNL     1       8.617  -2.622  15.952  1.00  0.00     0.009 C 
HETATM   42  C11 UNL     1      10.096  -2.467  15.685  1.00  0.00     0.012 C 
HETATM   43  C12 UNL     1       7.875  -1.796  14.920  1.00  0.00     0.012 C 
ENDBRANCH  12  41
BRANCH  26  44
HETATM   44  C21 UNL     1       7.164 -11.424  19.673  1.00  0.00     0.009 C 
BRANCH  44  45
HETATM   45  C22 UNL     1       6.811 -12.477  20.619  1.00  0.00     0.031 C 
BRANCH  45  46
HETATM   46  C23 UNL     1       5.723 -12.237  21.599  1.00  0.00     0.031 C 
BRANCH  46  47
HETATM   47  C24 UNL     1       4.476 -12.943  21.034  1.00  0.00     0.230 C 
BRANCH  47  48
HETATM   48  N4  UNL     1       3.629 -11.987  20.349  1.00  0.00    -0.079 N 
ATOM     49  H43 UNL     1       2.944 -11.565  20.976  1.00  0.00     0.274 HD
ATOM     50  H42 UNL     1       4.139 -11.141  20.094  1.00  0.00     0.274 HD
ATOM     51  H41 UNL     1       3.188 -12.426  19.540  1.00  0.00     0.274 HD
ENDBRANCH  47  48
ENDBRANCH  46  47
ENDBRANCH  45  46
ENDBRANCH  44  45
ENDBRANCH  26  44
BRANCH  31  52
HETATM   52  C27 UNL     1       3.911 -12.534  15.220  1.00  0.00     0.038 C 
BRANCH  52  53
HETATM   53  C28 UNL     1       2.989 -11.696  14.384  1.00  0.00    -0.020 C 
HETATM   54  C29 UNL     1       2.268 -12.675  13.447  1.00  0.00     0.009 C 
HETATM   55  C30 UNL     1       3.808 -10.782  13.500  1.00  0.00     0.009 C 
ENDBRANCH  52  53
ENDBRANCH  31  52
ENDBRANCH   6   7
ENDBRANCH   5   6
ENDBRANCH   4   5
ENDBRANCH   3   4
TORSDOF 12
ENDMDL
MODEL 3
REMARK VINA RESULT: -6.845827281      9.341     16.201
REMARK  12 active torsions:
REMARK  status: ('A' for Active; 'I' for Inactive)
REMARK    1  A    between atoms: C3_3  and  C4_4 
REMARK    2  A    between atoms: C4_4  and  C5_5 
REMARK    3  A    between atoms: C5_5  and  C6_6 
REMARK    4  A    between atoms: C6_6  and  C7_7 
REMARK    5  A    between atoms: C9_12  and  C10_13 
REMARK    6  A    between atoms: C20_29  and  C21_30 
REMARK    7  A    between atoms: C21_30  and  C22_31 
REMARK    8  A    between atoms: C22_31  and  C23_32 
REMARK    9  A    between atoms: C23_32  and  C24_33 
REMARK   10  A    between atoms: C24_33  and  N4_34 
REMARK   11  A    between atoms: C26_42  and  C27_43 
REMARK   12  A    between atoms: C27_43  and  C28_44 
ROOT
HETATM    1  C1  UNL     1       7.968  -0.847  14.408  1.00  0.00     0.012 C 
HETATM    2  C2  UNL     1       8.304   0.148  13.818  1.00  0.00    -0.117 C 
HETATM    3  C3  UNL     1       8.690   1.347  13.089  1.00  0.00     0.093 C 
ENDROOT
BRANCH   3   4
HETATM    4  C4  UNL     1       7.911   2.576  13.572  1.00  0.00     0.012 C 
BRANCH   4   5
HETATM    5  C5  UNL     1       7.471   3.418  12.429  1.00  0.00     0.003 C 
BRANCH   5   6
HETATM    6  C6  UNL     1       6.076   3.249  12.022  1.00  0.00     0.035 C 
BRANCH   6   7
HETATM    7  C7  UNL     1       5.624   2.116  11.211  1.00  0.00     0.176 C 
HETATM    8  N1  UNL     1       5.198   0.965  11.980  1.00  0.00    -0.346 N 
HETATM    9  C8  UNL     1       4.034   0.206  11.904  1.00  0.00     0.241 C 
ATOM     10  H1  UNL     1       5.860   0.661  12.693  1.00  0.00     0.163 HD
HETATM   11  O1  UNL     1       4.171  -1.019  11.494  1.00  0.00    -0.271 OA
HETATM   12  C9  UNL     1       2.643   0.570  12.224  1.00  0.00     0.180 C 
HETATM   13  N2  UNL     1       2.303   1.958  12.108  1.00  0.00    -0.344 N 
HETATM   14  C13 UNL     1       0.999   2.403  11.763  1.00  0.00     0.241 C 
ATOM     15  H2  UNL     1       3.027   2.656  12.281  1.00  0.00     0.163 HD
HETATM   16  O2  UNL     1       0.458   3.338  12.477  1.00  0.00    -0.269 OA
HETATM   17  C14 UNL     1       0.196   1.903  10.667  1.00  0.00     0.070 C 
HETATM   18  C15 UNL     1       0.534   1.801   9.408  1.00  0.00    -0.021 C 
HETATM   19  C16 UNL     1       1.836   2.187   8.831  1.00  0.00     0.029 C 
HETATM   20  C17 UNL     1       2.036   3.679   8.823  1.00  0.00     0.023 C 
HETATM   21  C18 UNL     1       0.958   4.366   8.084  1.00  0.00     0.123 C 
HETATM   22  N3  UNL     1       1.017   4.378   6.663  1.00  0.00    -0.356 N 
HETATM   23  C19 UNL     1       2.096   4.456   5.797  1.00  0.00     0.267 C 
ATOM     24  H3  UNL     1       0.109   4.320   6.202  1.00  0.00     0.162 HD
HETATM   25  O3  UNL     1       2.066   3.657   4.790  1.00  0.00    -0.266 OA
HETATM   26  C20 UNL     1       3.286   5.329   5.855  1.00  0.00     0.099 C 
HETATM   27  N5  UNL     1       4.033   5.333   4.605  1.00  0.00    -0.321 N 
HETATM   28  C25 UNL     1       5.419   5.028   4.497  1.00  0.00     0.245 C 
ATOM     29  H5  UNL     1       3.529   5.571   3.751  1.00  0.00     0.169 HD
HETATM   30  O4  UNL     1       6.126   5.759   3.762  1.00  0.00    -0.271 OA
HETATM   31  C26 UNL     1       6.096   3.903   5.191  1.00  0.00     0.177 C 
HETATM   32  N6  UNL     1       7.093   4.296   6.131  1.00  0.00    -0.346 N 
HETATM   33  C31 UNL     1       6.974   4.381   7.526  1.00  0.00     0.236 C 
ATOM     34  H6  UNL     1       8.003   4.545   5.742  1.00  0.00     0.163 HD
HETATM   35  O5  UNL     1       7.588   5.304   8.168  1.00  0.00    -0.272 OA
HETATM   36  C32 UNL     1       6.171   3.467   8.378  1.00  0.00     0.228 C 
HETATM   37  N7  UNL     1       6.996   2.522   9.072  1.00  0.00    -0.346 N 
HETATM   38  C33 UNL     1       8.370   2.390   8.634  1.00  0.00     0.153 C 
HETATM   39  C34 UNL     1       6.525   1.715  10.130  1.00  0.00     0.242 C 
HETATM   40  O6  UNL     1       6.929   0.487  10.138  1.00  0.00    -0.271 OA
BRANCH  12  41
HETATM   41  C10 UNL     1       2.274   0.149  13.643  1.00  0.00     0.009 C 
HETATM   42  C11 UNL     1       0.929  -0.542  13.646  1.00  0.00     0.012 C 
HETATM   43  C12 UNL     1       3.292  -0.828  14.196  1.00  0.00     0.012 C 
ENDBRANCH  12  41
BRANCH  26  44
HETATM   44  C21 UNL     1       3.136   6.625   6.520  1.00  0.00     0.009 C 
BRANCH  44  45
HETATM   45  C22 UNL     1       2.115   7.591   6.129  1.00  0.00     0.031 C 
BRANCH  45  46
HETATM   46  C23 UNL     1       1.685   8.624   7.103  1.00  0.00     0.031 C 
BRANCH  46  47
HETATM   47  C24 UNL     1       0.628   7.952   8.000  1.00  0.00     0.230 C 
BRANCH  47  48
HETATM   48  N4  UNL     1      -0.526   7.571   7.211  1.00  0.00    -0.079 N 
ATOM     49  H43 UNL     1      -1.394   7.935   7.605  1.00  0.00     0.274 HD
ATOM     50  H42 UNL     1      -0.553   8.059   6.315  1.00  0.00     0.274 HD
ATOM     51  H41 UNL     1      -0.554   6.558   7.096  1.00  0.00     0.274 HD
ENDBRANCH  47  48
ENDBRANCH  46  47
ENDBRANCH  45  46
ENDBRANCH  44  45
ENDBRANCH  26  44
BRANCH  31  52
HETATM   52  C27 UNL     1       6.781   3.116   4.062  1.00  0.00     0.038 C 
BRANCH  52  53
HETATM   53  C28 UNL     1       7.777   2.128   4.596  1.00  0.00    -0.020 C 
HETATM   54  C29 UNL     1       8.517   1.577   3.370  1.00  0.00     0.009 C 
HETATM   55  C30 UNL     1       7.041   0.960   5.213  1.00  0.00     0.009 C 
ENDBRANCH  52  53
ENDBRANCH  31  52
ENDBRANCH   6   7
ENDBRANCH   5   6
ENDBRANCH   4   5
ENDBRANCH   3   4
TORSDOF 12
ENDMDL
MODEL 4
REMARK VINA RESULT: -6.280133758      3.607      8.302
REMARK  12 active torsions:
REMARK  status: ('A' for Active; 'I' for Inactive)
REMARK    1  A    between atoms: C3_3  and  C4_4 
REMARK    2  A    between atoms: C4_4  and  C5_5 
REMARK    3  A    between atoms: C5_5  and  C6_6 
REMARK    4  A    between atoms: C6_6  and  C7_7 
REMARK    5  A    between atoms: C9_12  and  C10_13 
REMARK    6  A    between atoms: C20_29  and  C21_30 
REMARK    7  A    between atoms: C21_30  and  C22_31 
REMARK    8  A    between atoms: C22_31  and  C23_32 
REMARK    9  A    between atoms: C23_32  and  C24_33 
REMARK   10  A    between atoms: C24_33  and  N4_34 
REMARK   11  A    between atoms: C26_42  and  C27_43 
REMARK   12  A    between atoms: C27_43  and  C28_44 
ROOT
HETATM    1  C1  UNL     1       3.786 -10.839  13.125  1.00  0.00     0.012 C 
HETATM    2  C2  UNL     1       3.072 -11.523  13.812  1.00  0.00    -0.117 C 
HETATM    3  C3  UNL     1       2.222 -12.371  14.635  1.00  0.00     0.093 C 
ENDROOT
BRANCH   3   4
HETATM    4  C4  UNL     1       2.883 -12.700  15.978  1.00  0.00     0.012 C 
BRANCH   4   5
HETATM    5  C5  UNL     1       1.942 -12.486  17.109  1.00  0.00     0.003 C 
BRANCH   5   6
HETATM    6  C6  UNL     1       1.357 -11.148  17.197  1.00  0.00     0.035 C 
BRANCH   6   7
HETATM    7  C7  UNL     1       1.618 -10.247  18.322  1.00  0.00     0.176 C 
HETATM    8  N1  UNL     1       0.429  -9.793  19.012  1.00  0.00    -0.346 N 
HETATM    9  C8  UNL     1       0.115  -9.787  20.367  1.00  0.00     0.241 C 
ATOM     10  H1  UNL     1      -0.298  -9.415  18.404  1.00  0.00     0.163 HD
HETATM   11  O1  UNL     1       0.015  -8.620  20.931  1.00  0.00    -0.271 OA
HETATM   12  C9  UNL     1      -0.132 -10.910  21.287  1.00  0.00     0.180 C 
HETATM   13  N2  UNL     1       0.499 -12.155  20.960  1.00  0.00    -0.344 N 
HETATM   14  C13 UNL     1       0.899 -13.095  21.947  1.00  0.00     0.241 C 
ATOM     15  H2  UNL     1       0.668 -12.375  19.979  1.00  0.00     0.163 HD
HETATM   16  O2  UNL     1       0.577 -14.338  21.779  1.00  0.00    -0.269 OA
HETATM   17  C14 UNL     1       1.647 -12.796  23.149  1.00  0.00     0.070 C 
HETATM   18  C15 UNL     1       2.783 -12.156  23.247  1.00  0.00    -0.021 C 
HETATM   19  C16 UNL     1       3.557 -11.596  22.122  1.00  0.00     0.029 C 
HETATM   20  C17 UNL     1       4.169 -12.670  21.262  1.00  0.00     0.023 C 
HETATM   21  C18 UNL     1       5.041 -13.564  22.049  1.00  0.00     0.123 C 
HETATM   22  N3  UNL     1       6.351 -13.114  22.372  1.00  0.00    -0.356 N 
HETATM   23  C19 UNL     1       7.251 -12.341  21.656  1.00  0.00     0.267 C 
ATOM     24  H3  UNL     1       6.685 -13.411  23.289  1.00  0.00     0.162 HD
HETATM   25  O3  UNL     1       7.855 -11.421  22.321  1.00  0.00    -0.266 OA
HETATM   26  C20 UNL     1       7.628 -12.418  20.230  1.00  0.00     0.099 C 
HETATM   27  N5  UNL     1       8.827 -11.649  19.931  1.00  0.00    -0.321 N 
HETATM   28  C25 UNL     1       8.904 -10.638  18.931  1.00  0.00     0.245 C 
ATOM     29  H5  UNL     1       9.668 -11.847  20.473  1.00  0.00     0.169 HD
HETATM   30  O4  UNL     1       9.916 -10.620  18.190  1.00  0.00    -0.271 OA
HETATM   31  C26 UNL     1       7.871  -9.597  18.697  1.00  0.00     0.177 C 
HETATM   32  N6  UNL     1       7.237  -9.662  17.422  1.00  0.00    -0.346 N 
HETATM   33  C31 UNL     1       5.985 -10.213  17.111  1.00  0.00     0.236 C 
ATOM     34  H6  UNL     1       7.757  -9.259  16.642  1.00  0.00     0.163 HD
HETATM   35  O5  UNL     1       5.807 -10.811  15.993  1.00  0.00    -0.272 OA
HETATM   36  C32 UNL     1       4.786 -10.172  17.987  1.00  0.00     0.228 C 
HETATM   37  N7  UNL     1       3.835  -9.195  17.545  1.00  0.00    -0.346 N 
HETATM   38  C33 UNL     1       4.281  -8.229  16.563  1.00  0.00     0.153 C 
HETATM   39  C34 UNL     1       2.514  -9.125  18.036  1.00  0.00     0.242 C 
HETATM   40  O6  UNL     1       2.048  -7.940  18.263  1.00  0.00    -0.271 OA
BRANCH  12  41
HETATM   41  C10 UNL     1      -1.625 -11.200  21.417  1.00  0.00     0.009 C 
HETATM   42  C11 UNL     1      -2.166 -10.580  22.685  1.00  0.00     0.012 C 
HETATM   43  C12 UNL     1      -2.392 -10.605  20.252  1.00  0.00     0.012 C 
ENDBRANCH  12  41
BRANCH  26  44
HETATM   44  C21 UNL     1       7.522 -13.725  19.577  1.00  0.00     0.009 C 
BRANCH  44  45
HETATM   45  C22 UNL     1       6.843 -13.906  18.299  1.00  0.00     0.031 C 
BRANCH  45  46
HETATM   46  C23 UNL     1       7.596 -14.474  17.153  1.00  0.00     0.031 C 
BRANCH  46  47
HETATM   47  C24 UNL     1       8.384 -13.302  16.537  1.00  0.00     0.230 C 
BRANCH  47  48
HETATM   48  N4  UNL     1       9.792 -13.424  16.862  1.00  0.00    -0.079 N 
ATOM     49  H43 UNL     1       9.944 -14.004  17.687  1.00  0.00     0.274 HD
ATOM     50  H42 UNL     1      10.291 -13.997  16.182  1.00  0.00     0.274 HD
ATOM     51  H41 UNL     1      10.209 -12.499  16.962  1.00  0.00     0.274 HD
ENDBRANCH  47  48
ENDBRANCH  46  47
ENDBRANCH  45  46
ENDBRANCH  44  45
ENDBRANCH  26  44
BRANCH  31  52
HETATM   52  C27 UNL     1       8.642  -8.269  18.785  1.00  0.00     0.038 C 
BRANCH  52  53
HETATM   53  C28 UNL     1       8.402  -7.405  17.581  1.00  0.00    -0.020 C 
HETATM   54  C29 UNL     1       9.791  -7.103  17.001  1.00  0.00     0.009 C 
HETATM   55  C30 UNL     1       7.825  -6.080  18.024  1.00  0.00     0.009 C 
ENDBRANCH  52  53
ENDBRANCH  31  52
ENDBRANCH   6   7
ENDBRANCH   5   6
ENDBRANCH   4   5
ENDBRANCH   3   4
TORSDOF 12
ENDMDL
MODEL 5
REMARK VINA RESULT: -6.170967106      3.684      8.609
REMARK  12 active torsions:
REMARK  status: ('A' for Active; 'I' for Inactive)
REMARK    1  A    between atoms: C3_3  and  C4_4 
REMARK    2  A    between atoms: C4_4  and  C5_5 
REMARK    3  A    between atoms: C5_5  and  C6_6 
REMARK    4  A    between atoms: C6_6  and  C7_7 
REMARK    5  A    between atoms: C9_12  and  C10_13 
REMARK    6  A    between atoms: C20_29  and  C21_30 
REMARK    7  A    between atoms: C21_30  and  C22_31 
REMARK    8  A    between atoms: C22_31  and  C23_32 
REMARK    9  A    between atoms: C23_32  and  C24_33 
REMARK   10  A    between atoms: C24_33  and  N4_34 
REMARK   11  A    between atoms: C26_42  and  C27_43 
REMARK   12  A    between atoms: C27_43  and  C28_44 
ROOT
HETATM    1  C1  UNL     1       2.780 -15.832  16.503  1.00  0.00     0.012 C 
HETATM    2  C2  UNL     1       3.165 -14.778  16.067  1.00  0.00    -0.117 C 
HETATM    3  C3  UNL     1       3.621 -13.511  15.515  1.00  0.00     0.093 C 
ENDROOT
BRANCH   3   4
HETATM    4  C4  UNL     1       2.500 -12.465  15.505  1.00  0.00     0.012 C 
BRANCH   4   5
HETATM    5  C5  UNL     1       1.864 -12.344  16.842  1.00  0.00     0.003 C 
BRANCH   5   6
HETATM    6  C6  UNL     1       1.186 -11.075  17.106  1.00  0.00     0.035 C 
BRANCH   6   7
HETATM    7  C7  UNL     1       1.484 -10.252  18.280  1.00  0.00     0.176 C 
HETATM    8  N1  UNL     1       0.315  -9.810  19.012  1.00  0.00    -0.346 N 
HETATM    9  C8  UNL     1       0.016  -9.879  20.369  1.00  0.00     0.241 C 
ATOM     10  H1  UNL     1      -0.408  -9.376  18.438  1.00  0.00     0.163 HD
HETATM   11  O1  UNL     1      -0.046  -8.747  21.004  1.00  0.00    -0.271 OA
HETATM   12  C9  UNL     1      -0.252 -11.050  21.221  1.00  0.00     0.180 C 
HETATM   13  N2  UNL     1       0.342 -12.289  20.811  1.00  0.00    -0.344 N 
HETATM   14  C13 UNL     1       0.726 -13.298  21.733  1.00  0.00     0.241 C 
ATOM     15  H2  UNL     1       0.494 -12.452  19.815  1.00  0.00     0.163 HD
HETATM   16  O2  UNL     1       0.368 -14.520  21.493  1.00  0.00    -0.269 OA
HETATM   17  C14 UNL     1       1.495 -13.094  22.941  1.00  0.00     0.070 C 
HETATM   18  C15 UNL     1       2.649 -12.492  23.064  1.00  0.00    -0.021 C 
HETATM   19  C16 UNL     1       3.426 -11.884  21.966  1.00  0.00     0.029 C 
HETATM   20  C17 UNL     1       3.999 -12.919  21.034  1.00  0.00     0.023 C 
HETATM   21  C18 UNL     1       4.855 -13.883  21.755  1.00  0.00     0.123 C 
HETATM   22  N3  UNL     1       6.180 -13.488  22.088  1.00  0.00    -0.356 N 
HETATM   23  C19 UNL     1       7.093 -12.698  21.410  1.00  0.00     0.267 C 
ATOM     24  H3  UNL     1       6.516 -13.850  22.981  1.00  0.00     0.162 HD
HETATM   25  O3  UNL     1       7.729 -11.836  22.122  1.00  0.00    -0.266 OA
HETATM   26  C20 UNL     1       7.452 -12.697  19.976  1.00  0.00     0.099 C 
HETATM   27  N5  UNL     1       8.669 -11.943  19.710  1.00  0.00    -0.321 N 
HETATM   28  C25 UNL     1       8.762 -10.874  18.773  1.00  0.00     0.245 C 
ATOM     29  H5  UNL     1       9.509 -12.196  20.229  1.00  0.00     0.169 HD
HETATM   30  O4  UNL     1       9.766 -10.838  18.023  1.00  0.00    -0.271 OA
HETATM   31  C26 UNL     1       7.756  -9.793  18.617  1.00  0.00     0.177 C 
HETATM   32  N6  UNL     1       7.107  -9.763  17.348  1.00  0.00    -0.346 N 
HETATM   33  C31 UNL     1       5.837 -10.260  17.019  1.00  0.00     0.236 C 
ATOM     34  H6  UNL     1       7.629  -9.327  16.587  1.00  0.00     0.163 HD
HETATM   35  O5  UNL     1       5.630 -10.783  15.869  1.00  0.00    -0.272 OA
HETATM   36  C32 UNL     1       4.649 -10.241  17.911  1.00  0.00     0.228 C 
HETATM   37  N7  UNL     1       3.720  -9.214  17.542  1.00  0.00    -0.346 N 
HETATM   38  C33 UNL     1       4.182  -8.202  16.615  1.00  0.00     0.153 C 
HETATM   39  C34 UNL     1       2.407  -9.139  18.052  1.00  0.00     0.242 C 
HETATM   40  O6  UNL     1       1.976  -7.958  18.357  1.00  0.00    -0.271 OA
BRANCH  12  41
HETATM   41  C10 UNL     1      -1.751 -11.307  21.351  1.00  0.00     0.009 C 
HETATM   42  C11 UNL     1      -2.324 -10.475  22.475  1.00  0.00     0.012 C 
HETATM   43  C12 UNL     1      -2.475 -10.921  20.078  1.00  0.00     0.012 C 
ENDBRANCH  12  41
BRANCH  26  44
HETATM   44  C21 UNL     1       7.303 -13.957  19.246  1.00  0.00     0.009 C 
BRANCH  44  45
HETATM   45  C22 UNL     1       6.516 -14.063  18.023  1.00  0.00     0.031 C 
BRANCH  45  46
HETATM   46  C23 UNL     1       7.167 -13.792  16.717  1.00  0.00     0.031 C 
BRANCH  46  47
HETATM   47  C24 UNL     1       8.595 -14.359  16.826  1.00  0.00     0.230 C 
BRANCH  47  48
HETATM   48  N4  UNL     1       9.557 -13.378  16.365  1.00  0.00    -0.079 N 
ATOM     49  H43 UNL     1      10.046 -13.689  15.525  1.00  0.00     0.274 HD
ATOM     50  H42 UNL     1       9.102 -12.552  15.976  1.00  0.00     0.274 HD
ATOM     51  H41 UNL     1      10.204 -13.141  17.117  1.00  0.00     0.274 HD
ENDBRANCH  47  48
ENDBRANCH  46  47
ENDBRANCH  45  46
ENDBRANCH  44  45
ENDBRANCH  26  44
BRANCH  31  52
HETATM   52  C27 UNL     1       8.564  -8.495  18.776  1.00  0.00     0.038 C 
BRANCH  52  53
HETATM   53  C28 UNL     1       8.355  -7.563  17.618  1.00  0.00    -0.020 C 
HETATM   54  C29 UNL     1       9.759  -7.212  17.107  1.00  0.00     0.009 C 
HETATM   55  C30 UNL     1       7.745  -6.273  18.118  1.00  0.00     0.009 C 
ENDBRANCH  52  53
ENDBRANCH  31  52
ENDBRANCH   6   7
ENDBRANCH   5   6
ENDBRANCH   4   5
ENDBRANCH   3   4
TORSDOF 12
ENDMDL
