MODEL 1
REMARK VINA RESULT: -5.397526157      0.000      0.000
REMARK  13 active torsions:
REMARK  status: ('A' for Active; 'I' for Inactive)
REMARK    1  A    between atoms: C2_2  and  C4_4 
REMARK    2  A    between atoms: C4_4  and  C5_5 
REMARK    3  A    between atoms: C6_8  and  O1_9 
REMARK    4  A    between atoms: C7_11  and  C8_12 
REMARK    5  A    between atoms: C8_12  and  C9_13 
REMARK    6  A    between atoms: C12_18  and  O2_19 
REMARK    7  A    between atoms: C13_21  and  C14_22 
REMARK    8  A    between atoms: C14_22  and  C15_23 
REMARK    9  A    between atoms: C20_30  and  C21_31 
REMARK   10  A    between atoms: C21_31  and  C22_32 
REMARK   11  A    between atoms: C24_39  and  C25_40 
REMARK   12  A    between atoms: C25_40  and  C26_41 
REMARK   13  A    between atoms: C30_48  and  C31_49 
ROOT
HETATM    1  C5  UNL     1       3.581  -8.598  17.386  1.00  0.00     0.175 C 
HETATM    2  N1  UNL     1       2.711  -9.122  18.448  1.00  0.00    -0.359 N 
ATOM      3  H1  UNL     1       2.344  -8.361  19.019  1.00  0.00     0.162 HD
HETATM    4  C6  UNL     1       2.254 -10.305  18.890  1.00  0.00     0.135 C 
HETATM    5  C7  UNL     1       1.103 -11.214  18.487  1.00  0.00     0.158 C 
HETATM    6  N2  UNL     1       0.737 -11.115  17.145  1.00  0.00    -0.361 N 
ATOM      7  H2  UNL     1       0.403 -10.194  16.865  1.00  0.00     0.162 HD
HETATM    8  C12 UNL     1       0.750 -12.075  16.105  1.00  0.00     0.135 C 
HETATM    9  C13 UNL     1       1.677 -13.213  15.934  1.00  0.00     0.161 C 
HETATM   10  N3  UNL     1       1.488 -14.293  16.889  1.00  0.00    -0.343 N 
HETATM   11  C18 UNL     1       0.136 -14.758  17.171  1.00  0.00     0.153 C 
HETATM   12  C19 UNL     1       2.552 -14.959  17.562  1.00  0.00     0.243 C 
HETATM   13  O3  UNL     1       2.565 -16.244  17.550  1.00  0.00    -0.271 OA
HETATM   14  C20 UNL     1       3.666 -14.328  18.287  1.00  0.00     0.185 C 
HETATM   15  N5  UNL     1       4.968 -14.880  17.982  1.00  0.00    -0.346 N 
ATOM     16  H5  UNL     1       5.166 -15.801  18.375  1.00  0.00     0.163 HD
HETATM   17  C23 UNL     1       5.985 -14.312  17.220  1.00  0.00     0.241 C 
HETATM   18  O5  UNL     1       6.547 -15.068  16.350  1.00  0.00    -0.271 OA
HETATM   19  C24 UNL     1       6.502 -12.914  17.298  1.00  0.00     0.177 C 
HETATM   20  N6  UNL     1       6.454 -12.345  18.600  1.00  0.00    -0.346 N 
ATOM     21  H6  UNL     1       6.449 -13.026  19.358  1.00  0.00     0.163 HD
HETATM   22  C29 UNL     1       6.412 -11.017  19.016  1.00  0.00     0.241 C 
HETATM   23  O6  UNL     1       6.386 -10.844  20.303  1.00  0.00    -0.271 OA
HETATM   24  C30 UNL     1       6.392  -9.780  18.243  1.00  0.00     0.180 C 
HETATM   25  N7  UNL     1       5.795  -9.836  16.941  1.00  0.00    -0.346 N 
ATOM     26  H7  UNL     1       6.387 -10.060  16.143  1.00  0.00     0.163 HD
HETATM   27  C34 UNL     1       4.382  -9.587  16.708  1.00  0.00     0.241 C 
HETATM   28  O7  UNL     1       3.904 -10.342  15.833  1.00  0.00    -0.271 OA
ENDROOT
BRANCH   1  29
HETATM   29  C4  UNL     1       2.779  -7.661  16.532  1.00  0.00     0.038 C 
BRANCH  29  30
HETATM   30  C2  UNL     1       3.467  -6.830  15.530  1.00  0.00    -0.020 C 
HETATM   31  C1  UNL     1       2.678  -5.918  14.658  1.00  0.00     0.009 C 
HETATM   32  C3  UNL     1       4.539  -5.940  16.192  1.00  0.00     0.009 C 
ENDBRANCH  29  30
ENDBRANCH   1  29
BRANCH   4  33
HETATM   33  O1  UNL     1       2.890 -10.845  19.890  1.00  0.00    -0.348 OA
ATOM     34  H1  UNL     1       3.181 -10.260  20.580  1.00  0.00     0.219 HD
ENDBRANCH   4  33
BRANCH   5  35
HETATM   35  C8  UNL     1      -0.021 -10.949  19.466  1.00  0.00     0.037 C 
BRANCH  35  36
HETATM   36  C9  UNL     1      -0.638 -12.050  20.199  1.00  0.00    -0.020 C 
HETATM   37  C10 UNL     1       0.216 -13.257  20.417  1.00  0.00     0.009 C 
HETATM   38  C11 UNL     1      -1.828 -12.538  19.325  1.00  0.00     0.009 C 
ENDBRANCH  35  36
ENDBRANCH   5  35
BRANCH  24  39
HETATM   39  C31 UNL     1       7.792  -9.149  18.225  1.00  0.00     0.009 C 
HETATM   40  C32 UNL     1       8.473  -9.370  16.908  1.00  0.00     0.012 C 
HETATM   41  C33 UNL     1       7.670  -7.637  18.408  1.00  0.00     0.012 C 
ENDBRANCH  24  39
BRANCH   8  42
HETATM   42  O2  UNL     1      -0.149 -11.970  15.169  1.00  0.00    -0.348 OA
ATOM     43  H2  UNL     1       0.006 -12.429  14.353  1.00  0.00     0.219 HD
ENDBRANCH   8  42
BRANCH   9  44
HETATM   44  C14 UNL     1       1.486 -13.743  14.513  1.00  0.00     0.037 C 
BRANCH  44  45
HETATM   45  C15 UNL     1       2.648 -13.581  13.614  1.00  0.00    -0.020 C 
HETATM   46  C16 UNL     1       2.376 -14.497  12.398  1.00  0.00     0.009 C 
HETATM   47  C17 UNL     1       2.663 -12.179  13.016  1.00  0.00     0.009 C 
ENDBRANCH  44  45
ENDBRANCH   9  44
BRANCH  19  48
HETATM   48  C25 UNL     1       7.890 -12.842  16.739  1.00  0.00     0.038 C 
BRANCH  48  49
HETATM   49  C26 UNL     1       9.013 -13.190  17.641  1.00  0.00    -0.020 C 
HETATM   50  C27 UNL     1       9.702 -14.464  17.075  1.00  0.00     0.009 C 
HETATM   51  C28 UNL     1      10.138 -12.167  17.658  1.00  0.00     0.009 C 
ENDBRANCH  48  49
ENDBRANCH  19  48
BRANCH  14  52
HETATM   52  C21 UNL     1       3.491 -14.418  19.777  1.00  0.00     0.134 C 
BRANCH  52  53
HETATM   53  C22 UNL     1       4.605 -14.987  20.521  1.00  0.00     0.233 C 
HETATM   54  N4  UNL     1       5.692 -14.203  20.986  1.00  0.00    -0.062 NA
HETATM   55  O4  UNL     1       4.625 -16.215  20.772  1.00  0.00    -0.277 OA
ENDBRANCH  52  53
ENDBRANCH  14  52
TORSDOF 13
ENDMDL
MODEL 2
REMARK VINA RESULT: -5.068831529      0.975      1.220
REMARK  13 active torsions:
REMARK  status: ('A' for Active; 'I' for Inactive)
REMARK    1  A    between atoms: C2_2  and  C4_4 
REMARK    2  A    between atoms: C4_4  and  C5_5 
REMARK    3  A    between atoms: C6_8  and  O1_9 
REMARK    4  A    between atoms: C7_11  and  C8_12 
REMARK    5  A    between atoms: C8_12  and  C9_13 
REMARK    6  A    between atoms: C12_18  and  O2_19 
REMARK    7  A    between atoms: C13_21  and  C14_22 
REMARK    8  A    between atoms: C14_22  and  C15_23 
REMARK    9  A    between atoms: C20_30  and  C21_31 
REMARK   10  A    between atoms: C21_31  and  C22_32 
REMARK   11  A    between atoms: C24_39  and  C25_40 
REMARK   12  A    between atoms: C25_40  and  C26_41 
REMARK   13  A    between atoms: C30_48  and  C31_49 
ROOT
HETATM    1  C5  UNL     1       4.107  -8.729  16.937  1.00  0.00     0.175 C 
HETATM    2  N1  UNL     1       3.144  -9.264  17.908  1.00  0.00    -0.359 N 
ATOM      3  H1  UNL     1       2.666  -8.505  18.394  1.00  0.00     0.162 HD
HETATM    4  C6  UNL     1       2.705 -10.455  18.347  1.00  0.00     0.135 C 
HETATM    5  C7  UNL     1       1.667 -11.449  17.851  1.00  0.00     0.158 C 
HETATM    6  N2  UNL     1       1.465 -11.427  16.471  1.00  0.00    -0.361 N 
ATOM      7  H2  UNL     1       1.115 -10.541  16.109  1.00  0.00     0.162 HD
HETATM    8  C12 UNL     1       1.662 -12.426  15.487  1.00  0.00     0.135 C 
HETATM    9  C13 UNL     1       2.668 -13.508  15.484  1.00  0.00     0.161 C 
HETATM   10  N3  UNL     1       2.424 -14.559  16.459  1.00  0.00    -0.343 N 
HETATM   11  C18 UNL     1       1.076 -15.097  16.597  1.00  0.00     0.153 C 
HETATM   12  C19 UNL     1       3.433 -15.129  17.287  1.00  0.00     0.243 C 
HETATM   13  O3  UNL     1       3.521 -16.411  17.337  1.00  0.00    -0.271 OA
HETATM   14  C20 UNL     1       4.410 -14.401  18.111  1.00  0.00     0.185 C 
HETATM   15  N5  UNL     1       5.770 -14.882  17.993  1.00  0.00    -0.346 N 
ATOM     16  H5  UNL     1       5.970 -15.772  18.450  1.00  0.00     0.163 HD
HETATM   17  C23 UNL     1       6.838 -14.282  17.334  1.00  0.00     0.241 C 
HETATM   18  O5  UNL     1       7.547 -15.035  16.575  1.00  0.00    -0.271 OA
HETATM   19  C24 UNL     1       7.260 -12.852  17.408  1.00  0.00     0.177 C 
HETATM   20  N6  UNL     1       7.018 -12.235  18.665  1.00  0.00    -0.346 N 
ATOM     21  H6  UNL     1       6.959 -12.885  19.449  1.00  0.00     0.163 HD
HETATM   22  C29 UNL     1       6.849 -10.898  19.010  1.00  0.00     0.241 C 
HETATM   23  O6  UNL     1       6.654 -10.676  20.275  1.00  0.00    -0.271 OA
HETATM   24  C30 UNL     1       6.854  -9.696  18.183  1.00  0.00     0.180 C 
HETATM   25  N7  UNL     1       6.427  -9.842  16.822  1.00  0.00    -0.346 N 
ATOM     26  H7  UNL     1       7.126 -10.060  16.113  1.00  0.00     0.163 HD
HETATM   27  C34 UNL     1       5.042  -9.692  16.408  1.00  0.00     0.241 C 
HETATM   28  O7  UNL     1       4.720 -10.510  15.518  1.00  0.00    -0.271 OA
ENDROOT
BRANCH   1  29
HETATM   29  C4  UNL     1       3.365  -7.879  15.948  1.00  0.00     0.038 C 
BRANCH  29  30
HETATM   30  C2  UNL     1       2.627  -6.697  16.424  1.00  0.00    -0.020 C 
HETATM   31  C1  UNL     1       3.305  -5.708  17.306  1.00  0.00     0.009 C 
HETATM   32  C3  UNL     1       2.071  -5.879  15.240  1.00  0.00     0.009 C 
ENDBRANCH  29  30
ENDBRANCH   1  29
BRANCH   4  33
HETATM   33  O1  UNL     1       3.242 -10.913  19.442  1.00  0.00    -0.348 OA
ATOM     34  H1  UNL     1       3.872 -10.351  19.878  1.00  0.00     0.219 HD
ENDBRANCH   4  33
BRANCH   5  35
HETATM   35  C8  UNL     1       0.417 -11.217  18.672  1.00  0.00     0.037 C 
BRANCH  35  36
HETATM   36  C9  UNL     1      -0.221 -12.324  19.378  1.00  0.00    -0.020 C 
HETATM   37  C10 UNL     1       0.667 -13.469  19.746  1.00  0.00     0.009 C 
HETATM   38  C11 UNL     1      -1.271 -12.915  18.396  1.00  0.00     0.009 C 
ENDBRANCH  35  36
ENDBRANCH   5  35
BRANCH  24  39
HETATM   39  C31 UNL     1       8.206  -8.979  18.305  1.00  0.00     0.009 C 
HETATM   40  C32 UNL     1       8.957  -9.004  17.007  1.00  0.00     0.012 C 
HETATM   41  C33 UNL     1       7.973  -7.509  18.650  1.00  0.00     0.012 C 
ENDBRANCH  24  39
BRANCH   8  42
HETATM   42  O2  UNL     1       0.882 -12.414  14.445  1.00  0.00    -0.348 OA
ATOM     43  H2  UNL     1       1.286 -12.479  13.589  1.00  0.00     0.219 HD
ENDBRANCH   8  42
BRANCH   9  44
HETATM   44  C14 UNL     1       2.685 -14.106  14.077  1.00  0.00     0.037 C 
BRANCH  44  45
HETATM   45  C15 UNL     1       2.501 -15.570  14.008  1.00  0.00    -0.020 C 
HETATM   46  C16 UNL     1       1.496 -15.819  12.859  1.00  0.00     0.009 C 
HETATM   47  C17 UNL     1       3.779 -16.242  13.522  1.00  0.00     0.009 C 
ENDBRANCH  44  45
ENDBRANCH   9  44
BRANCH  19  48
HETATM   48  C25 UNL     1       8.701 -12.715  17.018  1.00  0.00     0.038 C 
BRANCH  48  49
HETATM   49  C26 UNL     1       9.715 -12.809  18.095  1.00  0.00    -0.020 C 
HETATM   50  C27 UNL     1      10.559 -14.091  17.844  1.00  0.00     0.009 C 
HETATM   51  C28 UNL     1      10.756 -11.700  18.069  1.00  0.00     0.009 C 
ENDBRANCH  48  49
ENDBRANCH  19  48
BRANCH  14  52
HETATM   52  C21 UNL     1       4.057 -14.443  19.572  1.00  0.00     0.134 C 
BRANCH  52  53
HETATM   53  C22 UNL     1       5.098 -14.918  20.470  1.00  0.00     0.233 C 
HETATM   54  N4  UNL     1       6.065 -14.052  21.044  1.00  0.00    -0.062 NA
HETATM   55  O4  UNL     1       5.162 -16.136  20.763  1.00  0.00    -0.277 OA
ENDBRANCH  52  53
ENDBRANCH  14  52
TORSDOF 13
ENDMDL
MODEL 3
REMARK VINA RESULT: -4.851744893      1.479      2.000
REMARK  13 active torsions:
REMARK  status: ('A' for Active; 'I' for Inactive)
REMARK    1  A    between atoms: C2_2  and  C4_4 
REMARK    2  A    between atoms: C4_4  and  C5_5 
REMARK    3  A    between atoms: C6_8  and  O1_9 
REMARK    4  A    between atoms: C7_11  and  C8_12 
REMARK    5  A    between atoms: C8_12  and  C9_13 
REMARK    6  A    between atoms: C12_18  and  O2_19 
REMARK    7  A    between atoms: C13_21  and  C14_22 
REMARK    8  A    between atoms: C14_22  and  C15_23 
REMARK    9  A    between atoms: C20_30  and  C21_31 
REMARK   10  A    between atoms: C21_31  and  C22_32 
REMARK   11  A    between atoms: C24_39  and  C25_40 
REMARK   12  A    between atoms: C25_40  and  C26_41 
REMARK   13  A    between atoms: C30_48  and  C31_49 
ROOT
HETATM    1  C5  UNL     1       4.175  -9.477  17.120  1.00  0.00     0.175 C 
HETATM    2  N1  UNL     1       3.132  -9.400  18.153  1.00  0.00    -0.359 N 
ATOM      3  H1  UNL     1       2.992  -8.434  18.448  1.00  0.00     0.162 HD
HETATM    4  C6  UNL     1       2.310 -10.222  18.824  1.00  0.00     0.135 C 
HETATM    5  C7  UNL     1       0.955 -10.843  18.521  1.00  0.00     0.158 C 
HETATM    6  N2  UNL     1       0.706 -11.042  17.163  1.00  0.00    -0.361 N 
ATOM      7  H2  UNL     1       0.688 -10.188  16.608  1.00  0.00     0.162 HD
HETATM    8  C12 UNL     1       0.473 -12.227  16.425  1.00  0.00     0.135 C 
HETATM    9  C13 UNL     1       1.009 -13.578  16.687  1.00  0.00     0.161 C 
HETATM   10  N3  UNL     1       0.446 -14.232  17.858  1.00  0.00    -0.343 N 
HETATM   11  C18 UNL     1      -0.996 -14.192  18.065  1.00  0.00     0.153 C 
HETATM   12  C19 UNL     1       1.216 -14.945  18.821  1.00  0.00     0.243 C 
HETATM   13  O3  UNL     1       0.830 -16.127  19.149  1.00  0.00    -0.271 OA
HETATM   14  C20 UNL     1       2.433 -14.473  19.499  1.00  0.00     0.185 C 
HETATM   15  N5  UNL     1       3.513 -15.435  19.531  1.00  0.00    -0.346 N 
ATOM     16  H5  UNL     1       3.395 -16.217  20.175  1.00  0.00     0.163 HD
HETATM   17  C23 UNL     1       4.693 -15.426  18.793  1.00  0.00     0.241 C 
HETATM   18  O5  UNL     1       5.036 -16.530  18.237  1.00  0.00    -0.271 OA
HETATM   19  C24 UNL     1       5.613 -14.272  18.570  1.00  0.00     0.177 C 
HETATM   20  N6  UNL     1       5.679 -13.358  19.656  1.00  0.00    -0.346 N 
ATOM     21  H6  UNL     1       5.425 -13.758  20.560  1.00  0.00     0.163 HD
HETATM   22  C29 UNL     1       6.029 -12.013  19.699  1.00  0.00     0.241 C 
HETATM   23  O6  UNL     1       5.995 -11.472  20.879  1.00  0.00    -0.271 OA
HETATM   24  C30 UNL     1       6.433 -11.103  18.633  1.00  0.00     0.180 C 
HETATM   25  N7  UNL     1       5.914 -11.365  17.322  1.00  0.00    -0.346 N 
ATOM     26  H7  UNL     1       6.448 -11.971  16.700  1.00  0.00     0.163 HD
HETATM   27  C34 UNL     1       4.663 -10.806  16.842  1.00  0.00     0.241 C 
HETATM   28  O7  UNL     1       4.018 -11.616  16.139  1.00  0.00    -0.271 OA
ENDROOT
BRANCH   1  29
HETATM   29  C4  UNL     1       3.747  -8.644  15.948  1.00  0.00     0.038 C 
BRANCH  29  30
HETATM   30  C2  UNL     1       3.476  -7.210  16.144  1.00  0.00    -0.020 C 
HETATM   31  C1  UNL     1       4.540  -6.325  16.691  1.00  0.00     0.009 C 
HETATM   32  C3  UNL     1       3.029  -6.547  14.824  1.00  0.00     0.009 C 
ENDBRANCH  29  30
ENDBRANCH   1  29
BRANCH   4  33
HETATM   33  O1  UNL     1       2.696 -10.603  20.008  1.00  0.00    -0.348 OA
ATOM     34  H1  UNL     1       3.104 -11.459  20.072  1.00  0.00     0.219 HD
ENDBRANCH   4  33
BRANCH   5  35
HETATM   35  C8  UNL     1      -0.078  -9.998  19.233  1.00  0.00     0.037 C 
BRANCH  35  36
HETATM   36  C9  UNL     1      -0.897 -10.570  20.297  1.00  0.00    -0.020 C 
HETATM   37  C10 UNL     1      -2.375 -10.558  20.069  1.00  0.00     0.009 C 
HETATM   38  C11 UNL     1      -0.665  -9.678  21.549  1.00  0.00     0.009 C 
ENDBRANCH  35  36
ENDBRANCH   5  35
BRANCH  24  39
HETATM   39  C31 UNL     1       7.959 -10.927  18.640  1.00  0.00     0.009 C 
HETATM   40  C32 UNL     1       8.527 -11.028  17.256  1.00  0.00     0.012 C 
HETATM   41  C33 UNL     1       8.308  -9.533  19.158  1.00  0.00     0.012 C 
ENDBRANCH  24  39
BRANCH   8  42
HETATM   42  O2  UNL     1      -0.301 -12.149  15.380  1.00  0.00    -0.348 OA
ATOM     43  H2  UNL     1      -0.259 -12.854  14.745  1.00  0.00     0.219 HD
ENDBRANCH   8  42
BRANCH   9  44
HETATM   44  C14 UNL     1       0.734 -14.424  15.444  1.00  0.00     0.037 C 
BRANCH  44  45
HETATM   45  C15 UNL     1       1.934 -14.911  14.730  1.00  0.00    -0.020 C 
HETATM   46  C16 UNL     1       2.245 -13.850  13.649  1.00  0.00     0.009 C 
HETATM   47  C17 UNL     1       3.151 -14.862  15.646  1.00  0.00     0.009 C 
ENDBRANCH  44  45
ENDBRANCH   9  44
BRANCH  19  48
HETATM   48  C25 UNL     1       6.981 -14.763  18.206  1.00  0.00     0.038 C 
BRANCH  48  49
HETATM   49  C26 UNL     1       7.396 -14.653  16.788  1.00  0.00    -0.020 C 
HETATM   50  C27 UNL     1       8.942 -14.481  16.755  1.00  0.00     0.009 C 
HETATM   51  C28 UNL     1       7.172 -15.918  15.973  1.00  0.00     0.009 C 
ENDBRANCH  48  49
ENDBRANCH  19  48
BRANCH  14  52
HETATM   52  C21 UNL     1       2.164 -14.070  20.923  1.00  0.00     0.134 C 
BRANCH  52  53
HETATM   53  C22 UNL     1       2.998 -14.699  21.935  1.00  0.00     0.233 C 
HETATM   54  N4  UNL     1       4.245 -14.158  22.341  1.00  0.00    -0.062 NA
HETATM   55  O4  UNL     1       2.618 -15.760  22.485  1.00  0.00    -0.277 OA
ENDBRANCH  52  53
ENDBRANCH  14  52
TORSDOF 13
ENDMDL
MODEL 4
REMARK VINA RESULT: -4.850626783      1.853      6.743
REMARK  13 active torsions:
REMARK  status: ('A' for Active; 'I' for Inactive)
REMARK    1  A    between atoms: C2_2  and  C4_4 
REMARK    2  A    between atoms: C4_4  and  C5_5 
REMARK    3  A    between atoms: C6_8  and  O1_9 
REMARK    4  A    between atoms: C7_11  and  C8_12 
REMARK    5  A    between atoms: C8_12  and  C9_13 
REMARK    6  A    between atoms: C12_18  and  O2_19 
REMARK    7  A    between atoms: C13_21  and  C14_22 
REMARK    8  A    between atoms: C14_22  and  C15_23 
REMARK    9  A    between atoms: C20_30  and  C21_31 
REMARK   10  A    between atoms: C21_31  and  C22_32 
REMARK   11  A    between atoms: C24_39  and  C25_40 
REMARK   12  A    between atoms: C25_40  and  C26_41 
REMARK   13  A    between atoms: C30_48  and  C31_49 
ROOT
HETATM    1  C5  UNL     1       6.778  -9.514  17.843  1.00  0.00     0.175 C 
HETATM    2  N1  UNL     1       7.447 -10.546  17.040  1.00  0.00    -0.359 N 
ATOM      3  H1  UNL     1       8.238 -10.149  16.533  1.00  0.00     0.162 HD
HETATM    4  C6  UNL     1       7.327 -11.857  16.773  1.00  0.00     0.135 C 
HETATM    5  C7  UNL     1       7.783 -13.126  17.476  1.00  0.00     0.158 C 
HETATM    6  N2  UNL     1       7.903 -13.004  18.860  1.00  0.00    -0.361 N 
ATOM      7  H2  UNL     1       8.594 -12.320  19.165  1.00  0.00     0.162 HD
HETATM    8  C12 UNL     1       7.230 -13.668  19.913  1.00  0.00     0.135 C 
HETATM    9  C13 UNL     1       5.847 -14.188  19.920  1.00  0.00     0.161 C 
HETATM   10  N3  UNL     1       5.643 -15.363  19.088  1.00  0.00    -0.343 N 
HETATM   11  C18 UNL     1       6.610 -16.451  19.150  1.00  0.00     0.153 C 
HETATM   12  C19 UNL     1       4.528 -15.542  18.219  1.00  0.00     0.243 C 
HETATM   13  O3  UNL     1       3.877 -16.648  18.290  1.00  0.00    -0.271 OA
HETATM   14  C20 UNL     1       4.024 -14.581  17.226  1.00  0.00     0.185 C 
HETATM   15  N5  UNL     1       2.589 -14.396  17.246  1.00  0.00    -0.346 N 
ATOM     16  H5  UNL     1       2.034 -15.162  16.863  1.00  0.00     0.163 HD
HETATM   17  C23 UNL     1       1.871 -13.302  17.723  1.00  0.00     0.241 C 
HETATM   18  O5  UNL     1       0.863 -13.556  18.474  1.00  0.00    -0.271 OA
HETATM   19  C24 UNL     1       2.140 -11.858  17.460  1.00  0.00     0.177 C 
HETATM   20  N6  UNL     1       2.695 -11.591  16.179  1.00  0.00    -0.346 N 
ATOM     21  H6  UNL     1       2.496 -12.302  15.476  1.00  0.00     0.163 HD
HETATM   22  C29 UNL     1       3.464 -10.526  15.720  1.00  0.00     0.241 C 
HETATM   23  O6  UNL     1       3.800 -10.589  14.467  1.00  0.00    -0.271 OA
HETATM   24  C30 UNL     1       3.956  -9.342  16.416  1.00  0.00     0.180 C 
HETATM   25  N7  UNL     1       4.204  -9.469  17.822  1.00  0.00    -0.346 N 
ATOM     26  H7  UNL     1       3.446  -9.258  18.471  1.00  0.00     0.163 HD
HETATM   27  C34 UNL     1       5.486  -9.886  18.364  1.00  0.00     0.241 C 
HETATM   28  O7  UNL     1       5.362 -10.630  19.362  1.00  0.00    -0.271 OA
ENDROOT
BRANCH   1  29
HETATM   29  C4  UNL     1       7.773  -8.948  18.814  1.00  0.00     0.038 C 
BRANCH  29  30
HETATM   30  C2  UNL     1       8.368  -7.627  18.549  1.00  0.00    -0.020 C 
HETATM   31  C1  UNL     1       9.343  -7.466  17.436  1.00  0.00     0.009 C 
HETATM   32  C3  UNL     1       7.275  -6.570  18.294  1.00  0.00     0.009 C 
ENDBRANCH  29  30
ENDBRANCH   1  29
BRANCH   4  33
HETATM   33  O1  UNL     1       6.697 -12.180  15.680  1.00  0.00    -0.348 OA
ATOM     34  H1  UNL     1       7.208 -12.197  14.879  1.00  0.00     0.219 HD
ENDBRANCH   4  33
BRANCH   5  35
HETATM   35  C8  UNL     1       9.043 -13.582  16.773  1.00  0.00     0.037 C 
BRANCH  35  36
HETATM   36  C9  UNL     1       9.188 -14.967  16.338  1.00  0.00    -0.020 C 
HETATM   37  C10 UNL     1       7.919 -15.709  16.067  1.00  0.00     0.009 C 
HETATM   38  C11 UNL     1       9.864 -15.722  17.517  1.00  0.00     0.009 C 
ENDBRANCH  35  36
ENDBRANCH   5  35
BRANCH  24  39
HETATM   39  C31 UNL     1       3.077  -8.128  16.078  1.00  0.00     0.009 C 
HETATM   40  C32 UNL     1       2.631  -7.415  17.319  1.00  0.00     0.012 C 
HETATM   41  C33 UNL     1       3.888  -7.124  15.261  1.00  0.00     0.012 C 
ENDBRANCH  24  39
BRANCH   8  42
HETATM   42  O2  UNL     1       7.879 -13.856  21.026  1.00  0.00    -0.348 OA
ATOM     43  H2  UNL     1       7.634 -13.328  21.776  1.00  0.00     0.219 HD
ENDBRANCH   8  42
BRANCH   9  44
HETATM   44  C14 UNL     1       5.493 -14.516  21.370  1.00  0.00     0.037 C 
BRANCH  44  45
HETATM   45  C15 UNL     1       4.194 -13.991  21.840  1.00  0.00    -0.020 C 
HETATM   46  C16 UNL     1       3.764 -14.905  23.010  1.00  0.00     0.009 C 
HETATM   47  C17 UNL     1       4.380 -12.628  22.495  1.00  0.00     0.009 C 
ENDBRANCH  44  45
ENDBRANCH   9  44
BRANCH  19  48
HETATM   48  C25 UNL     1       0.896 -11.052  17.677  1.00  0.00     0.038 C 
BRANCH  48  49
HETATM   49  C26 UNL     1       0.827 -10.211  18.896  1.00  0.00    -0.020 C 
HETATM   50  C27 UNL     1      -0.585 -10.394  19.521  1.00  0.00     0.009 C 
HETATM   51  C28 UNL     1       1.759 -10.654  20.012  1.00  0.00     0.009 C 
ENDBRANCH  48  49
ENDBRANCH  19  48
BRANCH  14  52
HETATM   52  C21 UNL     1       4.393 -14.975  15.823  1.00  0.00     0.134 C 
BRANCH  52  53
HETATM   53  C22 UNL     1       3.299 -15.049  14.868  1.00  0.00     0.233 C 
HETATM   54  N4  UNL     1       2.870 -13.930  14.109  1.00  0.00    -0.062 NA
HETATM   55  O4  UNL     1       2.697 -16.135  14.692  1.00  0.00    -0.277 OA
ENDBRANCH  52  53
ENDBRANCH  14  52
TORSDOF 13
ENDMDL
MODEL 5
REMARK VINA RESULT: -4.742571092      2.077      4.693
REMARK  13 active torsions:
REMARK  status: ('A' for Active; 'I' for Inactive)
REMARK    1  A    between atoms: C2_2  and  C4_4 
REMARK    2  A    between atoms: C4_4  and  C5_5 
REMARK    3  A    between atoms: C6_8  and  O1_9 
REMARK    4  A    between atoms: C7_11  and  C8_12 
REMARK    5  A    between atoms: C8_12  and  C9_13 
REMARK    6  A    between atoms: C12_18  and  O2_19 
REMARK    7  A    between atoms: C13_21  and  C14_22 
REMARK    8  A    between atoms: C14_22  and  C15_23 
REMARK    9  A    between atoms: C20_30  and  C21_31 
REMARK   10  A    between atoms: C21_31  and  C22_32 
REMARK   11  A    between atoms: C24_39  and  C25_40 
REMARK   12  A    between atoms: C25_40  and  C26_41 
REMARK   13  A    between atoms: C30_48  and  C31_49 
ROOT
HETATM    1  C5  UNL     1       3.084 -11.236  14.465  1.00  0.00     0.175 C 
HETATM    2  N1  UNL     1       2.084 -12.049  15.171  1.00  0.00    -0.359 N 
ATOM      3  H1  UNL     1       1.154 -11.888  14.783  1.00  0.00     0.162 HD
HETATM    4  C6  UNL     1       2.029 -12.940  16.174  1.00  0.00     0.135 C 
HETATM    5  C7  UNL     1       2.267 -14.439  16.273  1.00  0.00     0.158 C 
HETATM    6  N2  UNL     1       3.170 -14.940  15.336  1.00  0.00    -0.361 N 
ATOM      7  H2  UNL     1       2.880 -14.823  14.365  1.00  0.00     0.162 HD
HETATM    8  C12 UNL     1       4.420 -15.582  15.501  1.00  0.00     0.135 C 
HETATM    9  C13 UNL     1       5.409 -15.377  16.580  1.00  0.00     0.161 C 
HETATM   10  N3  UNL     1       5.002 -15.899  17.875  1.00  0.00    -0.343 N 
HETATM   11  C18 UNL     1       4.416 -17.232  17.949  1.00  0.00     0.153 C 
HETATM   12  C19 UNL     1       5.162 -15.198  19.105  1.00  0.00     0.243 C 
HETATM   13  O3  UNL     1       5.711 -15.819  20.087  1.00  0.00    -0.271 OA
HETATM   14  C20 UNL     1       4.763 -13.810  19.384  1.00  0.00     0.185 C 
HETATM   15  N5  UNL     1       5.769 -13.022  20.063  1.00  0.00    -0.346 N 
ATOM     16  H5  UNL     1       5.912 -13.235  21.051  1.00  0.00     0.163 HD
HETATM   17  C23 UNL     1       6.566 -12.010  19.537  1.00  0.00     0.241 C 
HETATM   18  O5  UNL     1       7.817 -12.054  19.818  1.00  0.00    -0.271 OA
HETATM   19  C24 UNL     1       6.133 -10.871  18.676  1.00  0.00     0.177 C 
HETATM   20  N6  UNL     1       4.817 -10.404  18.944  1.00  0.00    -0.346 N 
ATOM     21  H6  UNL     1       4.480 -10.607  19.884  1.00  0.00     0.163 HD
HETATM   22  C29 UNL     1       3.911  -9.716  18.143  1.00  0.00     0.241 C 
HETATM   23  O6  UNL     1       2.781  -9.426  18.714  1.00  0.00    -0.271 OA
HETATM   24  C30 UNL     1       4.019  -9.264  16.760  1.00  0.00     0.180 C 
HETATM   25  N7  UNL     1       4.859 -10.031  15.888  1.00  0.00    -0.346 N 
ATOM     26  H7  UNL     1       5.843  -9.775  15.812  1.00  0.00     0.163 HD
HETATM   27  C34 UNL     1       4.372 -11.156  15.109  1.00  0.00     0.241 C 
HETATM   28  O7  UNL     1       5.204 -12.088  15.048  1.00  0.00    -0.271 OA
ENDROOT
BRANCH   1  29
HETATM   29  C4  UNL     1       3.065 -11.613  13.013  1.00  0.00     0.038 C 
BRANCH  29  30
HETATM   30  C2  UNL     1       1.902 -12.336  12.470  1.00  0.00    -0.020 C 
HETATM   31  C1  UNL     1       1.212 -11.820  11.257  1.00  0.00     0.009 C 
HETATM   32  C3  UNL     1       2.264 -13.800  12.146  1.00  0.00     0.009 C 
ENDBRANCH  29  30
ENDBRANCH   1  29
BRANCH   4  33
HETATM   33  O1  UNL     1       1.697 -12.484  17.348  1.00  0.00    -0.348 OA
ATOM     34  H1  UNL     1       1.724 -13.100  18.071  1.00  0.00     0.219 HD
ENDBRANCH   4  33
BRANCH   5  35
HETATM   35  C8  UNL     1       0.904 -15.096  16.245  1.00  0.00     0.037 C 
BRANCH  35  36
HETATM   36  C9  UNL     1       0.238 -15.366  14.975  1.00  0.00    -0.020 C 
HETATM   37  C10 UNL     1      -0.920 -14.482  14.638  1.00  0.00     0.009 C 
HETATM   38  C11 UNL     1      -0.357 -16.797  15.094  1.00  0.00     0.009 C 
ENDBRANCH  35  36
ENDBRANCH   5  35
BRANCH  24  39
HETATM   39  C31 UNL     1       4.340  -7.762  16.721  1.00  0.00     0.009 C 
HETATM   40  C32 UNL     1       3.189  -6.972  16.176  1.00  0.00     0.012 C 
HETATM   41  C33 UNL     1       4.586  -7.258  18.142  1.00  0.00     0.012 C 
ENDBRANCH  24  39
BRANCH   8  42
HETATM   42  O2  UNL     1       4.773 -16.463  14.610  1.00  0.00    -0.348 OA
ATOM     43  H2  UNL     1       4.087 -16.959  14.181  1.00  0.00     0.219 HD
ENDBRANCH   8  42
BRANCH   9  44
HETATM   44  C14 UNL     1       6.708 -16.050  16.139  1.00  0.00     0.037 C 
BRANCH  44  45
HETATM   45  C15 UNL     1       7.939 -15.525  16.764  1.00  0.00    -0.020 C 
HETATM   46  C16 UNL     1       9.088 -15.850  15.782  1.00  0.00     0.009 C 
HETATM   47  C17 UNL     1       7.909 -14.001  16.794  1.00  0.00     0.009 C 
ENDBRANCH  44  45
ENDBRANCH   9  44
BRANCH  19  48
HETATM   48  C25 UNL     1       7.122  -9.749  18.764  1.00  0.00     0.038 C 
BRANCH  48  49
HETATM   49  C26 UNL     1       7.881  -9.405  17.538  1.00  0.00    -0.020 C 
HETATM   50  C27 UNL     1       8.261  -7.899  17.620  1.00  0.00     0.009 C 
HETATM   51  C28 UNL     1       9.231 -10.096  17.426  1.00  0.00     0.009 C 
ENDBRANCH  48  49
ENDBRANCH  19  48
BRANCH  14  52
HETATM   52  C21 UNL     1       3.516 -13.740  20.221  1.00  0.00     0.134 C 
BRANCH  52  53
HETATM   53  C22 UNL     1       3.604 -12.951  21.440  1.00  0.00     0.233 C 
HETATM   54  N4  UNL     1       3.274 -11.572  21.481  1.00  0.00    -0.062 NA
HETATM   55  O4  UNL     1       3.983 -13.491  22.507  1.00  0.00    -0.277 OA
ENDBRANCH  52  53
ENDBRANCH  14  52
TORSDOF 13
ENDMDL
