MODEL 1
REMARK VINA RESULT: -5.869912232      0.000      0.000
REMARK  3 active torsions:
REMARK  status: ('A' for Active; 'I' for Inactive)
REMARK    1  A    between atoms: C7_12  and  C8_13 
REMARK    2  A    between atoms: C8_13  and  O1_14 
REMARK    3  A    between atoms: C8_13  and  C10_18 
ROOT
HETATM    1  C8  UNL     1     144.926  71.215  65.589  1.00  0.00     0.263 C 
HETATM    2  C9  UNL     1     145.383  69.873  65.950  1.00  0.00     0.112 C 
HETATM    3  N4  UNL     1     145.750  68.810  66.257  1.00  0.00    -0.193 NA
ENDROOT
BRANCH   1   4
HETATM    4  C7  UNL     1     146.133  72.064  65.281  1.00  0.00     0.240 C 
HETATM    5  N3  UNL     1     145.947  73.460  65.636  1.00  0.00    -0.376 N 
HETATM    6  C6  UNL     1     145.820  74.338  64.546  1.00  0.00     0.076 C 
ATOM      7  H3  UNL     1     145.912  73.780  66.603  1.00  0.00     0.160 HD
HETATM    8  C5  UNL     1     146.350  75.712  64.624  1.00  0.00     0.158 C 
HETATM    9  N2  UNL     1     147.756  75.906  64.658  1.00  0.00    -0.417 N 
HETATM   10  C4  UNL     1     148.469  75.048  65.538  1.00  0.00     0.115 C 
ATOM     11  H2  UNL     1     148.222  76.613  64.091  1.00  0.00     0.153 HD
HETATM   12  C3  UNL     1     149.834  75.555  65.946  1.00  0.00     0.038 C 
HETATM   13  C2  UNL     1     150.433  74.353  66.706  1.00  0.00     0.118 C 
HETATM   14  N1  UNL     1     149.395  73.657  67.396  1.00  0.00    -0.412 N 
HETATM   15  C1  UNL     1     149.245  74.001  68.769  1.00  0.00     0.143 C 
HETATM   16  C12 UNL     1     149.215  72.295  67.069  1.00  0.00     0.160 C 
HETATM   17  C11 UNL     1     147.763  71.890  67.075  1.00  0.00     0.077 C 
HETATM   18  N6  UNL     1     147.233  71.437  65.877  1.00  0.00    -0.376 N 
ATOM     19  H6  UNL     1     147.656  70.628  65.420  1.00  0.00     0.160 HD
ENDBRANCH   1   4
BRANCH   1  20
HETATM   20  O1  UNL     1     144.093  71.739  66.547  1.00  0.00    -0.365 OA
ATOM     21  H1  UNL     1     143.182  71.802  66.284  1.00  0.00     0.212 HD
ENDBRANCH   1  20
BRANCH   1  22
HETATM   22  C10 UNL     1     144.137  71.094  64.329  1.00  0.00     0.284 C 
HETATM   23  N5  UNL     1     143.529  69.872  63.944  1.00  0.00    -0.058 NA
HETATM   24  O2  UNL     1     143.968  72.063  63.543  1.00  0.00    -0.272 OA
ENDBRANCH   1  22
TORSDOF 3
ENDMDL
MODEL 2
REMARK VINA RESULT: -5.833577475      1.030      1.049
REMARK  3 active torsions:
REMARK  status: ('A' for Active; 'I' for Inactive)
REMARK    1  A    between atoms: C7_12  and  C8_13 
REMARK    2  A    between atoms: C8_13  and  O1_14 
REMARK    3  A    between atoms: C8_13  and  C10_18 
ROOT
HETATM    1  C8  UNL     1     144.587  72.038  65.270  1.00  0.00     0.263 C 
HETATM    2  C9  UNL     1     144.777  70.621  65.578  1.00  0.00     0.112 C 
HETATM    3  N4  UNL     1     144.930  69.497  65.844  1.00  0.00    -0.193 NA
ENDROOT
BRANCH   1   4
HETATM    4  C7  UNL     1     145.941  72.664  65.052  1.00  0.00     0.240 C 
HETATM    5  N3  UNL     1     146.008  74.041  65.511  1.00  0.00    -0.376 N 
HETATM    6  C6  UNL     1     146.083  75.004  64.492  1.00  0.00     0.076 C 
ATOM      7  H3  UNL     1     146.001  74.289  66.500  1.00  0.00     0.160 HD
HETATM    8  C5  UNL     1     146.858  76.244  64.687  1.00  0.00     0.158 C 
HETATM    9  N2  UNL     1     148.273  76.166  64.763  1.00  0.00    -0.417 N 
HETATM   10  C4  UNL     1     148.784  75.126  65.586  1.00  0.00     0.115 C 
ATOM     11  H2  UNL     1     148.882  76.813  64.262  1.00  0.00     0.153 HD
HETATM   12  C3  UNL     1     150.205  75.336  66.058  1.00  0.00     0.038 C 
HETATM   13  C2  UNL     1     150.544  73.990  66.733  1.00  0.00     0.118 C 
HETATM   14  N1  UNL     1     149.372  73.453  67.346  1.00  0.00    -0.412 N 
HETATM   15  C1  UNL     1     149.242  73.717  68.740  1.00  0.00     0.143 C 
HETATM   16  C12 UNL     1     148.951  72.177  66.910  1.00  0.00     0.160 C 
HETATM   17  C11 UNL     1     147.450  72.055  66.857  1.00  0.00     0.077 C 
HETATM   18  N6  UNL     1     146.885  71.799  65.618  1.00  0.00    -0.376 N 
ATOM     19  H6  UNL     1     147.164  70.961  65.107  1.00  0.00     0.160 HD
ENDBRANCH   1   4
BRANCH   1  20
HETATM   20  O1  UNL     1     143.819  72.664  66.221  1.00  0.00    -0.365 OA
ATOM     21  H1  UNL     1     144.035  73.578  66.362  1.00  0.00     0.212 HD
ENDBRANCH   1  20
BRANCH   1  22
HETATM   22  C10 UNL     1     143.850  72.119  63.976  1.00  0.00     0.284 C 
HETATM   23  N5  UNL     1     143.185  73.304  63.569  1.00  0.00    -0.058 NA
HETATM   24  O2  UNL     1     143.778  71.147  63.178  1.00  0.00    -0.272 OA
ENDBRANCH   1  22
TORSDOF 3
ENDMDL
MODEL 3
REMARK VINA RESULT: -5.830087522      4.009      6.644
REMARK  3 active torsions:
REMARK  status: ('A' for Active; 'I' for Inactive)
REMARK    1  A    between atoms: C7_12  and  C8_13 
REMARK    2  A    between atoms: C8_13  and  O1_14 
REMARK    3  A    between atoms: C8_13  and  C10_18 
ROOT
HETATM    1  C8  UNL     1     152.680  73.213  64.977  1.00  0.00     0.263 C 
HETATM    2  C9  UNL     1     152.984  74.032  66.150  1.00  0.00     0.112 C 
HETATM    3  N4  UNL     1     153.222  74.669  67.097  1.00  0.00    -0.193 NA
ENDROOT
BRANCH   1   4
HETATM    4  C7  UNL     1     151.194  73.274  64.725  1.00  0.00     0.240 C 
HETATM    5  N3  UNL     1     150.411  73.220  65.947  1.00  0.00    -0.376 N 
HETATM    6  C6  UNL     1     149.704  72.023  66.147  1.00  0.00     0.076 C 
ATOM      7  H3  UNL     1     150.377  73.994  66.611  1.00  0.00     0.160 HD
HETATM    8  C5  UNL     1     148.390  72.031  66.817  1.00  0.00     0.158 C 
HETATM    9  N2  UNL     1     147.281  72.613  66.150  1.00  0.00    -0.417 N 
HETATM   10  C4  UNL     1     147.531  73.868  65.531  1.00  0.00     0.115 C 
ATOM     11  H2  UNL     1     146.367  72.162  66.117  1.00  0.00     0.153 HD
HETATM   12  C3  UNL     1     146.294  74.698  65.266  1.00  0.00     0.038 C 
HETATM   13  C2  UNL     1     146.843  75.870  64.425  1.00  0.00     0.118 C 
HETATM   14  N1  UNL     1     148.168  76.186  64.851  1.00  0.00    -0.412 N 
HETATM   15  C1  UNL     1     148.266  77.265  65.775  1.00  0.00     0.143 C 
HETATM   16  C12 UNL     1     149.187  76.103  63.877  1.00  0.00     0.160 C 
HETATM   17  C11 UNL     1     150.483  75.581  64.445  1.00  0.00     0.077 C 
HETATM   18  N6  UNL     1     150.965  74.393  63.916  1.00  0.00    -0.376 N 
ATOM     19  H6  UNL     1     151.157  74.335  62.916  1.00  0.00     0.160 HD
ENDBRANCH   1   4
BRANCH   1  20
HETATM   20  O1  UNL     1     153.182  71.942  65.105  1.00  0.00    -0.365 OA
ATOM     21  H1  UNL     1     153.668  71.790  65.908  1.00  0.00     0.212 HD
ENDBRANCH   1  20
BRANCH   1  22
HETATM   22  C10 UNL     1     153.353  73.845  63.805  1.00  0.00     0.284 C 
HETATM   23  N5  UNL     1     153.486  73.166  62.567  1.00  0.00    -0.058 NA
HETATM   24  O2  UNL     1     153.836  75.006  63.850  1.00  0.00    -0.272 OA
ENDBRANCH   1  22
TORSDOF 3
ENDMDL
MODEL 4
REMARK VINA RESULT: -5.769971008      2.796      5.408
REMARK  3 active torsions:
REMARK  status: ('A' for Active; 'I' for Inactive)
REMARK    1  A    between atoms: C7_12  and  C8_13 
REMARK    2  A    between atoms: C8_13  and  O1_14 
REMARK    3  A    between atoms: C8_13  and  C10_18 
ROOT
HETATM    1  C8  UNL     1     150.259  73.212  67.087  1.00  0.00     0.263 C 
HETATM    2  C9  UNL     1     150.990  74.440  67.396  1.00  0.00     0.112 C 
HETATM    3  N4  UNL     1     151.568  75.417  67.663  1.00  0.00    -0.193 NA
ENDROOT
BRANCH   1   4
HETATM    4  C7  UNL     1     148.815  73.566  66.838  1.00  0.00     0.240 C 
HETATM    5  N3  UNL     1     148.493  73.671  65.425  1.00  0.00    -0.376 N 
HETATM    6  C6  UNL     1     148.250  74.976  64.966  1.00  0.00     0.076 C 
ATOM      7  H3  UNL     1     148.448  72.857  64.812  1.00  0.00     0.160 HD
HETATM    8  C5  UNL     1     147.260  75.225  63.902  1.00  0.00     0.158 C 
HETATM    9  N2  UNL     1     145.883  75.032  64.185  1.00  0.00    -0.417 N 
HETATM   10  C4  UNL     1     145.565  73.840  64.890  1.00  0.00     0.115 C 
ATOM     11  H2  UNL     1     145.170  75.704  63.901  1.00  0.00     0.153 HD
HETATM   12  C3  UNL     1     144.126  73.394  64.759  1.00  0.00     0.038 C 
HETATM   13  C2  UNL     1     144.035  72.231  65.770  1.00  0.00     0.118 C 
HETATM   14  N1  UNL     1     145.281  71.536  65.814  1.00  0.00    -0.412 N 
HETATM   15  C1  UNL     1     145.350  70.365  65.007  1.00  0.00     0.143 C 
HETATM   16  C12 UNL     1     145.931  71.472  67.066  1.00  0.00     0.160 C 
HETATM   17  C11 UNL     1     147.430  71.571  66.940  1.00  0.00     0.077 C 
HETATM   18  N6  UNL     1     148.041  72.650  67.561  1.00  0.00    -0.376 N 
ATOM     19  H6  UNL     1     147.925  72.778  68.566  1.00  0.00     0.160 HD
ENDBRANCH   1   4
BRANCH   1  20
HETATM   20  O1  UNL     1     150.450  72.254  68.051  1.00  0.00    -0.365 OA
ATOM     21  H1  UNL     1     149.808  72.267  68.751  1.00  0.00     0.212 HD
ENDBRANCH   1  20
BRANCH   1  22
HETATM   22  C10 UNL     1     150.808  72.676  65.808  1.00  0.00     0.284 C 
HETATM   23  N5  UNL     1     150.753  71.294  65.494  1.00  0.00    -0.058 NA
HETATM   24  O2  UNL     1     151.348  73.415  64.943  1.00  0.00    -0.272 OA
ENDBRANCH   1  22
TORSDOF 3
ENDMDL
MODEL 5
REMARK VINA RESULT: -5.507302137      3.185      4.731
REMARK  3 active torsions:
REMARK  status: ('A' for Active; 'I' for Inactive)
REMARK    1  A    between atoms: C7_12  and  C8_13 
REMARK    2  A    between atoms: C8_13  and  O1_14 
REMARK    3  A    between atoms: C8_13  and  C10_18 
ROOT
HETATM    1  C8  UNL     1     144.565  66.665  64.619  1.00  0.00     0.263 C 
HETATM    2  C9  UNL     1     145.751  65.951  65.093  1.00  0.00     0.112 C 
HETATM    3  N4  UNL     1     146.692  65.390  65.490  1.00  0.00    -0.193 NA
ENDROOT
BRANCH   1   4
HETATM    4  C7  UNL     1     144.962  68.080  64.285  1.00  0.00     0.240 C 
HETATM    5  N3  UNL     1     143.889  69.035  64.507  1.00  0.00    -0.376 N 
HETATM    6  C6  UNL     1     143.323  69.573  63.339  1.00  0.00     0.076 C 
ATOM      7  H3  UNL     1     143.571  69.294  65.440  1.00  0.00     0.160 HD
HETATM    8  C5  UNL     1     142.833  70.964  63.316  1.00  0.00     0.158 C 
HETATM    9  N2  UNL     1     143.771  72.026  63.390  1.00  0.00    -0.417 N 
HETATM   10  C4  UNL     1     144.789  71.874  64.370  1.00  0.00     0.115 C 
ATOM     11  H2  UNL     1     143.719  72.842  62.781  1.00  0.00     0.153 HD
HETATM   12  C3  UNL     1     145.462  73.163  64.786  1.00  0.00     0.038 C 
HETATM   13  C2  UNL     1     146.625  72.671  65.673  1.00  0.00     0.118 C 
HETATM   14  N1  UNL     1     146.225  71.497  66.380  1.00  0.00    -0.412 N 
HETATM   15  C1  UNL     1     145.768  71.717  67.710  1.00  0.00     0.143 C 
HETATM   16  C12 UNL     1     146.995  70.332  66.168  1.00  0.00     0.160 C 
HETATM   17  C11 UNL     1     146.153  69.082  66.152  1.00  0.00     0.077 C 
HETATM   18  N6  UNL     1     146.149  68.344  64.978  1.00  0.00    -0.376 N 
ATOM     19  H6  UNL     1     147.031  67.985  64.612  1.00  0.00     0.160 HD
ENDBRANCH   1   4
BRANCH   1  20
HETATM   20  O1  UNL     1     143.525  66.561  65.509  1.00  0.00    -0.365 OA
ATOM     21  H1  UNL     1     142.735  66.177  65.147  1.00  0.00     0.212 HD
ENDBRANCH   1  20
BRANCH   1  22
HETATM   22  C10 UNL     1     144.132  66.016  63.347  1.00  0.00     0.284 C 
HETATM   23  N5  UNL     1     145.021  65.228  62.572  1.00  0.00    -0.058 NA
HETATM   24  O2  UNL     1     142.963  66.131  62.895  1.00  0.00    -0.272 OA
ENDBRANCH   1  22
TORSDOF 3
ENDMDL
