MODEL 1
REMARK VINA RESULT: -7.864235553      0.000      0.000
REMARK  3 active torsions:
REMARK  status: ('A' for Active; 'I' for Inactive)
REMARK    1  A    between atoms: C3_7  and  C4_8 
REMARK    2  A    between atoms: N2_9  and  C5_11 
REMARK    3  A    between atoms: C6_12  and  O3_13 
ROOT
HETATM    1  C4  UNL     1     145.054  67.834  64.470  1.00  0.00     0.085 C 
HETATM    2  N2  UNL     1     144.635  68.638  65.396  1.00  0.00    -0.360 N 
ATOM      3  H2  UNL     1     144.248  68.240  66.251  1.00  0.00     0.165 HD
ENDROOT
BRANCH   2   4
HETATM    4  C5  UNL     1     144.691  70.040  65.270  1.00  0.00     0.152 A 
HETATM    5  C6  UNL     1     143.787  70.710  64.472  1.00  0.00     0.177 A 
HETATM    6  N3  UNL     1     143.838  72.066  64.348  1.00  0.00    -0.287 N 
HETATM    7  C7  UNL     1     144.773  72.764  65.006  1.00  0.00     0.329 A 
ATOM      8  H3  UNL     1     143.163  72.550  63.755  1.00  0.00     0.172 HD
HETATM    9  O4  UNL     1     144.852  74.033  64.914  1.00  0.00    -0.247 OA
HETATM   10  N4  UNL     1     145.671  72.144  65.793  1.00  0.00    -0.273 N 
HETATM   11  C8  UNL     1     145.636  70.791  65.929  1.00  0.00     0.280 A 
ATOM     12  H4  UNL     1     146.378  72.687  66.288  1.00  0.00     0.173 HD
HETATM   13  O5  UNL     1     146.480  70.242  66.665  1.00  0.00    -0.265 OA
BRANCH   5  14
HETATM   14  O3  UNL     1     142.833  69.948  63.808  1.00  0.00    -0.344 OA
ATOM     15  H3  UNL     1     141.943  69.975  64.140  1.00  0.00     0.219 HD
ENDBRANCH   5  14
ENDBRANCH   2   4
BRANCH   1  16
HETATM   16  C3  UNL     1     144.980  66.352  64.638  1.00  0.00     0.209 C 
HETATM   17  C2  UNL     1     144.138  65.844  63.522  1.00  0.00     0.243 C 
HETATM   18  N1  UNL     1     144.626  66.049  62.202  1.00  0.00    -0.278 N 
HETATM   19  O2  UNL     1     143.038  65.257  63.738  1.00  0.00    -0.272 OA
HETATM   20  C1  UNL     1     146.023  66.144  61.965  1.00  0.00     0.329 C 
ATOM     21  H1  UNL     1     143.972  66.129  61.423  1.00  0.00     0.173 HD
HETATM   22  O1  UNL     1     146.498  66.323  60.820  1.00  0.00    -0.247 OA
HETATM   23  N5  UNL     1     146.882  66.024  63.103  1.00  0.00    -0.278 N 
HETATM   24  C9  UNL     1     146.360  65.819  64.410  1.00  0.00     0.243 C 
ATOM     25  H5  UNL     1     147.892  66.087  62.973  1.00  0.00     0.173 HD
HETATM   26  O6  UNL     1     147.011  65.236  65.305  1.00  0.00    -0.272 OA
ENDBRANCH   1  16
TORSDOF 3
ENDMDL
MODEL 2
REMARK VINA RESULT: -7.843100684      3.136      6.671
REMARK  3 active torsions:
REMARK  status: ('A' for Active; 'I' for Inactive)
REMARK    1  A    between atoms: C3_7  and  C4_8 
REMARK    2  A    between atoms: N2_9  and  C5_11 
REMARK    3  A    between atoms: C6_12  and  O3_13 
ROOT
HETATM    1  C4  UNL     1     147.234  72.831  65.791  1.00  0.00     0.085 C 
HETATM    2  N2  UNL     1     146.033  72.503  66.149  1.00  0.00    -0.360 N 
ATOM      3  H2  UNL     1     145.643  72.921  66.994  1.00  0.00     0.165 HD
ENDROOT
BRANCH   2   4
HETATM    4  C5  UNL     1     145.241  71.592  65.421  1.00  0.00     0.152 A 
HETATM    5  C6  UNL     1     144.479  72.021  64.355  1.00  0.00     0.177 A 
HETATM    6  N3  UNL     1     143.713  71.145  63.648  1.00  0.00    -0.287 N 
HETATM    7  C7  UNL     1     143.695  69.848  63.985  1.00  0.00     0.329 A 
ATOM      8  H3  UNL     1     143.153  71.475  62.862  1.00  0.00     0.172 HD
HETATM    9  O4  UNL     1     142.990  68.999  63.348  1.00  0.00    -0.247 OA
HETATM   10  N4  UNL     1     144.427  69.394  65.019  1.00  0.00    -0.273 N 
HETATM   11  C8  UNL     1     145.197  70.254  65.737  1.00  0.00     0.280 A 
ATOM     12  H4  UNL     1     144.405  68.404  65.265  1.00  0.00     0.173 HD
HETATM   13  O5  UNL     1     145.866  69.807  66.690  1.00  0.00    -0.265 OA
BRANCH   5  14
HETATM   14  O3  UNL     1     144.526  73.375  64.039  1.00  0.00    -0.344 OA
ATOM     15  H3  UNL     1     143.716  73.867  64.107  1.00  0.00     0.219 HD
ENDBRANCH   5  14
ENDBRANCH   2   4
BRANCH   1  16
HETATM   16  C3  UNL     1     148.044  73.800  66.587  1.00  0.00     0.209 C 
HETATM   17  C2  UNL     1     148.821  72.994  67.567  1.00  0.00     0.243 C 
HETATM   18  N1  UNL     1     149.759  72.066  67.037  1.00  0.00    -0.278 N 
HETATM   19  O2  UNL     1     148.653  73.129  68.814  1.00  0.00    -0.272 OA
HETATM   20  C1  UNL     1     150.364  72.305  65.774  1.00  0.00     0.329 C 
ATOM     21  H1  UNL     1     149.999  71.226  67.564  1.00  0.00     0.173 HD
HETATM   22  O1  UNL     1     151.196  71.517  65.269  1.00  0.00    -0.247 OA
HETATM   23  N5  UNL     1     149.981  73.502  65.089  1.00  0.00    -0.278 N 
HETATM   24  C9  UNL     1     149.039  74.409  65.649  1.00  0.00     0.243 C 
ATOM     25  H5  UNL     1     150.393  73.709  64.180  1.00  0.00     0.173 HD
HETATM   26  O6  UNL     1     149.042  75.630  65.373  1.00  0.00    -0.272 OA
ENDBRANCH   1  16
TORSDOF 3
ENDMDL
MODEL 3
REMARK VINA RESULT: -7.834378020      0.109      1.806
REMARK  3 active torsions:
REMARK  status: ('A' for Active; 'I' for Inactive)
REMARK    1  A    between atoms: C3_7  and  C4_8 
REMARK    2  A    between atoms: N2_9  and  C5_11 
REMARK    3  A    between atoms: C6_12  and  O3_13 
ROOT
HETATM    1  C4  UNL     1     144.905  67.817  64.393  1.00  0.00     0.085 C 
HETATM    2  N2  UNL     1     144.698  68.633  65.377  1.00  0.00    -0.360 N 
ATOM      3  H2  UNL     1     144.527  68.246  66.306  1.00  0.00     0.165 HD
ENDROOT
BRANCH   2   4
HETATM    4  C5  UNL     1     144.701  70.034  65.221  1.00  0.00     0.152 A 
HETATM    5  C6  UNL     1     145.603  70.815  65.910  1.00  0.00     0.177 A 
HETATM    6  N3  UNL     1     145.609  72.169  65.762  1.00  0.00    -0.287 N 
HETATM    7  C7  UNL     1     144.731  72.757  64.937  1.00  0.00     0.329 A 
ATOM      8  H3  UNL     1     146.282  72.737  66.278  1.00  0.00     0.172 HD
HETATM    9  O4  UNL     1     144.706  74.020  64.773  1.00  0.00    -0.247 OA
HETATM   10  N4  UNL     1     143.836  72.025  64.247  1.00  0.00    -0.273 N 
HETATM   11  C8  UNL     1     143.815  70.672  64.384  1.00  0.00     0.280 A 
ATOM     12  H4  UNL     1     143.174  72.484  63.623  1.00  0.00     0.173 HD
HETATM   13  O5  UNL     1     142.976  70.018  63.733  1.00  0.00    -0.265 OA
BRANCH   5  14
HETATM   14  O3  UNL     1     146.496  70.166  66.756  1.00  0.00    -0.344 OA
ATOM     15  H3  UNL     1     146.139  69.751  67.532  1.00  0.00     0.219 HD
ENDBRANCH   5  14
ENDBRANCH   2   4
BRANCH   1  16
HETATM   16  C3  UNL     1     144.896  66.338  64.595  1.00  0.00     0.209 C 
HETATM   17  C2  UNL     1     144.116  65.763  63.466  1.00  0.00     0.243 C 
HETATM   18  N1  UNL     1     144.637  65.960  62.157  1.00  0.00    -0.278 N 
HETATM   19  O2  UNL     1     143.039  65.129  63.663  1.00  0.00    -0.272 OA
HETATM   20  C1  UNL     1     146.035  66.117  61.963  1.00  0.00     0.329 C 
ATOM     21  H1  UNL     1     144.005  65.990  61.357  1.00  0.00     0.173 HD
HETATM   22  O1  UNL     1     146.538  66.292  60.829  1.00  0.00    -0.247 OA
HETATM   23  N5  UNL     1     146.861  66.066  63.130  1.00  0.00    -0.278 N 
HETATM   24  C9  UNL     1     146.307  65.867  64.424  1.00  0.00     0.243 C 
ATOM     25  H5  UNL     1     147.870  66.174  63.031  1.00  0.00     0.173 HD
HETATM   26  O6  UNL     1     146.955  65.337  65.355  1.00  0.00    -0.272 OA
ENDBRANCH   1  16
TORSDOF 3
ENDMDL
MODEL 4
REMARK VINA RESULT: -7.749659060      3.037      6.766
REMARK  3 active torsions:
REMARK  status: ('A' for Active; 'I' for Inactive)
REMARK    1  A    between atoms: C3_7  and  C4_8 
REMARK    2  A    between atoms: N2_9  and  C5_11 
REMARK    3  A    between atoms: C6_12  and  O3_13 
ROOT
HETATM    1  C4  UNL     1     147.055  72.509  65.854  1.00  0.00     0.085 C 
HETATM    2  N2  UNL     1     145.881  72.083  66.199  1.00  0.00    -0.360 N 
ATOM      3  H2  UNL     1     145.433  72.496  67.017  1.00  0.00     0.165 HD
ENDROOT
BRANCH   2   4
HETATM    4  C5  UNL     1     145.198  71.073  65.493  1.00  0.00     0.152 A 
HETATM    5  C6  UNL     1     145.350  69.747  65.842  1.00  0.00     0.177 A 
HETATM    6  N3  UNL     1     144.691  68.768  65.162  1.00  0.00    -0.287 N 
HETATM    7  C7  UNL     1     143.884  69.088  64.141  1.00  0.00     0.329 A 
ATOM      8  H3  UNL     1     144.811  67.791  65.429  1.00  0.00     0.172 HD
HETATM    9  O4  UNL     1     143.252  68.200  63.482  1.00  0.00    -0.247 OA
HETATM   10  N4  UNL     1     143.711  70.371  63.774  1.00  0.00    -0.273 N 
HETATM   11  C8  UNL     1     144.361  71.362  64.440  1.00  0.00     0.280 A 
ATOM     12  H4  UNL     1     143.094  70.601  62.995  1.00  0.00     0.173 HD
HETATM   13  O5  UNL     1     144.184  72.543  64.079  1.00  0.00    -0.265 OA
BRANCH   5  14
HETATM   14  O3  UNL     1     146.196  69.459  66.906  1.00  0.00    -0.344 OA
ATOM     15  H3  UNL     1     146.003  68.684  67.420  1.00  0.00     0.219 HD
ENDBRANCH   5  14
ENDBRANCH   2   4
BRANCH   1  16
HETATM   16  C3  UNL     1     147.750  73.582  66.625  1.00  0.00     0.209 C 
HETATM   17  C2  UNL     1     148.638  72.892  67.599  1.00  0.00     0.243 C 
HETATM   18  N1  UNL     1     149.676  72.082  67.062  1.00  0.00    -0.278 N 
HETATM   19  O2  UNL     1     148.474  73.020  68.847  1.00  0.00    -0.272 OA
HETATM   20  C1  UNL     1     150.225  72.380  65.786  1.00  0.00     0.329 C 
ATOM     21  H1  UNL     1     150.028  71.286  67.594  1.00  0.00     0.173 HD
HETATM   22  O1  UNL     1     151.141  71.696  65.275  1.00  0.00    -0.247 OA
HETATM   23  N5  UNL     1     149.684  73.511  65.096  1.00  0.00    -0.278 N 
HETATM   24  C9  UNL     1     148.645  74.299  65.663  1.00  0.00     0.243 C 
ATOM     25  H5  UNL     1     150.052  73.757  64.178  1.00  0.00     0.173 HD
HETATM   26  O6  UNL     1     148.490  75.507  65.375  1.00  0.00    -0.272 OA
ENDBRANCH   1  16
TORSDOF 3
ENDMDL
MODEL 5
REMARK VINA RESULT: -7.738351803      3.209      6.956
REMARK  3 active torsions:
REMARK  status: ('A' for Active; 'I' for Inactive)
REMARK    1  A    between atoms: C3_7  and  C4_8 
REMARK    2  A    between atoms: N2_9  and  C5_11 
REMARK    3  A    between atoms: C6_12  and  O3_13 
ROOT
HETATM    1  C4  UNL     1     148.091  71.773  66.087  1.00  0.00     0.085 C 
HETATM    2  N2  UNL     1     146.907  71.560  66.568  1.00  0.00    -0.360 N 
ATOM      3  H2  UNL     1     146.745  71.728  67.561  1.00  0.00     0.165 HD
ENDROOT
BRANCH   2   4
HETATM    4  C5  UNL     1     145.833  71.107  65.776  1.00  0.00     0.152 A 
HETATM    5  C6  UNL     1     145.401  69.800  65.860  1.00  0.00     0.177 A 
HETATM    6  N3  UNL     1     144.363  69.359  65.097  1.00  0.00    -0.287 N 
HETATM    7  C7  UNL     1     143.748  70.197  64.253  1.00  0.00     0.329 A 
ATOM      8  H3  UNL     1     144.054  68.389  65.169  1.00  0.00     0.172 HD
HETATM    9  O4  UNL     1     142.774  69.820  63.523  1.00  0.00    -0.247 OA
HETATM   10  N4  UNL     1     144.142  71.480  64.145  1.00  0.00    -0.273 N 
HETATM   11  C8  UNL     1     145.177  71.939  64.899  1.00  0.00     0.280 A 
ATOM     12  H4  UNL     1     143.665  72.108  63.499  1.00  0.00     0.173 HD
HETATM   13  O5  UNL     1     145.521  73.131  64.779  1.00  0.00    -0.265 OA
BRANCH   5  14
HETATM   14  O3  UNL     1     146.067  68.963  66.748  1.00  0.00    -0.344 OA
ATOM     15  H3  UNL     1     146.478  68.185  66.390  1.00  0.00     0.219 HD
ENDBRANCH   5  14
ENDBRANCH   2   4
BRANCH   1  16
HETATM   16  C3  UNL     1     149.207  72.255  66.955  1.00  0.00     0.209 C 
HETATM   17  C2  UNL     1     150.174  72.939  66.056  1.00  0.00     0.243 C 
HETATM   18  N1  UNL     1     149.709  74.093  65.368  1.00  0.00    -0.278 N 
HETATM   19  O2  UNL     1     151.357  72.511  65.911  1.00  0.00    -0.272 OA
HETATM   20  C1  UNL     1     148.675  74.889  65.928  1.00  0.00     0.329 C 
ATOM     21  H1  UNL     1     150.118  74.350  64.470  1.00  0.00     0.173 HD
HETATM   22  O1  UNL     1     148.235  75.914  65.359  1.00  0.00    -0.247 OA
HETATM   23  N5  UNL     1     148.147  74.470  67.190  1.00  0.00    -0.278 N 
HETATM   24  C9  UNL     1     148.636  73.309  67.851  1.00  0.00     0.243 C 
ATOM     25  H5  UNL     1     147.403  75.015  67.625  1.00  0.00     0.173 HD
HETATM   26  O6  UNL     1     148.590  73.180  69.096  1.00  0.00    -0.272 OA
ENDBRANCH   1  16
TORSDOF 3
ENDMDL
