MODEL 1
REMARK VINA RESULT: -7.034714106      0.000      0.000
REMARK  6 active torsions:
REMARK  status: ('A' for Active; 'I' for Inactive)
REMARK    1  A    between atoms: C3_3  and  C4_4 
REMARK    2  A    between atoms: C4_4  and  N3_10 
REMARK    3  A    between atoms: N1_5  and  N2_7 
REMARK       I    between atoms: N3_10  and  C5_12 
REMARK       I    between atoms: C5_12  and  N6_18 
REMARK    4  A    between atoms: N4_13  and  N5_15 
REMARK    5  A    between atoms: N6_18  and  N7_20 
REMARK    6  A    between atoms: C8_27  and  S1_28 
ROOT
HETATM    1  C4  UNL     1     144.445  67.181  64.076  1.00  0.00     0.147 C 
HETATM    2  N1  UNL     1     143.512  66.454  64.565  1.00  0.00    -0.291 N 
ATOM      3  H1  UNL     1     143.101  66.772  65.443  1.00  0.00     0.188 HD
ENDROOT
BRANCH   1   4
HETATM    4  C3  UNL     1     144.838  68.381  64.799  1.00  0.00     0.033 A 
HETATM    5  C2  UNL     1     144.300  69.630  64.567  1.00  0.00    -0.023 A 
HETATM    6  C1  UNL     1     143.286  69.817  63.525  1.00  0.00     0.051 C 
HETATM    7  C8  UNL     1     144.695  70.736  65.284  1.00  0.00     0.097 A 
HETATM    8  C7  UNL     1     145.655  70.554  66.253  1.00  0.00     0.112 A 
HETATM    9  N8  UNL     1     146.185  69.318  66.481  1.00  0.00    -0.373 N 
HETATM   10  C6  UNL     1     145.813  68.238  65.794  1.00  0.00     0.103 A 
ATOM     11  H8  UNL     1     146.896  69.216  67.206  1.00  0.00     0.164 HD
BRANCH   7  12
HETATM   12  S1  UNL     1     144.024  72.299  65.002  1.00  0.00     0.288 S 
HETATM   13  O1  UNL     1     143.640  72.534  63.557  1.00  0.00    -0.206 OA
HETATM   14  O2  UNL     1     144.894  73.425  65.527  1.00  0.00    -0.206 OA
ENDBRANCH   7  12
ENDBRANCH   1   4
BRANCH   1  15
HETATM   15  N3  UNL     1     145.044  66.769  62.855  1.00  0.00    -0.172 N 
HETATM   16  C5  UNL     1     145.959  65.718  62.707  1.00  0.00     0.712 C 
HETATM   17  N4  UNL     1     145.792  64.771  61.849  1.00  0.00    -0.137 N 
HETATM   18  N6  UNL     1     147.128  65.659  63.513  1.00  0.00    -0.137 N 
ATOM     19  H4  UNL     1     146.471  64.016  61.758  1.00  0.00     0.205 HD
ATOM     20  H6  UNL     1     147.106  66.051  64.454  1.00  0.00     0.205 HD
ATOM     21  H3  UNL     1     144.785  67.283  62.012  1.00  0.00     0.186 HD
BRANCH  17  22
HETATM   22  N5  UNL     1     144.647  64.815  61.048  1.00  0.00    -0.331 N 
ATOM     23  H52 UNL     1     143.808  65.292  61.377  1.00  0.00     0.177 HD
ATOM     24  H51 UNL     1     144.688  64.356  60.138  1.00  0.00     0.177 HD
ENDBRANCH  17  22
BRANCH  18  25
HETATM   25  N7  UNL     1     148.314  65.070  63.039  1.00  0.00    -0.331 N 
ATOM     26  H72 UNL     1     148.377  64.051  63.023  1.00  0.00     0.177 HD
ATOM     27  H71 UNL     1     149.097  65.639  62.716  1.00  0.00     0.177 HD
ENDBRANCH  18  25
ENDBRANCH   1  15
BRANCH   2  28
HETATM   28  N2  UNL     1     143.003  65.291  64.037  1.00  0.00    -0.344 N 
ATOM     29  H22 UNL     1     143.256  64.438  64.536  1.00  0.00     0.176 HD
ATOM     30  H21 UNL     1     142.411  65.198  63.212  1.00  0.00     0.176 HD
ENDBRANCH   2  28
TORSDOF 6
ENDMDL
MODEL 2
REMARK VINA RESULT: -6.886060430      2.431      3.593
REMARK  6 active torsions:
REMARK  status: ('A' for Active; 'I' for Inactive)
REMARK    1  A    between atoms: C3_3  and  C4_4 
REMARK    2  A    between atoms: C4_4  and  N3_10 
REMARK    3  A    between atoms: N1_5  and  N2_7 
REMARK       I    between atoms: N3_10  and  C5_12 
REMARK       I    between atoms: C5_12  and  N6_18 
REMARK    4  A    between atoms: N4_13  and  N5_15 
REMARK    5  A    between atoms: N6_18  and  N7_20 
REMARK    6  A    between atoms: C8_27  and  S1_28 
ROOT
HETATM    1  C4  UNL     1     144.383  70.114  64.923  1.00  0.00     0.147 C 
HETATM    2  N1  UNL     1     143.493  70.561  64.119  1.00  0.00    -0.291 N 
ATOM      3  H1  UNL     1     143.569  71.544  63.858  1.00  0.00     0.188 HD
ENDROOT
BRANCH   1   4
HETATM    4  C3  UNL     1     145.413  71.028  65.392  1.00  0.00     0.033 A 
HETATM    5  C2  UNL     1     145.434  72.377  65.105  1.00  0.00    -0.023 A 
HETATM    6  C1  UNL     1     144.391  72.971  64.262  1.00  0.00     0.051 C 
HETATM    7  C8  UNL     1     146.423  73.206  65.580  1.00  0.00     0.097 A 
HETATM    8  C7  UNL     1     147.404  72.640  66.362  1.00  0.00     0.112 A 
HETATM    9  N8  UNL     1     147.382  71.305  66.644  1.00  0.00    -0.373 N 
HETATM   10  C6  UNL     1     146.429  70.490  66.190  1.00  0.00     0.103 A 
ATOM     11  H8  UNL     1     148.123  70.915  67.226  1.00  0.00     0.164 HD
BRANCH   7  12
HETATM   12  S1  UNL     1     146.453  74.894  65.229  1.00  0.00     0.288 S 
HETATM   13  O1  UNL     1     147.371  75.251  64.081  1.00  0.00    -0.206 OA
HETATM   14  O2  UNL     1     146.741  75.751  66.447  1.00  0.00    -0.206 OA
ENDBRANCH   7  12
ENDBRANCH   1   4
BRANCH   1  15
HETATM   15  N3  UNL     1     144.309  68.749  65.310  1.00  0.00    -0.172 N 
HETATM   16  C5  UNL     1     144.740  67.657  64.544  1.00  0.00     0.712 C 
HETATM   17  N4  UNL     1     145.547  66.765  65.004  1.00  0.00    -0.137 N 
HETATM   18  N6  UNL     1     144.293  67.493  63.204  1.00  0.00    -0.137 N 
ATOM     19  H4  UNL     1     145.848  65.978  64.429  1.00  0.00     0.205 HD
ATOM     20  H6  UNL     1     144.066  68.317  62.649  1.00  0.00     0.205 HD
ATOM     21  H3  UNL     1     143.907  68.545  66.225  1.00  0.00     0.186 HD
BRANCH  17  22
HETATM   22  N5  UNL     1     145.996  66.912  66.319  1.00  0.00    -0.331 N 
ATOM     23  H52 UNL     1     146.968  66.712  66.556  1.00  0.00     0.177 HD
ATOM     24  H51 UNL     1     145.321  67.221  67.019  1.00  0.00     0.177 HD
ENDBRANCH  17  22
BRANCH  18  25
HETATM   25  N7  UNL     1     144.157  66.215  62.631  1.00  0.00    -0.331 N 
ATOM     26  H72 UNL     1     144.838  65.924  61.929  1.00  0.00     0.177 HD
ATOM     27  H71 UNL     1     143.399  65.589  62.903  1.00  0.00     0.177 HD
ENDBRANCH  18  25
ENDBRANCH   1  15
BRANCH   2  28
HETATM   28  N2  UNL     1     142.445  69.862  63.569  1.00  0.00    -0.344 N 
ATOM     29  H22 UNL     1     142.193  69.000  64.054  1.00  0.00     0.176 HD
ATOM     30  H21 UNL     1     141.906  70.112  62.740  1.00  0.00     0.176 HD
ENDBRANCH   2  28
TORSDOF 6
ENDMDL
MODEL 3
REMARK VINA RESULT: -6.806600118      6.375      7.754
REMARK  6 active torsions:
REMARK  status: ('A' for Active; 'I' for Inactive)
REMARK    1  A    between atoms: C3_3  and  C4_4 
REMARK    2  A    between atoms: C4_4  and  N3_10 
REMARK    3  A    between atoms: N1_5  and  N2_7 
REMARK       I    between atoms: N3_10  and  C5_12 
REMARK       I    between atoms: C5_12  and  N6_18 
REMARK    4  A    between atoms: N4_13  and  N5_15 
REMARK    5  A    between atoms: N6_18  and  N7_20 
REMARK    6  A    between atoms: C8_27  and  S1_28 
ROOT
HETATM    1  C4  UNL     1     149.153  73.584  67.524  1.00  0.00     0.147 C 
HETATM    2  N1  UNL     1     149.063  73.170  68.732  1.00  0.00    -0.291 N 
ATOM      3  H1  UNL     1     148.122  72.982  69.079  1.00  0.00     0.188 HD
ENDROOT
BRANCH   1   4
HETATM    4  C3  UNL     1     147.928  73.750  66.757  1.00  0.00     0.033 A 
HETATM    5  C2  UNL     1     147.168  72.700  66.284  1.00  0.00    -0.023 A 
HETATM    6  C1  UNL     1     147.588  71.316  66.522  1.00  0.00     0.051 C 
HETATM    7  C8  UNL     1     146.009  72.906  65.571  1.00  0.00     0.097 A 
HETATM    8  C7  UNL     1     145.627  74.208  65.342  1.00  0.00     0.112 A 
HETATM    9  N8  UNL     1     146.381  75.244  65.811  1.00  0.00    -0.373 N 
HETATM   10  C6  UNL     1     147.506  75.060  66.503  1.00  0.00     0.103 A 
ATOM     11  H8  UNL     1     146.071  76.198  65.625  1.00  0.00     0.164 HD
BRANCH   7  12
HETATM   12  S1  UNL     1     145.052  71.598  64.981  1.00  0.00     0.288 S 
HETATM   13  O1  UNL     1     144.379  71.897  63.659  1.00  0.00    -0.206 OA
HETATM   14  O2  UNL     1     144.052  71.084  66.000  1.00  0.00    -0.206 OA
ENDBRANCH   7  12
ENDBRANCH   1   4
BRANCH   1  15
HETATM   15  N3  UNL     1     150.448  73.858  67.006  1.00  0.00    -0.172 N 
HETATM   16  C5  UNL     1     150.900  73.528  65.721  1.00  0.00     0.712 C 
HETATM   17  N4  UNL     1     151.433  74.395  64.931  1.00  0.00    -0.137 N 
HETATM   18  N6  UNL     1     150.784  72.197  65.234  1.00  0.00    -0.137 N 
ATOM     19  H4  UNL     1     151.755  74.133  64.000  1.00  0.00     0.205 HD
ATOM     20  H6  UNL     1     150.016  71.611  65.558  1.00  0.00     0.205 HD
ATOM     21  H3  UNL     1     151.105  74.336  67.622  1.00  0.00     0.186 HD
BRANCH  17  22
HETATM   22  N5  UNL     1     151.554  75.708  65.395  1.00  0.00    -0.331 N 
ATOM     23  H52 UNL     1     152.274  75.948  66.076  1.00  0.00     0.177 HD
ATOM     24  H51 UNL     1     150.901  76.402  65.030  1.00  0.00     0.177 HD
ENDBRANCH  17  22
BRANCH  18  25
HETATM   25  N7  UNL     1     151.709  71.673  64.312  1.00  0.00    -0.331 N 
ATOM     26  H72 UNL     1     151.554  71.846  63.318  1.00  0.00     0.177 HD
ATOM     27  H71 UNL     1     152.518  71.134  64.621  1.00  0.00     0.177 HD
ENDBRANCH  18  25
ENDBRANCH   1  15
BRANCH   2  28
HETATM   28  N2  UNL     1     150.095  72.952  69.613  1.00  0.00    -0.344 N 
ATOM     29  H22 UNL     1     150.936  72.542  69.206  1.00  0.00     0.176 HD
ATOM     30  H21 UNL     1     150.104  73.154  70.613  1.00  0.00     0.176 HD
ENDBRANCH   2  28
TORSDOF 6
ENDMDL
MODEL 4
REMARK VINA RESULT: -6.753305123      1.762      2.619
REMARK  6 active torsions:
REMARK  status: ('A' for Active; 'I' for Inactive)
REMARK    1  A    between atoms: C3_3  and  C4_4 
REMARK    2  A    between atoms: C4_4  and  N3_10 
REMARK    3  A    between atoms: N1_5  and  N2_7 
REMARK       I    between atoms: N3_10  and  C5_12 
REMARK       I    between atoms: C5_12  and  N6_18 
REMARK    4  A    between atoms: N4_13  and  N5_15 
REMARK    5  A    between atoms: N6_18  and  N7_20 
REMARK    6  A    between atoms: C8_27  and  S1_28 
ROOT
HETATM    1  C4  UNL     1     144.622  67.708  64.703  1.00  0.00     0.147 C 
HETATM    2  N1  UNL     1     145.380  67.354  65.672  1.00  0.00    -0.291 N 
ATOM      3  H1  UNL     1     145.778  68.105  66.235  1.00  0.00     0.188 HD
ENDROOT
BRANCH   1   4
HETATM    4  C3  UNL     1     144.392  69.128  64.487  1.00  0.00     0.033 A 
HETATM    5  C2  UNL     1     145.077  70.127  65.149  1.00  0.00    -0.023 A 
HETATM    6  C1  UNL     1     146.088  69.791  66.156  1.00  0.00     0.051 C 
HETATM    7  C8  UNL     1     144.834  71.459  64.904  1.00  0.00     0.097 A 
HETATM    8  C7  UNL     1     143.876  71.768  63.965  1.00  0.00     0.112 A 
HETATM    9  N8  UNL     1     143.201  70.777  63.312  1.00  0.00    -0.373 N 
HETATM   10  C6  UNL     1     143.425  69.483  63.540  1.00  0.00     0.103 A 
ATOM     11  H8  UNL     1     142.496  71.038  62.622  1.00  0.00     0.164 HD
BRANCH   7  12
HETATM   12  S1  UNL     1     145.688  72.712  65.724  1.00  0.00     0.288 S 
HETATM   13  O1  UNL     1     145.115  74.091  65.475  1.00  0.00    -0.206 OA
HETATM   14  O2  UNL     1     147.183  72.686  65.460  1.00  0.00    -0.206 OA
ENDBRANCH   7  12
ENDBRANCH   1   4
BRANCH   1  15
HETATM   15  N3  UNL     1     144.049  66.688  63.895  1.00  0.00    -0.172 N 
HETATM   16  C5  UNL     1     144.746  65.876  62.991  1.00  0.00     0.712 C 
HETATM   17  N4  UNL     1     144.667  64.590  63.013  1.00  0.00    -0.137 N 
HETATM   18  N6  UNL     1     145.580  66.453  61.995  1.00  0.00    -0.137 N 
ATOM     19  H4  UNL     1     145.182  64.018  62.345  1.00  0.00     0.205 HD
ATOM     20  H6  UNL     1     146.043  67.342  62.185  1.00  0.00     0.205 HD
ATOM     21  H3  UNL     1     143.044  66.535  63.981  1.00  0.00     0.186 HD
BRANCH  17  22
HETATM   22  N5  UNL     1     143.850  64.007  63.986  1.00  0.00    -0.331 N 
ATOM     23  H52 UNL     1     144.210  63.840  64.926  1.00  0.00     0.177 HD
ATOM     24  H51 UNL     1     142.898  63.759  63.719  1.00  0.00     0.177 HD
ENDBRANCH  17  22
BRANCH  18  25
HETATM   25  N7  UNL     1     145.780  65.822  60.753  1.00  0.00    -0.331 N 
ATOM     26  H72 UNL     1     145.009  65.291  60.350  1.00  0.00     0.177 HD
ATOM     27  H71 UNL     1     146.672  65.891  60.261  1.00  0.00     0.177 HD
ENDBRANCH  18  25
ENDBRANCH   1  15
BRANCH   2  28
HETATM   28  N2  UNL     1     145.717  66.072  66.036  1.00  0.00    -0.344 N 
ATOM     29  H22 UNL     1     145.008  65.570  66.569  1.00  0.00     0.176 HD
ATOM     30  H21 UNL     1     146.589  65.583  65.830  1.00  0.00     0.176 HD
ENDBRANCH   2  28
TORSDOF 6
ENDMDL
MODEL 5
REMARK VINA RESULT: -6.730311810      4.332      7.722
REMARK  6 active torsions:
REMARK  status: ('A' for Active; 'I' for Inactive)
REMARK    1  A    between atoms: C3_3  and  C4_4 
REMARK    2  A    between atoms: C4_4  and  N3_10 
REMARK    3  A    between atoms: N1_5  and  N2_7 
REMARK       I    between atoms: N3_10  and  C5_12 
REMARK       I    between atoms: C5_12  and  N6_18 
REMARK    4  A    between atoms: N4_13  and  N5_15 
REMARK    5  A    between atoms: N6_18  and  N7_20 
REMARK    6  A    between atoms: C8_27  and  S1_28 
ROOT
HETATM    1  C4  UNL     1     148.068  73.278  66.405  1.00  0.00     0.147 C 
HETATM    2  N1  UNL     1     148.959  73.574  65.535  1.00  0.00    -0.291 N 
ATOM      3  H1  UNL     1     148.870  73.125  64.623  1.00  0.00     0.188 HD
ENDROOT
BRANCH   1   4
HETATM    4  C3  UNL     1     147.018  72.343  66.030  1.00  0.00     0.033 A 
HETATM    5  C2  UNL     1     146.034  72.621  65.104  1.00  0.00    -0.023 A 
HETATM    6  C1  UNL     1     145.985  73.930  64.446  1.00  0.00     0.051 C 
HETATM    7  C8  UNL     1     145.068  71.700  64.772  1.00  0.00     0.097 A 
HETATM    8  C7  UNL     1     145.114  70.477  65.401  1.00  0.00     0.112 A 
HETATM    9  N8  UNL     1     146.088  70.204  66.317  1.00  0.00    -0.373 N 
HETATM   10  C6  UNL     1     147.031  71.087  66.648  1.00  0.00     0.103 A 
ATOM     11  H8  UNL     1     146.095  69.289  66.767  1.00  0.00     0.164 HD
BRANCH   7  12
HETATM   12  S1  UNL     1     143.838  72.039  63.612  1.00  0.00     0.288 S 
HETATM   13  O1  UNL     1     142.946  73.196  64.006  1.00  0.00    -0.206 OA
HETATM   14  O2  UNL     1     143.018  70.818  63.238  1.00  0.00    -0.206 OA
ENDBRANCH   7  12
ENDBRANCH   1   4
BRANCH   1  15
HETATM   15  N3  UNL     1     148.159  73.883  67.688  1.00  0.00    -0.172 N 
HETATM   16  C5  UNL     1     149.291  73.877  68.515  1.00  0.00     0.712 C 
HETATM   17  N4  UNL     1     149.789  74.955  69.014  1.00  0.00    -0.137 N 
HETATM   18  N6  UNL     1     149.942  72.656  68.840  1.00  0.00    -0.137 N 
ATOM     19  H4  UNL     1     150.613  74.928  69.614  1.00  0.00     0.205 HD
ATOM     20  H6  UNL     1     149.921  71.885  68.173  1.00  0.00     0.205 HD
ATOM     21  H3  UNL     1     147.330  74.363  68.037  1.00  0.00     0.186 HD
BRANCH  17  22
HETATM   22  N5  UNL     1     149.160  76.164  68.704  1.00  0.00    -0.331 N 
ATOM     23  H52 UNL     1     149.039  76.879  69.421  1.00  0.00     0.177 HD
ATOM     24  H51 UNL     1     148.834  76.297  67.746  1.00  0.00     0.177 HD
ENDBRANCH  17  22
BRANCH  18  25
HETATM   25  N7  UNL     1     150.616  72.489  70.064  1.00  0.00    -0.331 N 
ATOM     26  H72 UNL     1     150.445  73.167  70.807  1.00  0.00     0.177 HD
ATOM     27  H71 UNL     1     151.260  71.713  70.214  1.00  0.00     0.177 HD
ENDBRANCH  18  25
ENDBRANCH   1  15
BRANCH   2  28
HETATM   28  N2  UNL     1     150.023  74.429  65.695  1.00  0.00    -0.344 N 
ATOM     29  H22 UNL     1     150.528  74.661  64.839  1.00  0.00     0.176 HD
ATOM     30  H21 UNL     1     150.352  74.846  66.566  1.00  0.00     0.176 HD
ENDBRANCH   2  28
TORSDOF 6
ENDMDL
