MODEL 1
REMARK VINA RESULT: -7.772075561      0.000      0.000
REMARK  3 active torsions:
REMARK  status: ('A' for Active; 'I' for Inactive)
REMARK    1  A    between atoms: C2_3  and  N2_4 
REMARK    2  A    between atoms: C4_6  and  N3_7 
REMARK       I    between atoms: N3_7  and  C5_9 
REMARK       I    between atoms: C5_9  and  N4_11 
REMARK       I    between atoms: C6_13  and  N5_14 
REMARK       I    between atoms: C6_13  and  N7_19 
REMARK    3  A    between atoms: N5_14  and  N6_16 
ROOT
HETATM    1  N1  UNL     1     146.736  66.336  65.509  1.00  0.00    -0.196 NA
HETATM    2  C1  UNL     1     145.759  66.917  65.365  1.00  0.00     0.079 C 
HETATM    3  C2  UNL     1     144.538  67.662  65.193  1.00  0.00     0.256 C 
ENDROOT
BRANCH   3   4
HETATM    4  N2  UNL     1     144.722  69.095  65.198  1.00  0.00    -0.294 N 
HETATM    5  C3  UNL     1     145.566  69.705  66.083  1.00  0.00     0.132 A 
HETATM    6  C4  UNL     1     145.779  71.048  66.136  1.00  0.00     0.120 A 
HETATM    7  C8  UNL     1     145.080  71.843  65.215  1.00  0.00     0.277 A 
HETATM    8  O2  UNL     1     145.228  73.078  65.208  1.00  0.00    -0.266 OA
HETATM    9  N9  UNL     1     144.261  71.241  64.356  1.00  0.00    -0.273 N 
HETATM   10  C9  UNL     1     144.080  69.897  64.343  1.00  0.00     0.330 A 
ATOM     11  H9  UNL     1     143.749  71.812  63.684  1.00  0.00     0.173 HD
HETATM   12  O3  UNL     1     143.288  69.362  63.507  1.00  0.00    -0.246 OA
BRANCH   6  13
HETATM   13  N3  UNL     1     146.644  71.663  67.044  1.00  0.00    -0.302 N 
HETATM   14  C5  UNL     1     148.016  71.896  66.891  1.00  0.00     0.339 C 
HETATM   15  O1  UNL     1     148.718  71.599  65.920  1.00  0.00    -0.246 OA
HETATM   16  N4  UNL     1     148.693  72.555  67.981  1.00  0.00    -0.139 N 
HETATM   17  C6  UNL     1     149.607  73.400  67.724  1.00  0.00     0.709 C 
ATOM     18  H4  UNL     1     148.441  72.346  68.947  1.00  0.00     0.189 HD
HETATM   19  N5  UNL     1     150.279  74.054  68.774  1.00  0.00    -0.138 N 
HETATM   20  N7  UNL     1     149.961  73.697  66.397  1.00  0.00    -0.124 N 
ATOM     21  H5  UNL     1     151.245  73.827  69.012  1.00  0.00     0.205 HD
HETATM   22  C7  UNL     1     151.275  73.480  65.942  1.00  0.00     0.196 C 
ATOM     23  H7  UNL     1     149.260  74.074  65.758  1.00  0.00     0.197 HD
HETATM   24  N8  UNL     1     152.354  73.284  65.576  1.00  0.00    -0.171 NA
ATOM     25  H3  UNL     1     146.228  71.979  67.920  1.00  0.00     0.171 HD
BRANCH  19  26
HETATM   26  N6  UNL     1     149.558  75.038  69.483  1.00  0.00    -0.331 N 
ATOM     27  H62 UNL     1     149.525  76.000  69.146  1.00  0.00     0.177 HD
ATOM     28  H61 UNL     1     149.082  74.740  70.335  1.00  0.00     0.177 HD
ENDBRANCH  19  26
ENDBRANCH   6  13
ENDBRANCH   3   4
TORSDOF 3
ENDMDL
MODEL 2
REMARK VINA RESULT: -7.689124644      2.271      7.088
REMARK  3 active torsions:
REMARK  status: ('A' for Active; 'I' for Inactive)
REMARK    1  A    between atoms: C2_3  and  N2_4 
REMARK    2  A    between atoms: C4_6  and  N3_7 
REMARK       I    between atoms: N3_7  and  C5_9 
REMARK       I    between atoms: C5_9  and  N4_11 
REMARK       I    between atoms: C6_13  and  N5_14 
REMARK       I    between atoms: C6_13  and  N7_19 
REMARK    3  A    between atoms: N5_14  and  N6_16 
ROOT
HETATM    1  N1  UNL     1     152.014  71.832  63.232  1.00  0.00    -0.196 NA
HETATM    2  C1  UNL     1     151.946  72.697  63.979  1.00  0.00     0.079 C 
HETATM    3  C2  UNL     1     151.845  73.779  64.924  1.00  0.00     0.256 C 
ENDROOT
BRANCH   3   4
HETATM    4  N2  UNL     1     150.908  73.535  65.996  1.00  0.00    -0.294 N 
HETATM    5  C3  UNL     1     149.801  72.753  65.813  1.00  0.00     0.132 A 
HETATM    6  C4  UNL     1     148.884  72.487  66.783  1.00  0.00     0.120 A 
HETATM    7  C8  UNL     1     149.103  73.060  68.044  1.00  0.00     0.277 A 
HETATM    8  O2  UNL     1     148.304  72.858  68.976  1.00  0.00    -0.266 OA
HETATM    9  N9  UNL     1     150.183  73.818  68.214  1.00  0.00    -0.273 N 
HETATM   10  C9  UNL     1     151.070  74.056  67.215  1.00  0.00     0.330 A 
ATOM     11  H9  UNL     1     150.349  74.238  69.128  1.00  0.00     0.173 HD
HETATM   12  O3  UNL     1     152.088  74.786  67.418  1.00  0.00    -0.246 OA
BRANCH   6  13
HETATM   13  N3  UNL     1     147.755  71.688  66.587  1.00  0.00    -0.302 N 
HETATM   14  C5  UNL     1     146.506  72.082  66.092  1.00  0.00     0.339 C 
HETATM   15  O1  UNL     1     146.171  73.215  65.735  1.00  0.00    -0.246 OA
HETATM   16  N4  UNL     1     145.494  71.060  65.983  1.00  0.00    -0.139 N 
HETATM   17  C6  UNL     1     144.700  71.077  64.990  1.00  0.00     0.709 C 
ATOM     18  H4  UNL     1     145.417  70.332  66.693  1.00  0.00     0.189 HD
HETATM   19  N5  UNL     1     143.705  70.088  64.866  1.00  0.00    -0.138 N 
HETATM   20  N7  UNL     1     144.799  72.074  64.005  1.00  0.00    -0.124 N 
ATOM     21  H5  UNL     1     142.720  70.300  65.023  1.00  0.00     0.205 HD
HETATM   22  C7  UNL     1     143.713  72.932  63.745  1.00  0.00     0.196 C 
ATOM     23  H7  UNL     1     145.663  72.176  63.474  1.00  0.00     0.197 HD
HETATM   24  N8  UNL     1     142.821  73.640  63.550  1.00  0.00    -0.171 NA
ATOM     25  H3  UNL     1     147.852  70.703  66.834  1.00  0.00     0.171 HD
BRANCH  19  26
HETATM   26  N6  UNL     1     144.131  68.790  64.512  1.00  0.00    -0.331 N 
ATOM     27  H62 UNL     1     145.117  68.600  64.333  1.00  0.00     0.177 HD
ATOM     28  H61 UNL     1     143.414  68.068  64.448  1.00  0.00     0.177 HD
ENDBRANCH  19  26
ENDBRANCH   6  13
ENDBRANCH   3   4
TORSDOF 3
ENDMDL
MODEL 3
REMARK VINA RESULT: -7.674218852      0.970      1.009
REMARK  3 active torsions:
REMARK  status: ('A' for Active; 'I' for Inactive)
REMARK    1  A    between atoms: C2_3  and  N2_4 
REMARK    2  A    between atoms: C4_6  and  N3_7 
REMARK       I    between atoms: N3_7  and  C5_9 
REMARK       I    between atoms: C5_9  and  N4_11 
REMARK       I    between atoms: C6_13  and  N5_14 
REMARK       I    between atoms: C6_13  and  N7_19 
REMARK    3  A    between atoms: N5_14  and  N6_16 
ROOT
HETATM    1  N1  UNL     1     147.301  66.101  63.902  1.00  0.00    -0.196 NA
HETATM    2  C1  UNL     1     146.518  66.458  64.658  1.00  0.00     0.079 C 
HETATM    3  C2  UNL     1     145.539  66.924  65.607  1.00  0.00     0.256 C 
ENDROOT
BRANCH   3   4
HETATM    4  N2  UNL     1     145.221  68.328  65.477  1.00  0.00    -0.294 N 
HETATM    5  C3  UNL     1     145.880  69.280  66.204  1.00  0.00     0.132 A 
HETATM    6  C4  UNL     1     145.625  70.615  66.125  1.00  0.00     0.120 A 
HETATM    7  C8  UNL     1     144.619  71.022  65.236  1.00  0.00     0.277 A 
HETATM    8  O2  UNL     1     144.334  72.227  65.114  1.00  0.00    -0.266 OA
HETATM    9  N9  UNL     1     143.983  70.089  64.533  1.00  0.00    -0.273 N 
HETATM   10  C9  UNL     1     144.272  68.768  64.646  1.00  0.00     0.330 A 
ATOM     11  H9  UNL     1     143.251  70.376  63.884  1.00  0.00     0.173 HD
HETATM   12  O3  UNL     1     143.642  67.909  63.957  1.00  0.00    -0.246 OA
BRANCH   6  13
HETATM   13  N3  UNL     1     146.303  71.582  66.870  1.00  0.00    -0.302 N 
HETATM   14  C5  UNL     1     147.672  71.875  66.842  1.00  0.00     0.339 C 
HETATM   15  O1  UNL     1     148.536  71.331  66.149  1.00  0.00    -0.246 OA
HETATM   16  N4  UNL     1     148.133  72.928  67.714  1.00  0.00    -0.139 N 
HETATM   17  C6  UNL     1     149.044  73.716  67.308  1.00  0.00     0.709 C 
ATOM     18  H4  UNL     1     147.732  73.040  68.646  1.00  0.00     0.189 HD
HETATM   19  N5  UNL     1     149.508  74.750  68.144  1.00  0.00    -0.138 N 
HETATM   20  N7  UNL     1     149.602  73.573  66.026  1.00  0.00    -0.124 N 
ATOM     21  H5  UNL     1     150.429  74.709  68.581  1.00  0.00     0.205 HD
HETATM   22  C7  UNL     1     150.981  73.337  65.869  1.00  0.00     0.196 C 
ATOM     23  H7  UNL     1     149.003  73.641  65.203  1.00  0.00     0.197 HD
HETATM   24  N8  UNL     1     152.112  73.130  65.752  1.00  0.00    -0.171 NA
ATOM     25  H3  UNL     1     145.736  72.138  67.510  1.00  0.00     0.171 HD
BRANCH  19  26
HETATM   26  N6  UNL     1     148.642  75.845  68.350  1.00  0.00    -0.331 N 
ATOM     27  H62 UNL     1     148.353  76.431  67.568  1.00  0.00     0.177 HD
ATOM     28  H61 UNL     1     148.329  76.014  69.306  1.00  0.00     0.177 HD
ENDBRANCH  19  26
ENDBRANCH   6  13
ENDBRANCH   3   4
TORSDOF 3
ENDMDL
MODEL 4
REMARK VINA RESULT: -7.196940405      1.783      2.339
REMARK  3 active torsions:
REMARK  status: ('A' for Active; 'I' for Inactive)
REMARK    1  A    between atoms: C2_3  and  N2_4 
REMARK    2  A    between atoms: C4_6  and  N3_7 
REMARK       I    between atoms: N3_7  and  C5_9 
REMARK       I    between atoms: C5_9  and  N4_11 
REMARK       I    between atoms: C6_13  and  N5_14 
REMARK       I    between atoms: C6_13  and  N7_19 
REMARK    3  A    between atoms: N5_14  and  N6_16 
ROOT
HETATM    1  N1  UNL     1     147.074  65.711  64.339  1.00  0.00    -0.196 NA
HETATM    2  C1  UNL     1     146.230  66.220  64.923  1.00  0.00     0.079 C 
HETATM    3  C2  UNL     1     145.173  66.875  65.650  1.00  0.00     0.256 C 
ENDROOT
BRANCH   3   4
HETATM    4  N2  UNL     1     144.681  68.074  65.012  1.00  0.00    -0.294 N 
HETATM    5  C3  UNL     1     145.069  69.317  65.428  1.00  0.00     0.132 A 
HETATM    6  C4  UNL     1     144.640  70.480  64.867  1.00  0.00     0.120 A 
HETATM    7  C8  UNL     1     143.742  70.379  63.794  1.00  0.00     0.277 A 
HETATM    8  O2  UNL     1     143.309  71.403  63.235  1.00  0.00    -0.266 OA
HETATM    9  N9  UNL     1     143.369  69.166  63.395  1.00  0.00    -0.273 N 
HETATM   10  C9  UNL     1     143.824  68.033  63.987  1.00  0.00     0.330 A 
ATOM     11  H9  UNL     1     142.717  69.084  62.616  1.00  0.00     0.173 HD
HETATM   12  O3  UNL     1     143.444  66.894  63.576  1.00  0.00    -0.246 OA
BRANCH   6  13
HETATM   13  N3  UNL     1     145.042  71.746  65.298  1.00  0.00    -0.302 N 
HETATM   14  C5  UNL     1     146.230  72.085  65.956  1.00  0.00     0.339 C 
HETATM   15  O1  UNL     1     147.147  71.323  66.277  1.00  0.00    -0.246 OA
HETATM   16  N4  UNL     1     146.415  73.474  66.299  1.00  0.00    -0.139 N 
HETATM   17  C6  UNL     1     147.574  73.988  66.206  1.00  0.00     0.709 C 
ATOM     18  H4  UNL     1     145.624  74.038  66.613  1.00  0.00     0.189 HD
HETATM   19  N5  UNL     1     147.774  75.342  66.536  1.00  0.00    -0.138 N 
HETATM   20  N7  UNL     1     148.669  73.222  65.772  1.00  0.00    -0.124 N 
ATOM     21  H5  UNL     1     148.264  75.616  67.388  1.00  0.00     0.205 HD
HETATM   22  C7  UNL     1     149.792  73.048  66.603  1.00  0.00     0.196 C 
ATOM     23  H7  UNL     1     148.650  72.789  64.849  1.00  0.00     0.197 HD
HETATM   24  N8  UNL     1     150.704  72.901  67.298  1.00  0.00    -0.171 NA
ATOM     25  H3  UNL     1     144.395  72.513  65.113  1.00  0.00     0.171 HD
BRANCH  19  26
HETATM   26  N6  UNL     1     147.266  76.304  65.638  1.00  0.00    -0.331 N 
ATOM     27  H62 UNL     1     147.890  76.971  65.185  1.00  0.00     0.177 HD
ATOM     28  H61 UNL     1     146.260  76.296  65.470  1.00  0.00     0.177 HD
ENDBRANCH  19  26
ENDBRANCH   6  13
ENDBRANCH   3   4
TORSDOF 3
ENDMDL
MODEL 5
REMARK VINA RESULT: -7.143654511      1.516      3.086
REMARK  3 active torsions:
REMARK  status: ('A' for Active; 'I' for Inactive)
REMARK    1  A    between atoms: C2_3  and  N2_4 
REMARK    2  A    between atoms: C4_6  and  N3_7 
REMARK       I    between atoms: N3_7  and  C5_9 
REMARK       I    between atoms: C5_9  and  N4_11 
REMARK       I    between atoms: C6_13  and  N5_14 
REMARK       I    between atoms: C6_13  and  N7_19 
REMARK    3  A    between atoms: N5_14  and  N6_16 
ROOT
HETATM    1  N1  UNL     1     142.419  73.992  63.329  1.00  0.00    -0.196 NA
HETATM    2  C1  UNL     1     142.749  72.914  63.125  1.00  0.00     0.079 C 
HETATM    3  C2  UNL     1     143.176  71.560  62.881  1.00  0.00     0.256 C 
ENDROOT
BRANCH   3   4
HETATM    4  N2  UNL     1     143.938  70.983  63.965  1.00  0.00    -0.294 N 
HETATM    5  C3  UNL     1     144.697  71.757  64.797  1.00  0.00     0.132 A 
HETATM    6  C4  UNL     1     145.434  71.272  65.833  1.00  0.00     0.120 A 
HETATM    7  C8  UNL     1     145.402  69.885  66.046  1.00  0.00     0.277 A 
HETATM    8  O2  UNL     1     146.053  69.374  66.975  1.00  0.00    -0.266 OA
HETATM    9  N9  UNL     1     144.661  69.139  65.231  1.00  0.00    -0.273 N 
HETATM   10  C9  UNL     1     143.942  69.670  64.210  1.00  0.00     0.330 A 
ATOM     11  H9  UNL     1     144.632  68.131  65.379  1.00  0.00     0.173 HD
HETATM   12  O3  UNL     1     143.247  68.922  63.455  1.00  0.00    -0.246 OA
BRANCH   6  13
HETATM   13  N3  UNL     1     146.207  72.070  66.679  1.00  0.00    -0.302 N 
HETATM   14  C5  UNL     1     147.600  72.210  66.682  1.00  0.00     0.339 C 
HETATM   15  O1  UNL     1     148.406  71.650  65.933  1.00  0.00    -0.246 OA
HETATM   16  N4  UNL     1     148.165  73.104  67.663  1.00  0.00    -0.139 N 
HETATM   17  C6  UNL     1     149.164  73.824  67.344  1.00  0.00     0.709 C 
ATOM     18  H4  UNL     1     147.769  73.158  68.602  1.00  0.00     0.189 HD
HETATM   19  N5  UNL     1     149.730  74.703  68.288  1.00  0.00    -0.138 N 
HETATM   20  N7  UNL     1     149.716  73.759  66.055  1.00  0.00    -0.124 N 
ATOM     21  H5  UNL     1     150.635  74.512  68.718  1.00  0.00     0.205 HD
HETATM   22  C7  UNL     1     151.062  73.388  65.872  1.00  0.00     0.196 C 
ATOM     23  H7  UNL     1     149.139  73.982  65.244  1.00  0.00     0.197 HD
HETATM   24  N8  UNL     1     152.165  73.069  65.732  1.00  0.00    -0.171 NA
ATOM     25  H3  UNL     1     145.698  72.614  67.376  1.00  0.00     0.171 HD
BRANCH  19  26
HETATM   26  N6  UNL     1     148.989  75.859  68.613  1.00  0.00    -0.331 N 
ATOM     27  H62 UNL     1     149.462  76.703  68.935  1.00  0.00     0.177 HD
ATOM     28  H61 UNL     1     147.976  75.805  68.509  1.00  0.00     0.177 HD
ENDBRANCH  19  26
ENDBRANCH   6  13
ENDBRANCH   3   4
TORSDOF 3
ENDMDL
