MODEL 1
REMARK VINA RESULT: -6.086518925      0.000      0.000
REMARK  9 active torsions:
REMARK  status: ('A' for Active; 'I' for Inactive)
REMARK    1  A    between atoms: C2_2  and  C3_3 
REMARK    2  A    between atoms: C3_3  and  N1_4 
REMARK    3  A    between atoms: C3_3  and  C7_19 
REMARK    4  A    between atoms: C6_13  and  N4_14 
REMARK    5  A    between atoms: C10_23  and  N6_24 
REMARK    6  A    between atoms: N6_24  and  C11_26 
REMARK    7  A    between atoms: C13_28  and  C14_29 
REMARK    8  A    between atoms: C14_29  and  N7_30 
REMARK    9  A    between atoms: C15_36  and  O1_37 
ROOT
HETATM    1  C7  UNL     1      33.682   9.593  90.839  1.00  0.00     0.009 A 
HETATM    2  C8  UNL     1      35.048   9.511  91.049  1.00  0.00     0.038 A 
HETATM    3  C9  UNL     1      35.698  10.239  92.036  1.00  0.00     0.064 A 
HETATM    4 CL2  UNL     1      37.426  10.120  92.291  1.00  0.00    -0.082 Cl
HETATM    5  C10 UNL     1      34.974  11.082  92.847  1.00  0.00     0.097 A 
HETATM    6  C17 UNL     1      33.591  11.162  92.633  1.00  0.00     0.183 A 
HETATM    7  F1  UNL     1      32.818  11.980  93.402  1.00  0.00    -0.200 F 
HETATM    8  C18 UNL     1      32.950  10.439  91.654  1.00  0.00     0.165 A 
HETATM    9  F2  UNL     1      31.637  10.550  91.479  1.00  0.00    -0.202 F 
ENDROOT
BRANCH   1  10
HETATM   10  C3  UNL     1      33.014   8.809  89.806  1.00  0.00     0.135 C 
BRANCH  10  11
HETATM   11  C2  UNL     1      32.743   9.663  88.543  1.00  0.00     0.026 C 
HETATM   12  C1  UNL     1      31.402   9.221  87.939  1.00  0.00     0.007 C 
ENDBRANCH  10  11
BRANCH  10  13
HETATM   13  N1  UNL     1      33.908   7.794  89.318  1.00  0.00    -0.217 N 
HETATM   14  C4  UNL     1      33.739   6.561  89.158  1.00  0.00     0.695 A 
HETATM   15  N2  UNL     1      34.818   5.871  88.666  1.00  0.00    -0.165 N 
HETATM   16  N5  UNL     1      32.651   5.824  89.395  1.00  0.00    -0.022 N 
HETATM   17  C5  UNL     1      34.765   4.549  88.444  1.00  0.00     0.208 A 
ATOM     18  H2  UNL     1      35.681   6.375  88.464  1.00  0.00     0.186 HD
HETATM   19 CL1  UNL     1      36.146   3.678  87.817  1.00  0.00    -0.044 Cl
HETATM   20  N3  UNL     1      33.656   3.830  88.692  1.00  0.00    -0.165 N 
HETATM   21  C6  UNL     1      32.588   4.495  89.176  1.00  0.00     0.692 A 
ATOM     22  H3  UNL     1      33.624   2.824  88.520  1.00  0.00     0.186 HD
ATOM     23  H5  UNL     1      31.821   6.292  89.761  1.00  0.00     0.203 HD
ATOM     24  H1  UNL     1      34.834   8.133  89.059  1.00  0.00     0.178 HD
BRANCH  21  25
HETATM   25  N4  UNL     1      31.500   3.820  89.426  1.00  0.00    -0.234 N 
ATOM     26  H42 UNL     1      31.530   2.946  89.952  1.00  0.00     0.174 HD
ATOM     27  H41 UNL     1      30.613   4.187  89.081  1.00  0.00     0.174 HD
ENDBRANCH  21  25
ENDBRANCH  10  13
ENDBRANCH   1  10
BRANCH   5  28
HETATM   28  N6  UNL     1      35.544  11.849  93.869  1.00  0.00    -0.349 N 
ATOM     29  H6  UNL     1      35.567  11.450  94.807  1.00  0.00     0.166 HD
BRANCH  28  30
HETATM   30  C11 UNL     1      36.091  13.146  93.687  1.00  0.00     0.086 A 
HETATM   31  C12 UNL     1      37.398  13.431  93.353  1.00  0.00     0.060 A 
HETATM   32  C13 UNL     1      37.545  14.810  93.285  1.00  0.00     0.039 A 
HETATM   33  N8  UNL     1      36.354  15.357  93.571  1.00  0.00    -0.337 N 
HETATM   34  C15 UNL     1      35.472  14.372  93.814  1.00  0.00     0.169 A 
ATOM     35  H8  UNL     1      36.151  16.356  93.599  1.00  0.00     0.168 HD
BRANCH  32  36
HETATM   36  C14 UNL     1      38.811  15.549  92.955  1.00  0.00     0.286 C 
BRANCH  36  37
HETATM   37  N7  UNL     1      39.510  14.801  91.900  1.00  0.00    -0.074 N 
ATOM     38  H73 UNL     1      38.893  14.525  91.136  1.00  0.00     0.274 HD
ATOM     39  H72 UNL     1      40.146  15.385  91.357  1.00  0.00     0.274 HD
ATOM     40  H71 UNL     1      39.979  14.007  92.335  1.00  0.00     0.274 HD
ENDBRANCH  36  37
ENDBRANCH  32  36
BRANCH  34  41
HETATM   41  O1  UNL     1      34.154  14.593  94.140  1.00  0.00    -0.339 OA
HETATM   42  C16 UNL     1      33.527  15.759  93.631  1.00  0.00     0.211 C 
ENDBRANCH  34  41
ENDBRANCH  28  30
ENDBRANCH   5  28
TORSDOF 9
ENDMDL
MODEL 2
REMARK VINA RESULT: -6.008678214      1.148      2.002
REMARK  9 active torsions:
REMARK  status: ('A' for Active; 'I' for Inactive)
REMARK    1  A    between atoms: C2_2  and  C3_3 
REMARK    2  A    between atoms: C3_3  and  N1_4 
REMARK    3  A    between atoms: C3_3  and  C7_19 
REMARK    4  A    between atoms: C6_13  and  N4_14 
REMARK    5  A    between atoms: C10_23  and  N6_24 
REMARK    6  A    between atoms: N6_24  and  C11_26 
REMARK    7  A    between atoms: C13_28  and  C14_29 
REMARK    8  A    between atoms: C14_29  and  N7_30 
REMARK    9  A    between atoms: C15_36  and  O1_37 
ROOT
HETATM    1  C7  UNL     1      33.782   9.600  90.835  1.00  0.00     0.009 A 
HETATM    2  C8  UNL     1      35.150   9.503  91.023  1.00  0.00     0.038 A 
HETATM    3  C9  UNL     1      35.828  10.238  91.986  1.00  0.00     0.064 A 
HETATM    4 CL2  UNL     1      37.559  10.100  92.213  1.00  0.00    -0.082 Cl
HETATM    5  C10 UNL     1      35.130  11.106  92.793  1.00  0.00     0.097 A 
HETATM    6  C17 UNL     1      33.745  11.202  92.602  1.00  0.00     0.183 A 
HETATM    7  F1  UNL     1      32.997  12.044  93.370  1.00  0.00    -0.200 F 
HETATM    8  C18 UNL     1      33.077  10.471  91.647  1.00  0.00     0.165 A 
HETATM    9  F2  UNL     1      31.763  10.597  91.493  1.00  0.00    -0.202 F 
ENDROOT
BRANCH   1  10
HETATM   10  C3  UNL     1      33.085   8.808  89.828  1.00  0.00     0.135 C 
BRANCH  10  11
HETATM   11  C2  UNL     1      32.789   9.648  88.562  1.00  0.00     0.026 C 
HETATM   12  C1  UNL     1      31.422   9.221  88.008  1.00  0.00     0.007 C 
ENDBRANCH  10  11
BRANCH  10  13
HETATM   13  N1  UNL     1      33.962   7.782  89.331  1.00  0.00    -0.217 N 
HETATM   14  C4  UNL     1      33.775   6.553  89.165  1.00  0.00     0.695 A 
HETATM   15  N2  UNL     1      34.841   5.850  88.664  1.00  0.00    -0.165 N 
HETATM   16  N5  UNL     1      32.676   5.831  89.402  1.00  0.00    -0.022 N 
HETATM   17  C5  UNL     1      34.767   4.530  88.435  1.00  0.00     0.208 A 
ATOM     18  H2  UNL     1      35.711   6.342  88.461  1.00  0.00     0.186 HD
HETATM   19 CL1  UNL     1      36.132   3.642  87.798  1.00  0.00    -0.044 Cl
HETATM   20  N3  UNL     1      33.649   3.826  88.683  1.00  0.00    -0.165 N 
HETATM   21  C6  UNL     1      32.593   4.504  89.175  1.00  0.00     0.692 A 
ATOM     22  H3  UNL     1      33.601   2.822  88.507  1.00  0.00     0.186 HD
ATOM     23  H5  UNL     1      31.855   6.309  89.774  1.00  0.00     0.203 HD
ATOM     24  H1  UNL     1      34.893   8.109  89.070  1.00  0.00     0.178 HD
BRANCH  21  25
HETATM   25  N4  UNL     1      31.495   3.844  89.427  1.00  0.00    -0.234 N 
ATOM     26  H42 UNL     1      30.621   4.078  88.958  1.00  0.00     0.174 HD
ATOM     27  H41 UNL     1      31.533   3.086  90.109  1.00  0.00     0.174 HD
ENDBRANCH  21  25
ENDBRANCH  10  13
ENDBRANCH   1  10
BRANCH   5  28
HETATM   28  N6  UNL     1      35.728  11.882  93.792  1.00  0.00    -0.349 N 
ATOM     29  H6  UNL     1      35.950  11.430  94.679  1.00  0.00     0.166 HD
BRANCH  28  30
HETATM   30  C11 UNL     1      36.047  13.259  93.653  1.00  0.00     0.086 A 
HETATM   31  C12 UNL     1      35.251  14.315  94.040  1.00  0.00     0.060 A 
HETATM   32  C13 UNL     1      35.902  15.500  93.721  1.00  0.00     0.039 A 
HETATM   33  N8  UNL     1      37.072  15.175  93.152  1.00  0.00    -0.337 N 
HETATM   34  C15 UNL     1      37.174  13.835  93.104  1.00  0.00     0.169 A 
ATOM     35  H8  UNL     1      37.771  15.836  92.811  1.00  0.00     0.168 HD
BRANCH  32  36
HETATM   36  C14 UNL     1      35.384  16.888  93.968  1.00  0.00     0.286 C 
BRANCH  36  37
HETATM   37  N7  UNL     1      34.384  17.189  92.934  1.00  0.00    -0.074 N 
ATOM     38  H73 UNL     1      33.571  16.574  92.978  1.00  0.00     0.274 HD
ATOM     39  H72 UNL     1      33.897  18.070  93.099  1.00  0.00     0.274 HD
ATOM     40  H71 UNL     1      34.851  17.161  92.027  1.00  0.00     0.274 HD
ENDBRANCH  36  37
ENDBRANCH  32  36
BRANCH  34  41
HETATM   41  O1  UNL     1      38.257  13.172  92.576  1.00  0.00    -0.339 OA
HETATM   42  C16 UNL     1      39.554  13.630  92.922  1.00  0.00     0.211 C 
ENDBRANCH  34  41
ENDBRANCH  28  30
ENDBRANCH   5  28
TORSDOF 9
ENDMDL
MODEL 3
REMARK VINA RESULT: -5.994859410      4.944      6.667
REMARK  9 active torsions:
REMARK  status: ('A' for Active; 'I' for Inactive)
REMARK    1  A    between atoms: C2_2  and  C3_3 
REMARK    2  A    between atoms: C3_3  and  N1_4 
REMARK    3  A    between atoms: C3_3  and  C7_19 
REMARK    4  A    between atoms: C6_13  and  N4_14 
REMARK    5  A    between atoms: C10_23  and  N6_24 
REMARK    6  A    between atoms: N6_24  and  C11_26 
REMARK    7  A    between atoms: C13_28  and  C14_29 
REMARK    8  A    between atoms: C14_29  and  N7_30 
REMARK    9  A    between atoms: C15_36  and  O1_37 
ROOT
HETATM    1  C7  UNL     1      33.076   6.968  90.439  1.00  0.00     0.009 A 
HETATM    2  C8  UNL     1      32.835   7.976  91.357  1.00  0.00     0.038 A 
HETATM    3  C9  UNL     1      32.567   9.284  90.979  1.00  0.00     0.064 A 
HETATM    4 CL2  UNL     1      32.260  10.546  92.154  1.00  0.00    -0.082 Cl
HETATM    5  C10 UNL     1      32.538   9.613  89.644  1.00  0.00     0.097 A 
HETATM    6  C17 UNL     1      32.782   8.591  88.716  1.00  0.00     0.183 A 
HETATM    7  F1  UNL     1      32.768   8.852  87.378  1.00  0.00    -0.200 F 
HETATM    8  C18 UNL     1      33.047   7.295  89.094  1.00  0.00     0.165 A 
HETATM    9  F2  UNL     1      33.279   6.356  88.182  1.00  0.00    -0.202 F 
ENDROOT
BRANCH   1  10
HETATM   10  C3  UNL     1      33.341   5.595  90.855  1.00  0.00     0.135 C 
BRANCH  10  11
HETATM   11  C2  UNL     1      34.498   5.535  91.882  1.00  0.00     0.026 C 
HETATM   12  C1  UNL     1      35.205   4.180  91.735  1.00  0.00     0.007 C 
ENDBRANCH  10  11
BRANCH  10  13
HETATM   13  N1  UNL     1      32.222   5.095  91.607  1.00  0.00    -0.217 N 
HETATM   14  C4  UNL     1      31.197   4.475  91.236  1.00  0.00     0.695 A 
HETATM   15  N2  UNL     1      30.310   4.142  92.229  1.00  0.00    -0.165 N 
HETATM   16  N5  UNL     1      30.849   4.085  90.006  1.00  0.00    -0.022 N 
HETATM   17  C5  UNL     1      29.178   3.472  91.964  1.00  0.00     0.208 A 
ATOM     18  H2  UNL     1      30.516   4.410  93.191  1.00  0.00     0.186 HD
HETATM   19 CL1  UNL     1      28.054   3.053  93.236  1.00  0.00    -0.044 Cl
HETATM   20  N3  UNL     1      28.851   3.092  90.717  1.00  0.00    -0.165 N 
HETATM   21  C6  UNL     1      29.713   3.412  89.732  1.00  0.00     0.692 A 
ATOM     22  H3  UNL     1      27.988   2.583  90.524  1.00  0.00     0.186 HD
ATOM     23  H5  UNL     1      31.477   4.309  89.234  1.00  0.00     0.203 HD
ATOM     24  H1  UNL     1      32.270   5.277  92.610  1.00  0.00     0.178 HD
BRANCH  21  25
HETATM   25  N4  UNL     1      29.418   3.056  88.511  1.00  0.00    -0.234 N 
ATOM     26  H42 UNL     1      28.483   3.202  88.131  1.00  0.00     0.174 HD
ATOM     27  H41 UNL     1      30.149   2.625  87.943  1.00  0.00     0.174 HD
ENDBRANCH  21  25
ENDBRANCH  10  13
ENDBRANCH   1  10
BRANCH   5  28
HETATM   28  N6  UNL     1      32.272  10.903  89.171  1.00  0.00    -0.349 N 
ATOM     29  H6  UNL     1      33.043  11.569  89.145  1.00  0.00     0.166 HD
BRANCH  28  30
HETATM   30  C11 UNL     1      30.999  11.346  88.726  1.00  0.00     0.086 A 
HETATM   31  C12 UNL     1      30.292  10.831  87.661  1.00  0.00     0.060 A 
HETATM   32  C13 UNL     1      29.104  11.540  87.534  1.00  0.00     0.039 A 
HETATM   33  N8  UNL     1      29.085  12.468  88.503  1.00  0.00    -0.337 N 
HETATM   34  C15 UNL     1      30.213  12.364  89.226  1.00  0.00     0.169 A 
ATOM     35  H8  UNL     1      28.336  13.142  88.665  1.00  0.00     0.168 HD
BRANCH  32  36
HETATM   36  C14 UNL     1      28.041  11.308  86.498  1.00  0.00     0.286 C 
BRANCH  36  37
HETATM   37  N7  UNL     1      28.675  11.386  85.174  1.00  0.00    -0.074 N 
ATOM     38  H73 UNL     1      29.668  11.615  85.224  1.00  0.00     0.274 HD
ATOM     39  H72 UNL     1      28.768  10.474  84.726  1.00  0.00     0.274 HD
ATOM     40  H71 UNL     1      28.145  12.050  84.610  1.00  0.00     0.274 HD
ENDBRANCH  36  37
ENDBRANCH  32  36
BRANCH  34  41
HETATM   41  O1  UNL     1      30.508  13.172  90.299  1.00  0.00    -0.339 OA
HETATM   42  C16 UNL     1      30.246  12.676  91.602  1.00  0.00     0.211 C 
ENDBRANCH  34  41
ENDBRANCH  28  30
ENDBRANCH   5  28
TORSDOF 9
ENDMDL
MODEL 4
REMARK VINA RESULT: -5.840236124      3.052      8.998
REMARK  9 active torsions:
REMARK  status: ('A' for Active; 'I' for Inactive)
REMARK    1  A    between atoms: C2_2  and  C3_3 
REMARK    2  A    between atoms: C3_3  and  N1_4 
REMARK    3  A    between atoms: C3_3  and  C7_19 
REMARK    4  A    between atoms: C6_13  and  N4_14 
REMARK    5  A    between atoms: C10_23  and  N6_24 
REMARK    6  A    between atoms: N6_24  and  C11_26 
REMARK    7  A    between atoms: C13_28  and  C14_29 
REMARK    8  A    between atoms: C14_29  and  N7_30 
REMARK    9  A    between atoms: C15_36  and  O1_37 
ROOT
HETATM    1  C7  UNL     1      37.463  13.722  93.376  1.00  0.00     0.009 A 
HETATM    2  C8  UNL     1      37.752  12.471  92.858  1.00  0.00     0.038 A 
HETATM    3  C9  UNL     1      36.795  11.474  92.729  1.00  0.00     0.064 A 
HETATM    4 CL2  UNL     1      37.178   9.899  92.069  1.00  0.00    -0.082 Cl
HETATM    5  C10 UNL     1      35.501  11.720  93.128  1.00  0.00     0.097 A 
HETATM    6  C17 UNL     1      35.210  12.987  93.651  1.00  0.00     0.183 A 
HETATM    7  F1  UNL     1      33.948  13.292  94.064  1.00  0.00    -0.200 F 
HETATM    8  C18 UNL     1      36.162  13.972  93.777  1.00  0.00     0.165 A 
HETATM    9  F2  UNL     1      35.846  15.160  94.285  1.00  0.00    -0.202 F 
ENDROOT
BRANCH   1  10
HETATM   10  C3  UNL     1      38.479  14.762  93.490  1.00  0.00     0.135 C 
BRANCH  10  11
HETATM   11  C2  UNL     1      38.989  14.889  94.946  1.00  0.00     0.026 C 
HETATM   12  C1  UNL     1      39.035  16.379  95.314  1.00  0.00     0.007 C 
ENDBRANCH  10  11
BRANCH  10  13
HETATM   13  N1  UNL     1      39.660  14.362  92.773  1.00  0.00    -0.217 N 
HETATM   14  C4  UNL     1      40.399  15.003  91.988  1.00  0.00     0.695 A 
HETATM   15  N2  UNL     1      41.461  14.308  91.468  1.00  0.00    -0.165 N 
HETATM   16  N5  UNL     1      40.301  16.275  91.591  1.00  0.00    -0.022 N 
HETATM   17  C5  UNL     1      42.330  14.881  90.622  1.00  0.00     0.208 A 
ATOM     18  H2  UNL     1      41.594  13.331  91.731  1.00  0.00     0.186 HD
HETATM   19 CL1  UNL     1      43.680  13.986  89.963  1.00  0.00    -0.044 Cl
HETATM   20  N3  UNL     1      42.208  16.164  90.237  1.00  0.00    -0.165 N 
HETATM   21  C6  UNL     1      41.169  16.859  90.741  1.00  0.00     0.692 A 
ATOM     22  H3  UNL     1      42.873  16.592  89.593  1.00  0.00     0.186 HD
ATOM     23  H5  UNL     1      39.528  16.835  91.952  1.00  0.00     0.203 HD
ATOM     24  H1  UNL     1      39.943  13.394  92.929  1.00  0.00     0.178 HD
BRANCH  21  25
HETATM   25  N4  UNL     1      41.026  18.106  90.382  1.00  0.00    -0.234 N 
ATOM     26  H42 UNL     1      41.678  18.824  90.699  1.00  0.00     0.174 HD
ATOM     27  H41 UNL     1      40.242  18.348  89.776  1.00  0.00     0.174 HD
ENDBRANCH  21  25
ENDBRANCH  10  13
ENDBRANCH   1  10
BRANCH   5  28
HETATM   28  N6  UNL     1      34.471  10.777  93.031  1.00  0.00    -0.349 N 
ATOM     29  H6  UNL     1      34.337  10.136  93.812  1.00  0.00     0.166 HD
BRANCH  28  30
HETATM   30  C11 UNL     1      33.600  10.655  91.916  1.00  0.00     0.086 A 
HETATM   31  C12 UNL     1      33.888  10.006  90.734  1.00  0.00     0.060 A 
HETATM   32  C13 UNL     1      32.792  10.121  89.889  1.00  0.00     0.039 A 
HETATM   33  N8  UNL     1      31.854  10.825  90.540  1.00  0.00    -0.337 N 
HETATM   34  C15 UNL     1      32.323  11.152  91.757  1.00  0.00     0.169 A 
ATOM     35  H8  UNL     1      30.935  11.072  90.172  1.00  0.00     0.168 HD
BRANCH  32  36
HETATM   36  C14 UNL     1      32.684   9.561  88.499  1.00  0.00     0.286 C 
BRANCH  36  37
HETATM   37  N7  UNL     1      31.585   8.584  88.489  1.00  0.00    -0.074 N 
ATOM     38  H73 UNL     1      30.665   9.024  88.495  1.00  0.00     0.274 HD
ATOM     39  H72 UNL     1      31.498   8.097  87.596  1.00  0.00     0.274 HD
ATOM     40  H71 UNL     1      31.724   7.947  89.274  1.00  0.00     0.274 HD
ENDBRANCH  36  37
ENDBRANCH  32  36
BRANCH  34  41
HETATM   41  O1  UNL     1      31.608  11.879  92.679  1.00  0.00    -0.339 OA
HETATM   42  C16 UNL     1      30.993  13.083  92.250  1.00  0.00     0.211 C 
ENDBRANCH  34  41
ENDBRANCH  28  30
ENDBRANCH   5  28
TORSDOF 9
ENDMDL
MODEL 5
REMARK VINA RESULT: -5.785557197      2.978      4.145
REMARK  9 active torsions:
REMARK  status: ('A' for Active; 'I' for Inactive)
REMARK    1  A    between atoms: C2_2  and  C3_3 
REMARK    2  A    between atoms: C3_3  and  N1_4 
REMARK    3  A    between atoms: C3_3  and  C7_19 
REMARK    4  A    between atoms: C6_13  and  N4_14 
REMARK    5  A    between atoms: C10_23  and  N6_24 
REMARK    6  A    between atoms: N6_24  and  C11_26 
REMARK    7  A    between atoms: C13_28  and  C14_29 
REMARK    8  A    between atoms: C14_29  and  N7_30 
REMARK    9  A    between atoms: C15_36  and  O1_37 
ROOT
HETATM    1  C7  UNL     1      35.517  10.822  92.593  1.00  0.00     0.009 A 
HETATM    2  C8  UNL     1      34.757  11.735  93.304  1.00  0.00     0.038 A 
HETATM    3  C9  UNL     1      35.301  12.875  93.879  1.00  0.00     0.064 A 
HETATM    4 CL2  UNL     1      34.324  14.022  94.771  1.00  0.00    -0.082 Cl
HETATM    5  C10 UNL     1      36.647  13.124  93.750  1.00  0.00     0.097 A 
HETATM    6  C17 UNL     1      37.415  12.199  93.029  1.00  0.00     0.183 A 
HETATM    7  F1  UNL     1      38.755  12.389  92.866  1.00  0.00    -0.200 F 
HETATM    8  C18 UNL     1      36.872  11.070  92.460  1.00  0.00     0.165 A 
HETATM    9  F2  UNL     1      37.636  10.214  91.790  1.00  0.00    -0.202 F 
ENDROOT
BRANCH   1  10
HETATM   10  C3  UNL     1      34.924   9.636  91.983  1.00  0.00     0.135 C 
BRANCH  10  11
HETATM   11  C2  UNL     1      34.193   8.771  93.038  1.00  0.00     0.026 C 
HETATM   12  C1  UNL     1      34.988   7.471  93.231  1.00  0.00     0.007 C 
ENDBRANCH  10  11
BRANCH  10  13
HETATM   13  N1  UNL     1      33.860  10.030  91.101  1.00  0.00    -0.217 N 
HETATM   14  C4  UNL     1      33.329   9.428  90.137  1.00  0.00     0.695 A 
HETATM   15  N2  UNL     1      32.320  10.101  89.497  1.00  0.00    -0.165 N 
HETATM   16  N5  UNL     1      33.604   8.215  89.649  1.00  0.00    -0.022 N 
HETATM   17  C5  UNL     1      31.667   9.564  88.454  1.00  0.00     0.208 A 
ATOM     18  H2  UNL     1      32.059  11.033  89.820  1.00  0.00     0.186 HD
HETATM   19 CL1  UNL     1      30.383  10.431  87.644  1.00  0.00    -0.044 Cl
HETATM   20  N3  UNL     1      31.965   8.341  87.982  1.00  0.00    -0.165 N 
HETATM   21  C6  UNL     1      32.954   7.668  88.602  1.00  0.00     0.692 A 
ATOM     22  H3  UNL     1      31.464   7.940  87.189  1.00  0.00     0.186 HD
ATOM     23  H5  UNL     1      34.347   7.674  90.093  1.00  0.00     0.203 HD
ATOM     24  H1  UNL     1      33.471  10.954  91.291  1.00  0.00     0.178 HD
BRANCH  21  25
HETATM   25  N4  UNL     1      33.265   6.478  88.162  1.00  0.00    -0.234 N 
ATOM     26  H42 UNL     1      33.167   6.240  87.176  1.00  0.00     0.174 HD
ATOM     27  H41 UNL     1      33.607   5.789  88.832  1.00  0.00     0.174 HD
ENDBRANCH  21  25
ENDBRANCH  10  13
ENDBRANCH   1  10
BRANCH   5  28
HETATM   28  N6  UNL     1      37.280  14.249  94.291  1.00  0.00    -0.349 N 
ATOM     29  H6  UNL     1      37.435  14.270  95.298  1.00  0.00     0.166 HD
BRANCH  28  30
HETATM   30  C11 UNL     1      37.721  15.364  93.529  1.00  0.00     0.086 A 
HETATM   31  C12 UNL     1      39.032  15.677  93.242  1.00  0.00     0.060 A 
HETATM   32  C13 UNL     1      39.053  16.846  92.492  1.00  0.00     0.039 A 
HETATM   33  N8  UNL     1      37.781  17.238  92.323  1.00  0.00    -0.337 N 
HETATM   34  C15 UNL     1      36.971  16.359  92.939  1.00  0.00     0.169 A 
ATOM     35  H8  UNL     1      37.479  18.067  91.811  1.00  0.00     0.168 HD
BRANCH  32  36
HETATM   36  C14 UNL     1      40.279  17.541  91.971  1.00  0.00     0.286 C 
BRANCH  36  37
HETATM   37  N7  UNL     1      40.254  17.464  90.503  1.00  0.00    -0.074 N 
ATOM     38  H73 UNL     1      40.890  16.756  90.134  1.00  0.00     0.274 HD
ATOM     39  H72 UNL     1      39.386  17.067  90.143  1.00  0.00     0.274 HD
ATOM     40  H71 UNL     1      40.444  18.396  90.136  1.00  0.00     0.274 HD
ENDBRANCH  36  37
ENDBRANCH  32  36
BRANCH  34  41
HETATM   41  O1  UNL     1      35.601  16.471  92.957  1.00  0.00    -0.339 OA
HETATM   42  C16 UNL     1      34.985  17.305  91.989  1.00  0.00     0.211 C 
ENDBRANCH  34  41
ENDBRANCH  28  30
ENDBRANCH   5  28
TORSDOF 9
ENDMDL
