MODEL 1
REMARK VINA RESULT: -6.923306454      0.000      0.000
REMARK  11 active torsions:
REMARK  status: ('A' for Active; 'I' for Inactive)
REMARK    1  A    between atoms: S1_2  and  C2_3 
REMARK    2  A    between atoms: C2_3  and  N2_7 
REMARK    3  A    between atoms: N2_7  and  C3_9 
REMARK    4  A    between atoms: C5_12  and  N3_13 
REMARK       I    between atoms: N3_13  and  C6_15 
REMARK    5  A    between atoms: C6_15  and  C7_17 
REMARK    6  A    between atoms: C7_17  and  C8_18 
REMARK    7  A    between atoms: C8_18  and  C9_19 
REMARK    8  A    between atoms: C9_19  and  N4_20 
REMARK    9  A    between atoms: C9_19  and  C10_24 
REMARK   10  A    between atoms: C10_24  and  C11_25 
REMARK   11  A    between atoms: C15_30  and  O2_31 
ROOT
HETATM    1  N3  UNL     1      29.955  12.879  93.744  1.00  0.00    -0.324 N 
ATOM      2  H3  UNL     1      29.910  12.116  94.419  1.00  0.00     0.169 HD
HETATM    3  C6  UNL     1      30.892  12.722  92.725  1.00  0.00     0.222 C 
HETATM    4  O1  UNL     1      31.042  13.588  91.843  1.00  0.00    -0.273 OA
ENDROOT
BRANCH   3   5
HETATM    5  C7  UNL     1      31.738  11.522  92.664  1.00  0.00     0.105 C 
BRANCH   5   6
HETATM    6  C8  UNL     1      32.482  11.216  91.446  1.00  0.00     0.042 C 
BRANCH   6   7
HETATM    7  C9  UNL     1      31.999  10.208  90.488  1.00  0.00     0.188 C 
BRANCH   7   8
HETATM    8  N4  UNL     1      32.365   8.854  90.641  1.00  0.00    -0.075 N 
ATOM      9  H43 UNL     1      33.265   8.816  91.117  1.00  0.00     0.274 HD
ATOM     10  H42 UNL     1      31.749   8.430  91.334  1.00  0.00     0.274 HD
ATOM     11  H41 UNL     1      32.404   8.240  89.827  1.00  0.00     0.274 HD
ENDBRANCH   7   8
BRANCH   7  12
HETATM   12  C10 UNL     1      32.210  10.722  89.067  1.00  0.00     0.074 C 
BRANCH  12  13
HETATM   13  C11 UNL     1      30.977  10.847  88.290  1.00  0.00    -0.012 A 
HETATM   14  C12 UNL     1      30.589   9.898  87.373  1.00  0.00     0.052 A 
HETATM   15  C13 UNL     1      29.426  10.039  86.655  1.00  0.00     0.119 A 
HETATM   16  F1  UNL     1      29.059   9.078  85.746  1.00  0.00    -0.206 F 
HETATM   17  C14 UNL     1      28.641  11.153  86.861  1.00  0.00     0.082 A 
HETATM   18  C15 UNL     1      28.994  12.133  87.771  1.00  0.00     0.107 A 
HETATM   19  C16 UNL     1      30.157  11.940  88.456  1.00  0.00     0.155 A 
HETATM   20  F2  UNL     1      30.509  12.909  89.361  1.00  0.00    -0.203 F 
BRANCH  18  21
HETATM   21  O2  UNL     1      28.179  13.258  87.963  1.00  0.00    -0.357 OA
ATOM     22  H2  UNL     1      28.562  14.120  88.076  1.00  0.00     0.217 HD
ENDBRANCH  18  21
ENDBRANCH  12  13
ENDBRANCH   7  12
ENDBRANCH   6   7
ENDBRANCH   5   6
ENDBRANCH   3   5
BRANCH   1  23
HETATM   23  C5  UNL     1      29.069  13.936  93.972  1.00  0.00     0.074 A 
HETATM   24  C4  UNL     1      27.708  13.633  94.130  1.00  0.00     0.094 A 
HETATM   25  C3  UNL     1      26.812  14.620  94.351  1.00  0.00     0.127 A 
HETATM   26 CL1  UNL     1      27.156  11.963  94.041  1.00  0.00    -0.079 Cl
HETATM   27  C18 UNL     1      27.238  15.933  94.420  1.00  0.00     0.274 A 
HETATM   28  N5  UNL     1      28.521  16.255  94.275  1.00  0.00    -0.329 N 
HETATM   29  O3  UNL     1      26.370  16.824  94.629  1.00  0.00    -0.266 OA
HETATM   30  C17 UNL     1      29.412  15.250  94.053  1.00  0.00     0.122 A 
ATOM     31  H5  UNL     1      28.828  17.227  94.329  1.00  0.00     0.168 HD
BRANCH  25  32
HETATM   32  N2  UNL     1      25.435  14.310  94.512  1.00  0.00    -0.331 N 
ATOM     33  H2  UNL     1      25.061  14.124  95.442  1.00  0.00     0.168 HD
BRANCH  32  34
HETATM   34  C2  UNL     1      24.584  14.260  93.390  1.00  0.00     0.138 C 
HETATM   35  N1  UNL     1      24.365  15.298  92.672  1.00  0.00    -0.380 N 
ATOM     36  H12 UNL     1      23.748  15.261  91.860  1.00  0.00     0.158 HD
ATOM     37  H11 UNL     1      24.819  16.176  92.923  1.00  0.00     0.158 HD
BRANCH  34  38
HETATM   38  S1  UNL     1      23.796  12.730  92.954  1.00  0.00    -0.099 SA
HETATM   39  C1  UNL     1      23.283  11.826  94.431  1.00  0.00     0.099 C 
ENDBRANCH  34  38
ENDBRANCH  32  34
ENDBRANCH  25  32
ENDBRANCH   1  23
TORSDOF 11
ENDMDL
MODEL 2
REMARK VINA RESULT: -6.907465991      1.642      2.119
REMARK  11 active torsions:
REMARK  status: ('A' for Active; 'I' for Inactive)
REMARK    1  A    between atoms: S1_2  and  C2_3 
REMARK    2  A    between atoms: C2_3  and  N2_7 
REMARK    3  A    between atoms: N2_7  and  C3_9 
REMARK    4  A    between atoms: C5_12  and  N3_13 
REMARK       I    between atoms: N3_13  and  C6_15 
REMARK    5  A    between atoms: C6_15  and  C7_17 
REMARK    6  A    between atoms: C7_17  and  C8_18 
REMARK    7  A    between atoms: C8_18  and  C9_19 
REMARK    8  A    between atoms: C9_19  and  N4_20 
REMARK    9  A    between atoms: C9_19  and  C10_24 
REMARK   10  A    between atoms: C10_24  and  C11_25 
REMARK   11  A    between atoms: C15_30  and  O2_31 
ROOT
HETATM    1  N3  UNL     1      31.831  12.479  92.326  1.00  0.00    -0.324 N 
ATOM      2  H3  UNL     1      31.418  12.242  91.424  1.00  0.00     0.169 HD
HETATM    3  C6  UNL     1      32.806  11.600  92.788  1.00  0.00     0.222 C 
HETATM    4  O1  UNL     1      33.381  11.783  93.878  1.00  0.00    -0.273 OA
ENDROOT
BRANCH   3   5
HETATM    5  C7  UNL     1      33.186  10.420  91.999  1.00  0.00     0.105 C 
BRANCH   5   6
HETATM    6  C8  UNL     1      32.155   9.596  91.377  1.00  0.00     0.042 C 
BRANCH   6   7
HETATM    7  C9  UNL     1      32.188   9.287  89.937  1.00  0.00     0.188 C 
BRANCH   7   8
HETATM    8  N4  UNL     1      33.102   8.336  89.439  1.00  0.00    -0.075 N 
ATOM      9  H43 UNL     1      32.900   8.182  88.451  1.00  0.00     0.274 HD
ATOM     10  H42 UNL     1      34.024   8.768  89.394  1.00  0.00     0.274 HD
ATOM     11  H41 UNL     1      33.193   7.427  89.894  1.00  0.00     0.274 HD
ENDBRANCH   7   8
BRANCH   7  12
HETATM   12  C10 UNL     1      32.196  10.590  89.143  1.00  0.00     0.074 C 
BRANCH  12  13
HETATM   13  C11 UNL     1      30.979  10.821  88.365  1.00  0.00    -0.012 A 
HETATM   14  C12 UNL     1      30.566   9.957  87.377  1.00  0.00     0.052 A 
HETATM   15  C13 UNL     1      29.419  10.197  86.659  1.00  0.00     0.119 A 
HETATM   16  F1  UNL     1      29.027   9.320  85.679  1.00  0.00    -0.206 F 
HETATM   17  C14 UNL     1      28.675  11.323  86.938  1.00  0.00     0.082 A 
HETATM   18  C15 UNL     1      29.054  12.219  87.922  1.00  0.00     0.107 A 
HETATM   19  C16 UNL     1      30.201  11.931  88.602  1.00  0.00     0.155 A 
HETATM   20  F2  UNL     1      30.578  12.816  89.579  1.00  0.00    -0.203 F 
BRANCH  18  21
HETATM   21  O2  UNL     1      28.282  13.358  88.188  1.00  0.00    -0.357 OA
ATOM     22  H2  UNL     1      27.844  13.822  87.484  1.00  0.00     0.217 HD
ENDBRANCH  18  21
ENDBRANCH  12  13
ENDBRANCH   7  12
ENDBRANCH   6   7
ENDBRANCH   5   6
ENDBRANCH   3   5
BRANCH   1  23
HETATM   23  C5  UNL     1      31.337  13.643  92.925  1.00  0.00     0.074 A 
HETATM   24  C4  UNL     1      30.035  13.615  93.447  1.00  0.00     0.094 A 
HETATM   25  C3  UNL     1      29.514  14.715  94.034  1.00  0.00     0.127 A 
HETATM   26 CL1  UNL     1      29.069  12.146  93.340  1.00  0.00    -0.079 Cl
HETATM   27  C18 UNL     1      30.266  15.871  94.120  1.00  0.00     0.274 A 
HETATM   28  N5  UNL     1      31.503  15.932  93.636  1.00  0.00    -0.329 N 
HETATM   29  O3  UNL     1      29.741  16.874  94.676  1.00  0.00    -0.266 OA
HETATM   30  C17 UNL     1      32.016  14.816  93.047  1.00  0.00     0.122 A 
ATOM     31  H5  UNL     1      32.053  16.789  93.704  1.00  0.00     0.168 HD
BRANCH  25  32
HETATM   32  N2  UNL     1      28.195  14.684  94.562  1.00  0.00    -0.331 N 
ATOM     33  H2  UNL     1      28.032  14.318  95.500  1.00  0.00     0.168 HD
BRANCH  32  34
HETATM   34  C2  UNL     1      27.113  15.155  93.794  1.00  0.00     0.138 C 
HETATM   35  N1  UNL     1      26.835  16.404  93.731  1.00  0.00    -0.380 N 
ATOM     36  H12 UNL     1      26.050  16.746  93.175  1.00  0.00     0.158 HD
ATOM     37  H11 UNL     1      27.413  17.066  94.250  1.00  0.00     0.158 HD
BRANCH  34  38
HETATM   38  S1  UNL     1      26.108  14.004  92.892  1.00  0.00    -0.099 SA
HETATM   39  C1  UNL     1      24.355  14.272  93.233  1.00  0.00     0.099 C 
ENDBRANCH  34  38
ENDBRANCH  32  34
ENDBRANCH  25  32
ENDBRANCH   1  23
TORSDOF 11
ENDMDL
MODEL 3
REMARK VINA RESULT: -6.842601596      1.080      1.755
REMARK  11 active torsions:
REMARK  status: ('A' for Active; 'I' for Inactive)
REMARK    1  A    between atoms: S1_2  and  C2_3 
REMARK    2  A    between atoms: C2_3  and  N2_7 
REMARK    3  A    between atoms: N2_7  and  C3_9 
REMARK    4  A    between atoms: C5_12  and  N3_13 
REMARK       I    between atoms: N3_13  and  C6_15 
REMARK    5  A    between atoms: C6_15  and  C7_17 
REMARK    6  A    between atoms: C7_17  and  C8_18 
REMARK    7  A    between atoms: C8_18  and  C9_19 
REMARK    8  A    between atoms: C9_19  and  N4_20 
REMARK    9  A    between atoms: C9_19  and  C10_24 
REMARK   10  A    between atoms: C10_24  and  C11_25 
REMARK   11  A    between atoms: C15_30  and  O2_31 
ROOT
HETATM    1  N3  UNL     1      30.215  12.921  93.706  1.00  0.00    -0.324 N 
ATOM      2  H3  UNL     1      30.331  12.296  94.504  1.00  0.00     0.169 HD
HETATM    3  C6  UNL     1      30.984  12.612  92.587  1.00  0.00     0.222 C 
HETATM    4  O1  UNL     1      30.931  13.303  91.552  1.00  0.00    -0.273 OA
ENDROOT
BRANCH   3   5
HETATM    5  C7  UNL     1      31.889  11.454  92.596  1.00  0.00     0.105 C 
BRANCH   5   6
HETATM    6  C8  UNL     1      32.614  11.086  91.385  1.00  0.00     0.042 C 
BRANCH   6   7
HETATM    7  C9  UNL     1      32.069  10.101  90.436  1.00  0.00     0.188 C 
BRANCH   7   8
HETATM    8  N4  UNL     1      32.385   8.733  90.578  1.00  0.00    -0.075 N 
ATOM      9  H43 UNL     1      32.236   8.467  91.551  1.00  0.00     0.274 HD
ATOM     10  H42 UNL     1      31.666   8.186  90.104  1.00  0.00     0.274 HD
ATOM     11  H41 UNL     1      33.298   8.386  90.286  1.00  0.00     0.274 HD
ENDBRANCH   7   8
BRANCH   7  12
HETATM   12  C10 UNL     1      32.268  10.611  89.012  1.00  0.00     0.074 C 
BRANCH  12  13
HETATM   13  C11 UNL     1      31.021  10.918  88.311  1.00  0.00    -0.012 A 
HETATM   14  C12 UNL     1      30.313  12.073  88.546  1.00  0.00     0.052 A 
HETATM   15  C13 UNL     1      29.144  12.338  87.874  1.00  0.00     0.119 A 
HETATM   16  F1  UNL     1      28.455  13.498  88.125  1.00  0.00    -0.206 F 
HETATM   17  C14 UNL     1      28.678  11.426  86.951  1.00  0.00     0.082 A 
HETATM   18  C15 UNL     1      29.358  10.251  86.684  1.00  0.00     0.107 A 
HETATM   19  C16 UNL     1      30.512  10.041  87.380  1.00  0.00     0.155 A 
HETATM   20  F2  UNL     1      31.189   8.878  87.116  1.00  0.00    -0.203 F 
BRANCH  18  21
HETATM   21  O2  UNL     1      28.865   9.338  85.741  1.00  0.00    -0.357 OA
ATOM     22  H2  UNL     1      28.743   8.424  85.969  1.00  0.00     0.217 HD
ENDBRANCH  18  21
ENDBRANCH  12  13
ENDBRANCH   7  12
ENDBRANCH   6   7
ENDBRANCH   5   6
ENDBRANCH   3   5
BRANCH   1  23
HETATM   23  C5  UNL     1      29.307  13.968  93.891  1.00  0.00     0.074 A 
HETATM   24  C4  UNL     1      27.957  13.644  94.091  1.00  0.00     0.094 A 
HETATM   25  C3  UNL     1      27.041  14.621  94.272  1.00  0.00     0.127 A 
HETATM   26 CL1  UNL     1      27.444  11.959  94.107  1.00  0.00    -0.079 Cl
HETATM   27  C18 UNL     1      27.437  15.945  94.260  1.00  0.00     0.274 A 
HETATM   28  N5  UNL     1      28.708  16.288  94.073  1.00  0.00    -0.329 N 
HETATM   29  O3  UNL     1      26.550  16.826  94.434  1.00  0.00    -0.266 OA
HETATM   30  C17 UNL     1      29.620  15.293  93.891  1.00  0.00     0.122 A 
ATOM     31  H5  UNL     1      28.993  17.268  94.066  1.00  0.00     0.168 HD
BRANCH  25  32
HETATM   32  N2  UNL     1      25.675  14.289  94.475  1.00  0.00    -0.331 N 
ATOM     33  H2  UNL     1      25.334  14.095  95.417  1.00  0.00     0.168 HD
BRANCH  32  34
HETATM   34  C2  UNL     1      24.791  14.226  93.381  1.00  0.00     0.138 C 
HETATM   35  N1  UNL     1      24.504  15.269  92.694  1.00  0.00    -0.380 N 
ATOM     36  H12 UNL     1      23.863  15.222  91.902  1.00  0.00     0.158 HD
ATOM     37  H11 UNL     1      24.929  16.160  92.951  1.00  0.00     0.158 HD
BRANCH  34  38
HETATM   38  S1  UNL     1      24.053  12.673  92.936  1.00  0.00    -0.099 SA
HETATM   39  C1  UNL     1      23.732  11.669  94.402  1.00  0.00     0.099 C 
ENDBRANCH  34  38
ENDBRANCH  32  34
ENDBRANCH  25  32
ENDBRANCH   1  23
TORSDOF 11
ENDMDL
MODEL 4
REMARK VINA RESULT: -6.774713960      6.191      7.906
REMARK  11 active torsions:
REMARK  status: ('A' for Active; 'I' for Inactive)
REMARK    1  A    between atoms: S1_2  and  C2_3 
REMARK    2  A    between atoms: C2_3  and  N2_7 
REMARK    3  A    between atoms: N2_7  and  C3_9 
REMARK    4  A    between atoms: C5_12  and  N3_13 
REMARK       I    between atoms: N3_13  and  C6_15 
REMARK    5  A    between atoms: C6_15  and  C7_17 
REMARK    6  A    between atoms: C7_17  and  C8_18 
REMARK    7  A    between atoms: C8_18  and  C9_19 
REMARK    8  A    between atoms: C9_19  and  N4_20 
REMARK    9  A    between atoms: C9_19  and  C10_24 
REMARK   10  A    between atoms: C10_24  and  C11_25 
REMARK   11  A    between atoms: C15_30  and  O2_31 
ROOT
HETATM    1  N3  UNL     1      35.464   9.126  91.863  1.00  0.00    -0.324 N 
ATOM      2  H3  UNL     1      36.039   8.491  91.310  1.00  0.00     0.169 HD
HETATM    3  C6  UNL     1      34.425   9.748  91.173  1.00  0.00     0.222 C 
HETATM    4  O1  UNL     1      33.656  10.546  91.740  1.00  0.00    -0.273 OA
ENDROOT
BRANCH   3   5
HETATM    5  C7  UNL     1      34.208   9.479  89.745  1.00  0.00     0.105 C 
BRANCH   5   6
HETATM    6  C8  UNL     1      33.099  10.116  89.043  1.00  0.00     0.042 C 
BRANCH   6   7
HETATM    7  C9  UNL     1      31.850   9.387  88.765  1.00  0.00     0.188 C 
BRANCH   7   8
HETATM    8  N4  UNL     1      31.722   8.034  89.141  1.00  0.00    -0.075 N 
ATOM      9  H43 UNL     1      31.784   7.975  90.157  1.00  0.00     0.274 HD
ATOM     10  H42 UNL     1      30.758   7.745  88.979  1.00  0.00     0.274 HD
ATOM     11  H41 UNL     1      32.341   7.330  88.739  1.00  0.00     0.274 HD
ENDBRANCH   7   8
BRANCH   7  12
HETATM   12  C10 UNL     1      31.430   9.643  87.320  1.00  0.00     0.074 C 
BRANCH  12  13
HETATM   13  C11 UNL     1      30.080  10.190  87.181  1.00  0.00    -0.012 A 
HETATM   14  C12 UNL     1      29.077   9.509  86.531  1.00  0.00     0.052 A 
HETATM   15  C13 UNL     1      27.817  10.045  86.413  1.00  0.00     0.119 A 
HETATM   16  F1  UNL     1      26.832   9.346  85.761  1.00  0.00    -0.206 F 
HETATM   17  C14 UNL     1      27.562  11.286  86.956  1.00  0.00     0.082 A 
HETATM   18  C15 UNL     1      28.541  12.006  87.616  1.00  0.00     0.107 A 
HETATM   19  C16 UNL     1      29.772  11.425  87.704  1.00  0.00     0.155 A 
HETATM   20  F2  UNL     1      30.745  12.136  88.359  1.00  0.00    -0.203 F 
BRANCH  18  21
HETATM   21  O2  UNL     1      28.258  13.266  88.161  1.00  0.00    -0.357 OA
ATOM     22  H2  UNL     1      27.868  13.948  87.627  1.00  0.00     0.217 HD
ENDBRANCH  18  21
ENDBRANCH  12  13
ENDBRANCH   7  12
ENDBRANCH   6   7
ENDBRANCH   5   6
ENDBRANCH   3   5
BRANCH   1  23
HETATM   23  C5  UNL     1      35.828   9.251  93.207  1.00  0.00     0.074 A 
HETATM   24  C4  UNL     1      36.686  10.302  93.563  1.00  0.00     0.094 A 
HETATM   25  C3  UNL     1      37.068  10.463  94.849  1.00  0.00     0.127 A 
HETATM   26 CL1  UNL     1      37.274  11.421  92.336  1.00  0.00    -0.079 Cl
HETATM   27  C18 UNL     1      36.612   9.589  95.817  1.00  0.00     0.274 A 
HETATM   28  N5  UNL     1      35.797   8.581  95.514  1.00  0.00    -0.329 N 
HETATM   29  O3  UNL     1      36.992   9.775  97.005  1.00  0.00    -0.266 OA
HETATM   30  C17 UNL     1      35.421   8.431  94.214  1.00  0.00     0.122 A 
ATOM     31  H5  UNL     1      35.463   7.940  96.234  1.00  0.00     0.168 HD
BRANCH  25  32
HETATM   32  N2  UNL     1      37.937  11.529  95.207  1.00  0.00    -0.331 N 
ATOM     33  H2  UNL     1      38.939  11.446  95.038  1.00  0.00     0.168 HD
BRANCH  32  34
HETATM   34  C2  UNL     1      37.418  12.699  95.795  1.00  0.00     0.138 C 
HETATM   35  N1  UNL     1      37.386  12.848  97.067  1.00  0.00    -0.380 N 
ATOM     36  H12 UNL     1      37.010  13.696  97.493  1.00  0.00     0.158 HD
ATOM     37  H11 UNL     1      37.744  12.100  97.661  1.00  0.00     0.158 HD
BRANCH  34  38
HETATM   38  S1  UNL     1      36.796  14.000  94.761  1.00  0.00    -0.099 SA
HETATM   39  C1  UNL     1      35.101  13.656  94.242  1.00  0.00     0.099 C 
ENDBRANCH  34  38
ENDBRANCH  32  34
ENDBRANCH  25  32
ENDBRANCH   1  23
TORSDOF 11
ENDMDL
MODEL 5
REMARK VINA RESULT: -6.722966394      2.427      3.442
REMARK  11 active torsions:
REMARK  status: ('A' for Active; 'I' for Inactive)
REMARK    1  A    between atoms: S1_2  and  C2_3 
REMARK    2  A    between atoms: C2_3  and  N2_7 
REMARK    3  A    between atoms: N2_7  and  C3_9 
REMARK    4  A    between atoms: C5_12  and  N3_13 
REMARK       I    between atoms: N3_13  and  C6_15 
REMARK    5  A    between atoms: C6_15  and  C7_17 
REMARK    6  A    between atoms: C7_17  and  C8_18 
REMARK    7  A    between atoms: C8_18  and  C9_19 
REMARK    8  A    between atoms: C9_19  and  N4_20 
REMARK    9  A    between atoms: C9_19  and  C10_24 
REMARK   10  A    between atoms: C10_24  and  C11_25 
REMARK   11  A    between atoms: C15_30  and  O2_31 
ROOT
HETATM    1  N3  UNL     1      31.874  10.063  91.970  1.00  0.00    -0.324 N 
ATOM      2  H3  UNL     1      31.351   9.483  91.315  1.00  0.00     0.169 HD
HETATM    3  C6  UNL     1      33.177  10.373  91.586  1.00  0.00     0.222 C 
HETATM    4  O1  UNL     1      33.915  11.073  92.305  1.00  0.00    -0.273 OA
ENDROOT
BRANCH   3   5
HETATM    5  C7  UNL     1      33.721   9.878  90.315  1.00  0.00     0.105 C 
BRANCH   5   6
HETATM    6  C8  UNL     1      33.001  10.121  89.070  1.00  0.00     0.042 C 
BRANCH   6   7
HETATM    7  C9  UNL     1      31.822   9.320  88.699  1.00  0.00     0.188 C 
BRANCH   7   8
HETATM    8  N4  UNL     1      31.799   7.933  88.957  1.00  0.00    -0.075 N 
ATOM      9  H43 UNL     1      32.757   7.617  89.103  1.00  0.00     0.274 HD
ATOM     10  H42 UNL     1      31.392   7.784  89.880  1.00  0.00     0.274 HD
ATOM     11  H41 UNL     1      31.347   7.298  88.299  1.00  0.00     0.274 HD
ENDBRANCH   7   8
BRANCH   7  12
HETATM   12  C10 UNL     1      31.408   9.664  87.272  1.00  0.00     0.074 C 
BRANCH  12  13
HETATM   13  C11 UNL     1      30.052  10.204  87.159  1.00  0.00    -0.012 A 
HETATM   14  C12 UNL     1      29.037   9.511  86.541  1.00  0.00     0.052 A 
HETATM   15  C13 UNL     1      27.772  10.040  86.448  1.00  0.00     0.119 A 
HETATM   16  F1  UNL     1      26.775   9.330  85.826  1.00  0.00    -0.206 F 
HETATM   17  C14 UNL     1      27.524  11.286  86.983  1.00  0.00     0.082 A 
HETATM   18  C15 UNL     1      28.515  12.017  87.612  1.00  0.00     0.107 A 
HETATM   19  C16 UNL     1      29.751  11.443  87.677  1.00  0.00     0.155 A 
HETATM   20  F2  UNL     1      30.735  12.165  88.301  1.00  0.00    -0.203 F 
BRANCH  18  21
HETATM   21  O2  UNL     1      28.239  13.282  88.150  1.00  0.00    -0.357 OA
ATOM     22  H2  UNL     1      28.842  13.692  88.760  1.00  0.00     0.217 HD
ENDBRANCH  18  21
ENDBRANCH  12  13
ENDBRANCH   7  12
ENDBRANCH   6   7
ENDBRANCH   5   6
ENDBRANCH   3   5
BRANCH   1  23
HETATM   23  C5  UNL     1      31.184  10.435  93.128  1.00  0.00     0.074 A 
HETATM   24  C4  UNL     1      30.340  11.554  93.062  1.00  0.00     0.094 A 
HETATM   25  C3  UNL     1      29.652  11.953  94.155  1.00  0.00     0.127 A 
HETATM   26 CL1  UNL     1      30.171  12.449  91.555  1.00  0.00    -0.079 Cl
HETATM   27  C18 UNL     1      29.781  11.256  95.341  1.00  0.00     0.274 A 
HETATM   28  N5  UNL     1      30.572  10.191  95.439  1.00  0.00    -0.329 N 
HETATM   29  O3  UNL     1      29.121  11.662  96.337  1.00  0.00    -0.266 OA
HETATM   30  C17 UNL     1      31.259   9.800  94.329  1.00  0.00     0.122 A 
ATOM     31  H5  UNL     1      30.661   9.681  96.318  1.00  0.00     0.168 HD
BRANCH  25  32
HETATM   32  N2  UNL     1      28.799  13.086  94.085  1.00  0.00    -0.331 N 
ATOM     33  H2  UNL     1      29.181  14.020  94.230  1.00  0.00     0.168 HD
BRANCH  32  34
HETATM   34  C2  UNL     1      27.425  12.924  93.817  1.00  0.00     0.138 C 
HETATM   35  N1  UNL     1      26.819  11.827  94.082  1.00  0.00    -0.380 N 
ATOM     36  H12 UNL     1      25.825  11.710  93.887  1.00  0.00     0.158 HD
ATOM     37  H11 UNL     1      27.348  11.058  94.496  1.00  0.00     0.158 HD
BRANCH  34  38
HETATM   38  S1  UNL     1      26.507  14.262  93.097  1.00  0.00    -0.099 SA
HETATM   39  C1  UNL     1      24.731  13.967  93.226  1.00  0.00     0.099 C 
ENDBRANCH  34  38
ENDBRANCH  32  34
ENDBRANCH  25  32
ENDBRANCH   1  23
TORSDOF 11
ENDMDL
