MODEL 1
REMARK VINA RESULT: -7.108578270      0.000      0.000
REMARK  12 active torsions:
REMARK  status: ('A' for Active; 'I' for Inactive)
REMARK    1  A    between atoms: C2_2  and  C3_3 
REMARK    2  A    between atoms: C3_3  and  C4_4 
REMARK    3  A    between atoms: C3_3  and  N3_20 
REMARK    4  A    between atoms: C4_4  and  O1_5 
REMARK    5  A    between atoms: O1_5  and  C5_6 
REMARK    6  A    between atoms: C5_6  and  C6_7 
REMARK    7  A    between atoms: N3_20  and  C12_22 
REMARK    8  A    between atoms: C12_22  and  O2_23 
REMARK    9  A    between atoms: C12_22  and  C13_25 
REMARK   10  A    between atoms: C14_26  and  O3_27 
REMARK   11  A    between atoms: C15_29  and  O4_30 
REMARK   12  A    between atoms: C16_32  and  O5_33 
ROOT
HETATM    1  C3  UNL     1      31.108  10.750  92.072  1.00  0.00     0.107 C 
ENDROOT
BRANCH   1   2
HETATM    2  C2  UNL     1      31.412   9.395  92.654  1.00  0.00     0.023 C 
HETATM    3  C1  UNL     1      30.381   9.049  93.701  1.00  0.00     0.007 C 
ENDBRANCH   1   2
BRANCH   1   4
HETATM    4  C4  UNL     1      30.966  11.863  93.066  1.00  0.00     0.193 C 
BRANCH   4   5
HETATM    5  O1  UNL     1      29.869  12.605  93.122  1.00  0.00    -0.384 OA
BRANCH   5   6
HETATM    6  C5  UNL     1      29.289  13.065  94.236  1.00  0.00     0.211 C 
BRANCH   6   7
HETATM    7  C6  UNL     1      28.204  14.047  93.860  1.00  0.00     0.029 A 
HETATM    8  C7  UNL     1      28.472  15.373  93.976  1.00  0.00     0.018 A 
HETATM    9  C8  UNL     1      29.740  15.941  94.456  1.00  0.00     0.069 C 
HETATM   10  N1  UNL     1      27.488  16.258  93.627  1.00  0.00    -0.344 N 
HETATM   11  C9  UNL     1      26.288  15.842  93.182  1.00  0.00     0.141 A 
ATOM     12  H1  UNL     1      27.668  17.258  93.708  1.00  0.00     0.167 HD
HETATM   13  N2  UNL     1      25.383  16.704  92.859  1.00  0.00    -0.383 N 
HETATM   14  C10 UNL     1      25.981  14.508  93.050  1.00  0.00     0.198 A 
ATOM     15  H22 UNL     1      25.611  17.694  92.957  1.00  0.00     0.157 HD
ATOM     16  H21 UNL     1      24.473  16.389  92.522  1.00  0.00     0.157 HD
HETATM   17  F1  UNL     1      24.779  14.090  92.603  1.00  0.00    -0.199 F 
HETATM   18  C11 UNL     1      26.996  13.610  93.411  1.00  0.00     0.169 A 
HETATM   19  F2  UNL     1      26.762  12.295  93.307  1.00  0.00    -0.202 F 
ENDBRANCH   6   7
ENDBRANCH   5   6
ENDBRANCH   4   5
ENDBRANCH   1   4
BRANCH   1  20
HETATM   20  N3  UNL     1      32.299  11.043  91.205  1.00  0.00    -0.363 N 
ATOM     21  H3  UNL     1      33.183  11.316  91.635  1.00  0.00     0.162 HD
BRANCH  20  22
HETATM   22  C12 UNL     1      32.206  10.945  89.814  1.00  0.00     0.151 C 
BRANCH  22  23
HETATM   23  O2  UNL     1      33.317  10.565  89.255  1.00  0.00    -0.346 OA
ATOM     24  H2  UNL     1      34.053  11.125  89.472  1.00  0.00     0.219 HD
ENDBRANCH  22  23
BRANCH  22  25
HETATM   25  C13 UNL     1      31.085  11.201  88.959  1.00  0.00     0.074 A 
HETATM   26  C14 UNL     1      30.257  12.298  89.041  1.00  0.00     0.118 A 
HETATM   27  C15 UNL     1      29.185  12.441  88.136  1.00  0.00     0.135 A 
HETATM   28  C16 UNL     1      28.942  11.519  87.177  1.00  0.00     0.125 A 
HETATM   29  C17 UNL     1      29.751  10.424  87.079  1.00  0.00     0.092 A 
HETATM   30 CL1  UNL     1      29.414   9.250  85.830  1.00  0.00    -0.079 Cl
HETATM   31  C18 UNL     1      30.800  10.275  87.957  1.00  0.00     0.076 A 
HETATM   32 CL2  UNL     1      31.809   8.829  87.769  1.00  0.00    -0.081 Cl
BRANCH  26  33
HETATM   33  O3  UNL     1      30.424  13.233  89.938  1.00  0.00    -0.357 OA
ATOM     34  H3  UNL     1      30.863  14.052  89.742  1.00  0.00     0.217 HD
ENDBRANCH  26  33
BRANCH  27  35
HETATM   35  O4  UNL     1      28.375  13.568  88.260  1.00  0.00    -0.356 OA
ATOM     36  H4  UNL     1      28.602  14.335  87.747  1.00  0.00     0.218 HD
ENDBRANCH  27  35
BRANCH  28  37
HETATM   37  O5  UNL     1      27.855  11.704  86.292  1.00  0.00    -0.356 OA
ATOM     38  H5  UNL     1      27.522  10.964  85.799  1.00  0.00     0.218 HD
ENDBRANCH  28  37
ENDBRANCH  22  25
ENDBRANCH  20  22
ENDBRANCH   1  20
TORSDOF 12
ENDMDL
MODEL 2
REMARK VINA RESULT: -6.836038390      3.871      7.069
REMARK  12 active torsions:
REMARK  status: ('A' for Active; 'I' for Inactive)
REMARK    1  A    between atoms: C2_2  and  C3_3 
REMARK    2  A    between atoms: C3_3  and  C4_4 
REMARK    3  A    between atoms: C3_3  and  N3_20 
REMARK    4  A    between atoms: C4_4  and  O1_5 
REMARK    5  A    between atoms: O1_5  and  C5_6 
REMARK    6  A    between atoms: C5_6  and  C6_7 
REMARK    7  A    between atoms: N3_20  and  C12_22 
REMARK    8  A    between atoms: C12_22  and  O2_23 
REMARK    9  A    between atoms: C12_22  and  C13_25 
REMARK   10  A    between atoms: C14_26  and  O3_27 
REMARK   11  A    between atoms: C15_29  and  O4_30 
REMARK   12  A    between atoms: C16_32  and  O5_33 
ROOT
HETATM    1  C3  UNL     1      30.709  13.088  92.595  1.00  0.00     0.107 C 
ENDROOT
BRANCH   1   2
HETATM    2  C2  UNL     1      31.349  14.432  92.818  1.00  0.00     0.023 C 
HETATM    3  C1  UNL     1      32.622  14.262  93.613  1.00  0.00     0.007 C 
ENDBRANCH   1   2
BRANCH   1   4
HETATM    4  C4  UNL     1      31.641  11.988  92.183  1.00  0.00     0.193 C 
BRANCH   4   5
HETATM    5  O1  UNL     1      31.391  11.229  91.126  1.00  0.00    -0.384 OA
BRANCH   5   6
HETATM    6  C5  UNL     1      32.150  11.136  90.029  1.00  0.00     0.211 C 
BRANCH   6   7
HETATM    7  C6  UNL     1      31.276  10.774  88.851  1.00  0.00     0.029 A 
HETATM    8  C7  UNL     1      31.428   9.545  88.294  1.00  0.00     0.018 A 
HETATM    9  C8  UNL     1      32.394   8.530  88.737  1.00  0.00     0.069 C 
HETATM   10  N1  UNL     1      30.629   9.220  87.232  1.00  0.00    -0.344 N 
HETATM   11  C9  UNL     1      29.716  10.079  86.745  1.00  0.00     0.141 A 
ATOM     12  H1  UNL     1      30.729   8.302  86.799  1.00  0.00     0.167 HD
HETATM   13  N2  UNL     1      28.977   9.739  85.742  1.00  0.00    -0.383 N 
HETATM   14  C10 UNL     1      29.531  11.331  87.283  1.00  0.00     0.198 A 
ATOM     15  H22 UNL     1      29.113   8.810  85.343  1.00  0.00     0.157 HD
ATOM     16  H21 UNL     1      28.284  10.391  85.372  1.00  0.00     0.157 HD
HETATM   17  F1  UNL     1      28.617  12.193  86.796  1.00  0.00    -0.199 F 
HETATM   18  C11 UNL     1      30.357  11.655  88.370  1.00  0.00     0.169 A 
HETATM   19  F2  UNL     1      30.230  12.859  88.942  1.00  0.00    -0.202 F 
ENDBRANCH   6   7
ENDBRANCH   5   6
ENDBRANCH   4   5
ENDBRANCH   1   4
BRANCH   1  20
HETATM   20  N3  UNL     1      30.133  12.738  93.938  1.00  0.00    -0.363 N 
ATOM     21  H3  UNL     1      30.471  11.914  94.434  1.00  0.00     0.162 HD
BRANCH  20  22
HETATM   22  C12 UNL     1      29.139  13.535  94.514  1.00  0.00     0.151 C 
BRANCH  22  23
HETATM   23  O2  UNL     1      29.474  14.004  95.679  1.00  0.00    -0.346 OA
ATOM     24  H2  UNL     1      28.740  14.373  96.156  1.00  0.00     0.219 HD
ENDBRANCH  22  23
BRANCH  22  25
HETATM   25  C13 UNL     1      27.847  13.884  94.001  1.00  0.00     0.074 A 
HETATM   26  C14 UNL     1      27.467  15.141  93.590  1.00  0.00     0.118 A 
HETATM   27  C15 UNL     1      26.163  15.358  93.099  1.00  0.00     0.135 A 
HETATM   28  C16 UNL     1      25.262  14.353  93.019  1.00  0.00     0.125 A 
HETATM   29  C17 UNL     1      25.618  13.099  93.422  1.00  0.00     0.092 A 
HETATM   30 CL1  UNL     1      24.433  11.820  93.306  1.00  0.00    -0.079 Cl
HETATM   31  C18 UNL     1      26.887  12.876  93.903  1.00  0.00     0.076 A 
HETATM   32 CL2  UNL     1      27.281  11.221  94.406  1.00  0.00    -0.081 Cl
BRANCH  26  33
HETATM   33  O3  UNL     1      28.278  16.164  93.635  1.00  0.00    -0.357 OA
ATOM     34  H3  UNL     1      28.316  16.749  94.382  1.00  0.00     0.217 HD
ENDBRANCH  26  33
BRANCH  27  35
HETATM   35  O4  UNL     1      25.827  16.649  92.695  1.00  0.00    -0.356 OA
ATOM     36  H4  UNL     1      26.135  16.942  91.846  1.00  0.00     0.218 HD
ENDBRANCH  27  35
BRANCH  28  37
HETATM   37  O5  UNL     1      23.966  14.618  92.520  1.00  0.00    -0.356 OA
ATOM     38  H5  UNL     1      23.860  15.199  91.775  1.00  0.00     0.218 HD
ENDBRANCH  28  37
ENDBRANCH  22  25
ENDBRANCH  20  22
ENDBRANCH   1  20
TORSDOF 12
ENDMDL
MODEL 3
REMARK VINA RESULT: -6.674424302      1.470      1.946
REMARK  12 active torsions:
REMARK  status: ('A' for Active; 'I' for Inactive)
REMARK    1  A    between atoms: C2_2  and  C3_3 
REMARK    2  A    between atoms: C3_3  and  C4_4 
REMARK    3  A    between atoms: C3_3  and  N3_20 
REMARK    4  A    between atoms: C4_4  and  O1_5 
REMARK    5  A    between atoms: O1_5  and  C5_6 
REMARK    6  A    between atoms: C5_6  and  C6_7 
REMARK    7  A    between atoms: N3_20  and  C12_22 
REMARK    8  A    between atoms: C12_22  and  O2_23 
REMARK    9  A    between atoms: C12_22  and  C13_25 
REMARK   10  A    between atoms: C14_26  and  O3_27 
REMARK   11  A    between atoms: C15_29  and  O4_30 
REMARK   12  A    between atoms: C16_32  and  O5_33 
ROOT
HETATM    1  C3  UNL     1      31.325  10.237  92.173  1.00  0.00     0.107 C 
ENDROOT
BRANCH   1   2
HETATM    2  C2  UNL     1      32.119   9.013  92.546  1.00  0.00     0.023 C 
HETATM    3  C1  UNL     1      31.628   7.828  91.747  1.00  0.00     0.007 C 
ENDBRANCH   1   2
BRANCH   1   4
HETATM    4  C4  UNL     1      30.898  11.104  93.320  1.00  0.00     0.193 C 
BRANCH   4   5
HETATM    5  O1  UNL     1      29.729  11.729  93.317  1.00  0.00    -0.384 OA
BRANCH   5   6
HETATM    6  C5  UNL     1      29.032  12.094  94.398  1.00  0.00     0.211 C 
BRANCH   6   7
HETATM    7  C6  UNL     1      27.731  12.723  93.958  1.00  0.00     0.029 A 
HETATM    8  C7  UNL     1      26.602  11.972  94.019  1.00  0.00     0.018 A 
HETATM    9  C8  UNL     1      26.540  10.573  94.469  1.00  0.00     0.069 C 
HETATM   10  N1  UNL     1      25.426  12.549  93.625  1.00  0.00    -0.344 N 
HETATM   11  C9  UNL     1      25.373  13.821  93.191  1.00  0.00     0.141 A 
ATOM     12  H1  UNL     1      24.567  12.001  93.662  1.00  0.00     0.167 HD
HETATM   13  N2  UNL     1      24.246  14.336  92.829  1.00  0.00    -0.383 N 
HETATM   14  C10 UNL     1      26.494  14.614  93.117  1.00  0.00     0.198 A 
ATOM     15  H22 UNL     1      23.414  13.748  92.884  1.00  0.00     0.157 HD
ATOM     16  H21 UNL     1      24.206  15.301  92.499  1.00  0.00     0.157 HD
HETATM   17  F1  UNL     1      26.443  15.889  92.682  1.00  0.00    -0.199 F 
HETATM   18  C11 UNL     1      27.695  14.012  93.521  1.00  0.00     0.169 A 
HETATM   19  F2  UNL     1      28.826  14.728  93.473  1.00  0.00    -0.202 F 
ENDBRANCH   6   7
ENDBRANCH   5   6
ENDBRANCH   4   5
ENDBRANCH   1   4
BRANCH   1  20
HETATM   20  N3  UNL     1      32.270  11.027  91.312  1.00  0.00    -0.363 N 
ATOM     21  H3  UNL     1      32.959  11.640  91.748  1.00  0.00     0.162 HD
BRANCH  20  22
HETATM   22  C12 UNL     1      32.211  10.930  89.919  1.00  0.00     0.151 C 
BRANCH  22  23
HETATM   23  O2  UNL     1      33.335  10.549  89.388  1.00  0.00    -0.346 OA
ATOM     24  H2  UNL     1      33.368   9.616  89.217  1.00  0.00     0.219 HD
ENDBRANCH  22  23
BRANCH  22  25
HETATM   25  C13 UNL     1      31.112  11.188  89.037  1.00  0.00     0.074 A 
HETATM   26  C14 UNL     1      30.275  12.279  89.108  1.00  0.00     0.118 A 
HETATM   27  C15 UNL     1      29.226  12.424  88.176  1.00  0.00     0.135 A 
HETATM   28  C16 UNL     1      29.016  11.510  87.201  1.00  0.00     0.125 A 
HETATM   29  C17 UNL     1      29.834  10.422  87.114  1.00  0.00     0.092 A 
HETATM   30 CL1  UNL     1      29.539   9.259  85.844  1.00  0.00    -0.079 Cl
HETATM   31  C18 UNL     1      30.860  10.270  88.018  1.00  0.00     0.076 A 
HETATM   32 CL2  UNL     1      31.884   8.832  87.843  1.00  0.00    -0.081 Cl
BRANCH  26  33
HETATM   33  O3  UNL     1      30.411  13.205  90.018  1.00  0.00    -0.357 OA
ATOM     34  H3  UNL     1      31.022  13.925  89.923  1.00  0.00     0.217 HD
ENDBRANCH  26  33
BRANCH  27  35
HETATM   35  O4  UNL     1      28.406  13.545  88.289  1.00  0.00    -0.356 OA
ATOM     36  H4  UNL     1      27.524  13.484  87.942  1.00  0.00     0.218 HD
ENDBRANCH  27  35
BRANCH  28  37
HETATM   37  O5  UNL     1      27.952  11.698  86.288  1.00  0.00    -0.356 OA
ATOM     38  H5  UNL     1      27.251  12.301  86.504  1.00  0.00     0.218 HD
ENDBRANCH  28  37
ENDBRANCH  22  25
ENDBRANCH  20  22
ENDBRANCH   1  20
TORSDOF 12
ENDMDL
MODEL 4
REMARK VINA RESULT: -6.658674324      5.184      7.654
REMARK  12 active torsions:
REMARK  status: ('A' for Active; 'I' for Inactive)
REMARK    1  A    between atoms: C2_2  and  C3_3 
REMARK    2  A    between atoms: C3_3  and  C4_4 
REMARK    3  A    between atoms: C3_3  and  N3_20 
REMARK    4  A    between atoms: C4_4  and  O1_5 
REMARK    5  A    between atoms: O1_5  and  C5_6 
REMARK    6  A    between atoms: C5_6  and  C6_7 
REMARK    7  A    between atoms: N3_20  and  C12_22 
REMARK    8  A    between atoms: C12_22  and  O2_23 
REMARK    9  A    between atoms: C12_22  and  C13_25 
REMARK   10  A    between atoms: C14_26  and  O3_27 
REMARK   11  A    between atoms: C15_29  and  O4_30 
REMARK   12  A    between atoms: C16_32  and  O5_33 
ROOT
HETATM    1  C3  UNL     1      32.136   9.212  92.232  1.00  0.00     0.107 C 
ENDROOT
BRANCH   1   2
HETATM    2  C2  UNL     1      31.395   7.929  91.970  1.00  0.00     0.023 C 
HETATM    3  C1  UNL     1      30.330   7.733  93.023  1.00  0.00     0.007 C 
ENDBRANCH   1   2
BRANCH   1   4
HETATM    4  C4  UNL     1      31.397  10.469  91.882  1.00  0.00     0.193 C 
BRANCH   4   5
HETATM    5  O1  UNL     1      31.838  11.293  90.943  1.00  0.00    -0.384 OA
BRANCH   5   6
HETATM    6  C5  UNL     1      32.486  10.937  89.828  1.00  0.00     0.211 C 
BRANCH   6   7
HETATM    7  C6  UNL     1      31.477  10.627  88.747  1.00  0.00     0.029 A 
HETATM    8  C7  UNL     1      31.536   9.412  88.145  1.00  0.00     0.018 A 
HETATM    9  C8  UNL     1      32.520   8.363  88.450  1.00  0.00     0.069 C 
HETATM   10  N1  UNL     1      30.616   9.134  87.171  1.00  0.00    -0.344 N 
HETATM   11  C9  UNL     1      29.675  10.027  86.812  1.00  0.00     0.141 A 
ATOM     12  H1  UNL     1      30.644   8.227  86.706  1.00  0.00     0.167 HD
HETATM   13  N2  UNL     1      28.820   9.731  85.890  1.00  0.00    -0.383 N 
HETATM   14  C10 UNL     1      29.583  11.267  87.399  1.00  0.00     0.198 A 
ATOM     15  H22 UNL     1      28.889   8.811  85.454  1.00  0.00     0.157 HD
ATOM     16  H21 UNL     1      28.107  10.408  85.617  1.00  0.00     0.157 HD
HETATM   17  F1  UNL     1      28.641  12.162  87.040  1.00  0.00    -0.199 F 
HETATM   18  C11 UNL     1      30.532  11.541  88.395  1.00  0.00     0.169 A 
HETATM   19  F2  UNL     1      30.499  12.732  89.008  1.00  0.00    -0.202 F 
ENDBRANCH   6   7
ENDBRANCH   5   6
ENDBRANCH   4   5
ENDBRANCH   1   4
BRANCH   1  20
HETATM   20  N3  UNL     1      32.362   9.198  93.718  1.00  0.00    -0.363 N 
ATOM     21  H3  UNL     1      31.568   9.092  94.349  1.00  0.00     0.162 HD
BRANCH  20  22
HETATM   22  C12 UNL     1      33.652   9.328  94.241  1.00  0.00     0.151 C 
BRANCH  22  23
HETATM   23  O2  UNL     1      33.812   8.693  95.364  1.00  0.00    -0.346 OA
ATOM     24  H2  UNL     1      34.688   8.782  95.719  1.00  0.00     0.219 HD
ENDBRANCH  22  23
BRANCH  22  25
HETATM   25  C13 UNL     1      34.775  10.047  93.716  1.00  0.00     0.074 A 
HETATM   26  C14 UNL     1      35.722   9.529  92.862  1.00  0.00     0.118 A 
HETATM   27  C15 UNL     1      36.782  10.342  92.410  1.00  0.00     0.135 A 
HETATM   28  C16 UNL     1      36.898  11.632  92.796  1.00  0.00     0.125 A 
HETATM   29  C17 UNL     1      35.970  12.165  93.643  1.00  0.00     0.092 A 
HETATM   30 CL1  UNL     1      36.145  13.835  94.125  1.00  0.00    -0.079 Cl
HETATM   31  C18 UNL     1      34.932  11.381  94.090  1.00  0.00     0.076 A 
HETATM   32 CL2  UNL     1      33.762  12.140  95.187  1.00  0.00    -0.081 Cl
BRANCH  26  33
HETATM   33  O3  UNL     1      35.682   8.293  92.442  1.00  0.00    -0.357 OA
ATOM     34  H3  UNL     1      36.450   7.736  92.429  1.00  0.00     0.217 HD
ENDBRANCH  26  33
BRANCH  27  35
HETATM   35  O4  UNL     1      37.716   9.771  91.546  1.00  0.00    -0.356 OA
ATOM     36  H4  UNL     1      38.037  10.303  90.828  1.00  0.00     0.218 HD
ENDBRANCH  27  35
BRANCH  28  37
HETATM   37  O5  UNL     1      37.978  12.409  92.317  1.00  0.00    -0.356 OA
ATOM     38  H5  UNL     1      37.803  13.211  91.840  1.00  0.00     0.218 HD
ENDBRANCH  28  37
ENDBRANCH  22  25
ENDBRANCH  20  22
ENDBRANCH   1  20
TORSDOF 12
ENDMDL
MODEL 5
REMARK VINA RESULT: -6.625053225      4.156      6.303
REMARK  12 active torsions:
REMARK  status: ('A' for Active; 'I' for Inactive)
REMARK    1  A    between atoms: C2_2  and  C3_3 
REMARK    2  A    between atoms: C3_3  and  C4_4 
REMARK    3  A    between atoms: C3_3  and  N3_20 
REMARK    4  A    between atoms: C4_4  and  O1_5 
REMARK    5  A    between atoms: O1_5  and  C5_6 
REMARK    6  A    between atoms: C5_6  and  C6_7 
REMARK    7  A    between atoms: N3_20  and  C12_22 
REMARK    8  A    between atoms: C12_22  and  O2_23 
REMARK    9  A    between atoms: C12_22  and  C13_25 
REMARK   10  A    between atoms: C14_26  and  O3_27 
REMARK   11  A    between atoms: C15_29  and  O4_30 
REMARK   12  A    between atoms: C16_32  and  O5_33 
ROOT
HETATM    1  C3  UNL     1      32.536   9.527  91.708  1.00  0.00     0.107 C 
ENDROOT
BRANCH   1   2
HETATM    2  C2  UNL     1      33.939   9.629  92.246  1.00  0.00     0.023 C 
HETATM    3  C1  UNL     1      34.141  10.984  92.882  1.00  0.00     0.007 C 
ENDBRANCH   1   2
BRANCH   1   4
HETATM    4  C4  UNL     1      31.458   9.372  92.739  1.00  0.00     0.193 C 
BRANCH   4   5
HETATM    5  O1  UNL     1      30.558   8.403  92.657  1.00  0.00    -0.384 OA
BRANCH   5   6
HETATM    6  C5  UNL     1      30.692   7.164  93.142  1.00  0.00     0.211 C 
BRANCH   6   7
HETATM    7  C6  UNL     1      30.201   6.173  92.113  1.00  0.00     0.029 A 
HETATM    8  C7  UNL     1      31.123   5.504  91.376  1.00  0.00     0.018 A 
HETATM    9  C8  UNL     1      32.580   5.673  91.487  1.00  0.00     0.069 C 
HETATM   10  N1  UNL     1      30.673   4.603  90.450  1.00  0.00    -0.344 N 
HETATM   11  C9  UNL     1      29.360   4.377  90.264  1.00  0.00     0.141 A 
ATOM     12  H1  UNL     1      31.350   4.090  89.885  1.00  0.00     0.167 HD
HETATM   13  N2  UNL     1      28.969   3.518  89.383  1.00  0.00    -0.383 N 
HETATM   14  C10 UNL     1      28.396   5.034  90.992  1.00  0.00     0.198 A 
ATOM     15  H22 UNL     1      29.684   3.030  88.843  1.00  0.00     0.157 HD
ATOM     16  H21 UNL     1      27.973   3.347  89.242  1.00  0.00     0.157 HD
HETATM   17  F1  UNL     1      27.079   4.808  90.807  1.00  0.00    -0.199 F 
HETATM   18  C11 UNL     1      28.869   5.956  91.938  1.00  0.00     0.169 A 
HETATM   19  F2  UNL     1      27.983   6.632  92.680  1.00  0.00    -0.202 F 
ENDBRANCH   6   7
ENDBRANCH   5   6
ENDBRANCH   4   5
ENDBRANCH   1   4
BRANCH   1  20
HETATM   20  N3  UNL     1      32.328  10.838  91.003  1.00  0.00    -0.363 N 
ATOM     21  H3  UNL     1      32.281  11.701  91.544  1.00  0.00     0.162 HD
BRANCH  20  22
HETATM   22  C12 UNL     1      32.197  10.882  89.612  1.00  0.00     0.151 C 
BRANCH  22  23
HETATM   23  O2  UNL     1      33.310  10.631  88.988  1.00  0.00    -0.346 OA
ATOM     24  H2  UNL     1      33.472  11.223  88.264  1.00  0.00     0.219 HD
ENDBRANCH  22  23
BRANCH  22  25
HETATM   25  C13 UNL     1      31.037  11.160  88.818  1.00  0.00     0.074 A 
HETATM   26  C14 UNL     1      30.220  12.259  88.962  1.00  0.00     0.118 A 
HETATM   27  C15 UNL     1      29.106  12.423  88.113  1.00  0.00     0.135 A 
HETATM   28  C16 UNL     1      28.813  11.522  87.148  1.00  0.00     0.125 A 
HETATM   29  C17 UNL     1      29.610  10.426  86.990  1.00  0.00     0.092 A 
HETATM   30 CL1  UNL     1      29.207   9.279  85.735  1.00  0.00    -0.079 Cl
HETATM   31  C18 UNL     1      30.699  10.255  87.812  1.00  0.00     0.076 A 
HETATM   32 CL2  UNL     1      31.691   8.809  87.547  1.00  0.00    -0.081 Cl
BRANCH  26  33
HETATM   33  O3  UNL     1      30.434  13.174  89.868  1.00  0.00    -0.357 OA
ATOM     34  H3  UNL     1      31.114  13.830  89.775  1.00  0.00     0.217 HD
ENDBRANCH  26  33
BRANCH  27  35
HETATM   35  O4  UNL     1      28.309  13.551  88.298  1.00  0.00    -0.356 OA
ATOM     36  H4  UNL     1      27.372  13.456  88.176  1.00  0.00     0.218 HD
ENDBRANCH  27  35
BRANCH  28  37
HETATM   37  O5  UNL     1      27.685  11.729  86.321  1.00  0.00    -0.356 OA
ATOM     38  H5  UNL     1      27.439  11.064  85.689  1.00  0.00     0.218 HD
ENDBRANCH  28  37
ENDBRANCH  22  25
ENDBRANCH  20  22
ENDBRANCH   1  20
TORSDOF 12
ENDMDL
