MODEL 1
REMARK VINA RESULT: -6.387553076      0.000      0.000
REMARK  11 active torsions:
REMARK  status: ('A' for Active; 'I' for Inactive)
REMARK    1  A    between atoms: N1_1  and  C1_4 
REMARK    2  A    between atoms: C2_7  and  C3_8 
REMARK    3  A    between atoms: C3_8  and  C4_9 
REMARK    4  A    between atoms: C4_9  and  N3_10 
REMARK    5  A    between atoms: C6_12  and  N4_13 
REMARK    6  A    between atoms: N4_13  and  C7_15 
REMARK    7  A    between atoms: C7_15  and  C8_16 
REMARK    8  A    between atoms: C8_16  and  O1_17 
REMARK    9  A    between atoms: C8_16  and  C9_19 
REMARK   10  A    between atoms: C12_23  and  O2_24 
REMARK   11  A    between atoms: C17_34  and  N6_35 
ROOT
HETATM    1  N3  UNL     1      32.677   8.193  90.995  1.00  0.00    -0.301 N 
HETATM    2  C5  UNL     1      34.041   8.083  91.035  1.00  0.00     0.140 A 
HETATM    3  C6  UNL     1      34.523   8.492  92.266  1.00  0.00     0.062 A 
HETATM    4  C15 UNL     1      33.403   8.851  92.974  1.00  0.00     0.138 A 
HETATM    5  N5  UNL     1      32.345   8.654  92.178  1.00  0.00    -0.308 N 
ATOM      6  H5  UNL     1      31.384   8.842  92.461  1.00  0.00     0.186 HD
ENDROOT
BRANCH   1   7
HETATM    7  C4  UNL     1      31.840   7.923  89.862  1.00  0.00     0.154 C 
BRANCH   7   8
HETATM    8  C3  UNL     1      32.161   8.577  88.576  1.00  0.00     0.081 C 
BRANCH   8   9
HETATM    9  C2  UNL     1      31.201   9.545  88.044  1.00  0.00     0.053 A 
HETATM   10  N2  UNL     1      30.327   9.257  87.094  1.00  0.00    -0.194 N 
HETATM   11  C1  UNL     1      29.413  10.143  86.616  1.00  0.00     0.677 A 
ATOM     12  H2  UNL     1      30.339   8.318  86.697  1.00  0.00     0.184 HD
HETATM   13  N7  UNL     1      29.379  11.401  87.131  1.00  0.00    -0.176 N 
HETATM   14  C17 UNL     1      30.232  11.780  88.099  1.00  0.00     0.138 A 
ATOM     15  H7  UNL     1      28.695  12.069  86.776  1.00  0.00     0.186 HD
HETATM   16  C16 UNL     1      31.144  10.854  88.558  1.00  0.00     0.101 A 
HETATM   17 CL3  UNL     1      32.271  11.281  89.812  1.00  0.00    -0.078 Cl
BRANCH  11  18
HETATM   18  N1  UNL     1      28.607   9.778  85.674  1.00  0.00    -0.234 N 
ATOM     19  H12 UNL     1      28.729   8.893  85.182  1.00  0.00     0.174 HD
ATOM     20  H11 UNL     1      27.823  10.381  85.424  1.00  0.00     0.174 HD
ENDBRANCH  11  18
BRANCH  14  21
HETATM   21  N6  UNL     1      30.152  12.981  88.553  1.00  0.00    -0.384 N 
ATOM     22  H62 UNL     1      31.008  13.527  88.641  1.00  0.00     0.157 HD
ATOM     23  H61 UNL     1      29.273  13.420  88.828  1.00  0.00     0.157 HD
ENDBRANCH  14  21
ENDBRANCH   8   9
ENDBRANCH   7   8
ENDBRANCH   1   7
BRANCH   3  24
HETATM   24  N4  UNL     1      35.868   8.500  92.671  1.00  0.00    -0.385 N 
ATOM     25  H4  UNL     1      36.494   7.819  92.242  1.00  0.00     0.159 HD
BRANCH  24  26
HETATM   26  C7  UNL     1      36.427   9.392  93.641  1.00  0.00     0.156 C 
BRANCH  26  27
HETATM   27  C8  UNL     1      37.531  10.191  93.004  1.00  0.00     0.169 C 
BRANCH  27  28
HETATM   28  O1  UNL     1      37.677   9.793  91.688  1.00  0.00    -0.389 OA
ATOM     29  H1  UNL     1      37.795   8.851  91.658  1.00  0.00     0.210 HD
ENDBRANCH  27  28
BRANCH  27  30
HETATM   30  C9  UNL     1      37.290  11.656  93.124  1.00  0.00    -0.025 A 
HETATM   31  C10 UNL     1      36.066  12.160  93.499  1.00  0.00     0.036 A 
HETATM   32  C11 UNL     1      35.854  13.545  93.588  1.00  0.00     0.069 A 
HETATM   33 CL1  UNL     1      34.303  14.185  94.074  1.00  0.00    -0.081 Cl
HETATM   34  C12 UNL     1      36.866  14.428  93.304  1.00  0.00     0.109 A 
HETATM   35  C13 UNL     1      38.089  13.927  92.930  1.00  0.00     0.069 A 
HETATM   36 CL2  UNL     1      39.350  15.080  92.571  1.00  0.00    -0.081 Cl
HETATM   37  C14 UNL     1      38.297  12.558  92.842  1.00  0.00     0.036 A 
BRANCH  34  38
HETATM   38  O2  UNL     1      36.668  15.828  93.388  1.00  0.00    -0.357 OA
ATOM     39  H2  UNL     1      37.354  16.440  93.146  1.00  0.00     0.217 HD
ENDBRANCH  34  38
ENDBRANCH  27  30
ENDBRANCH  26  27
ENDBRANCH  24  26
ENDBRANCH   3  24
TORSDOF 11
ENDMDL
MODEL 2
REMARK VINA RESULT: -6.379575436      0.138      1.658
REMARK  11 active torsions:
REMARK  status: ('A' for Active; 'I' for Inactive)
REMARK    1  A    between atoms: N1_1  and  C1_4 
REMARK    2  A    between atoms: C2_7  and  C3_8 
REMARK    3  A    between atoms: C3_8  and  C4_9 
REMARK    4  A    between atoms: C4_9  and  N3_10 
REMARK    5  A    between atoms: C6_12  and  N4_13 
REMARK    6  A    between atoms: N4_13  and  C7_15 
REMARK    7  A    between atoms: C7_15  and  C8_16 
REMARK    8  A    between atoms: C8_16  and  O1_17 
REMARK    9  A    between atoms: C8_16  and  C9_19 
REMARK   10  A    between atoms: C12_23  and  O2_24 
REMARK   11  A    between atoms: C17_34  and  N6_35 
ROOT
HETATM    1  N3  UNL     1      32.689   8.153  90.966  1.00  0.00    -0.301 N 
HETATM    2  C5  UNL     1      34.055   8.076  90.995  1.00  0.00     0.140 A 
HETATM    3  C6  UNL     1      34.535   8.480  92.229  1.00  0.00     0.062 A 
HETATM    4  C15 UNL     1      33.412   8.803  92.948  1.00  0.00     0.138 A 
HETATM    5  N5  UNL     1      32.354   8.590  92.157  1.00  0.00    -0.308 N 
ATOM      6  H5  UNL     1      31.390   8.750  92.448  1.00  0.00     0.186 HD
ENDROOT
BRANCH   1   7
HETATM    7  C4  UNL     1      31.851   7.876  89.834  1.00  0.00     0.154 C 
BRANCH   7   8
HETATM    8  C3  UNL     1      32.162   8.535  88.549  1.00  0.00     0.081 C 
BRANCH   8   9
HETATM    9  C2  UNL     1      31.204   9.516  88.036  1.00  0.00     0.053 A 
HETATM   10  N2  UNL     1      30.319   9.243  87.092  1.00  0.00    -0.194 N 
HETATM   11  C1  UNL     1      29.407  10.141  86.631  1.00  0.00     0.677 A 
ATOM     12  H2  UNL     1      30.320   8.308  86.686  1.00  0.00     0.184 HD
HETATM   13  N7  UNL     1      29.389  11.394  87.157  1.00  0.00    -0.176 N 
HETATM   14  C17 UNL     1      30.254  11.758  88.120  1.00  0.00     0.138 A 
ATOM     15  H7  UNL     1      28.706  12.071  86.815  1.00  0.00     0.186 HD
HETATM   16  C16 UNL     1      31.163  10.820  88.562  1.00  0.00     0.101 A 
HETATM   17 CL3  UNL     1      32.305  11.227  89.808  1.00  0.00    -0.078 Cl
BRANCH  11  18
HETATM   18  N1  UNL     1      28.589   9.791  85.694  1.00  0.00    -0.234 N 
ATOM     19  H12 UNL     1      27.594   9.665  85.876  1.00  0.00     0.174 HD
ATOM     20  H11 UNL     1      28.943   9.647  84.748  1.00  0.00     0.174 HD
ENDBRANCH  11  18
BRANCH  14  21
HETATM   21  N6  UNL     1      30.188  12.955  88.586  1.00  0.00    -0.384 N 
ATOM     22  H62 UNL     1      31.057  13.440  88.808  1.00  0.00     0.157 HD
ATOM     23  H61 UNL     1      29.309  13.449  88.743  1.00  0.00     0.157 HD
ENDBRANCH  14  21
ENDBRANCH   8   9
ENDBRANCH   7   8
ENDBRANCH   1   7
BRANCH   3  24
HETATM   24  N4  UNL     1      35.883   8.517  92.625  1.00  0.00    -0.385 N 
ATOM     25  H4  UNL     1      36.527   7.871  92.168  1.00  0.00     0.159 HD
BRANCH  24  26
HETATM   26  C7  UNL     1      36.421   9.392  93.622  1.00  0.00     0.156 C 
BRANCH  26  27
HETATM   27  C8  UNL     1      37.511  10.230  93.011  1.00  0.00     0.169 C 
BRANCH  27  28
HETATM   28  O1  UNL     1      37.695   9.846  91.695  1.00  0.00    -0.389 OA
ATOM     29  H1  UNL     1      36.928  10.089  91.189  1.00  0.00     0.210 HD
ENDBRANCH  27  28
BRANCH  27  30
HETATM   30  C9  UNL     1      37.222  11.685  93.137  1.00  0.00    -0.025 A 
HETATM   31  C10 UNL     1      38.187  12.638  92.905  1.00  0.00     0.036 A 
HETATM   32  C11 UNL     1      37.899  14.005  93.048  1.00  0.00     0.069 A 
HETATM   33 CL1  UNL     1      39.121  15.215  92.744  1.00  0.00    -0.081 Cl
HETATM   34  C12 UNL     1      36.646  14.421  93.423  1.00  0.00     0.109 A 
HETATM   35  C13 UNL     1      35.681  13.471  93.655  1.00  0.00     0.069 A 
HETATM   36 CL2  UNL     1      34.101  14.037  94.134  1.00  0.00    -0.081 Cl
HETATM   37  C14 UNL     1      35.967  12.121  93.513  1.00  0.00     0.036 A 
BRANCH  34  38
HETATM   38  O2  UNL     1      36.340  15.796  93.572  1.00  0.00    -0.357 OA
ATOM     39  H2  UNL     1      35.451  16.089  93.739  1.00  0.00     0.217 HD
ENDBRANCH  34  38
ENDBRANCH  27  30
ENDBRANCH  26  27
ENDBRANCH  24  26
ENDBRANCH   3  24
TORSDOF 11
ENDMDL
MODEL 3
REMARK VINA RESULT: -6.263335974      4.932      9.623
REMARK  11 active torsions:
REMARK  status: ('A' for Active; 'I' for Inactive)
REMARK    1  A    between atoms: N1_1  and  C1_4 
REMARK    2  A    between atoms: C2_7  and  C3_8 
REMARK    3  A    between atoms: C3_8  and  C4_9 
REMARK    4  A    between atoms: C4_9  and  N3_10 
REMARK    5  A    between atoms: C6_12  and  N4_13 
REMARK    6  A    between atoms: N4_13  and  C7_15 
REMARK    7  A    between atoms: C7_15  and  C8_16 
REMARK    8  A    between atoms: C8_16  and  O1_17 
REMARK    9  A    between atoms: C8_16  and  C9_19 
REMARK   10  A    between atoms: C12_23  and  O2_24 
REMARK   11  A    between atoms: C17_34  and  N6_35 
ROOT
HETATM    1  N3  UNL     1      39.624  12.659  94.194  1.00  0.00    -0.301 N 
HETATM    2  C5  UNL     1      38.660  12.807  93.233  1.00  0.00     0.140 A 
HETATM    3  C6  UNL     1      37.811  11.714  93.228  1.00  0.00     0.062 A 
HETATM    4  C15 UNL     1      38.293  10.898  94.220  1.00  0.00     0.138 A 
HETATM    5  N5  UNL     1      39.358  11.503  94.756  1.00  0.00    -0.308 N 
ATOM      6  H5  UNL     1      39.906  11.109  95.521  1.00  0.00     0.186 HD
ENDROOT
BRANCH   1   7
HETATM    7  C4  UNL     1      40.712  13.560  94.446  1.00  0.00     0.154 C 
BRANCH   7   8
HETATM    8  C3  UNL     1      41.946  13.416  93.646  1.00  0.00     0.081 C 
BRANCH   8   9
HETATM    9  C2  UNL     1      42.015  14.122  92.366  1.00  0.00     0.053 A 
HETATM   10  N2  UNL     1      41.215  15.125  92.044  1.00  0.00    -0.194 N 
HETATM   11  C1  UNL     1      41.293  15.804  90.868  1.00  0.00     0.677 A 
ATOM     12  H2  UNL     1      40.500  15.405  92.714  1.00  0.00     0.184 HD
HETATM   13  N7  UNL     1      42.239  15.447  89.960  1.00  0.00    -0.176 N 
HETATM   14  C17 UNL     1      43.094  14.438  90.205  1.00  0.00     0.138 A 
ATOM     15  H7  UNL     1      42.302  15.953  89.077  1.00  0.00     0.186 HD
HETATM   16  C16 UNL     1      42.984  13.773  91.407  1.00  0.00     0.101 A 
HETATM   17 CL3  UNL     1      44.062  12.463  91.785  1.00  0.00    -0.078 Cl
BRANCH  11  18
HETATM   18  N1  UNL     1      40.459  16.762  90.632  1.00  0.00    -0.234 N 
ATOM     19  H12 UNL     1      39.776  16.699  89.877  1.00  0.00     0.174 HD
ATOM     20  H11 UNL     1      40.473  17.595  91.220  1.00  0.00     0.174 HD
ENDBRANCH  11  18
BRANCH  14  21
HETATM   21  N6  UNL     1      43.973  14.146  89.312  1.00  0.00    -0.384 N 
ATOM     22  H62 UNL     1      43.906  13.247  88.837  1.00  0.00     0.157 HD
ATOM     23  H61 UNL     1      44.735  14.772  89.049  1.00  0.00     0.157 HD
ENDBRANCH  14  21
ENDBRANCH   8   9
ENDBRANCH   7   8
ENDBRANCH   1   7
BRANCH   3  24
HETATM   24  N4  UNL     1      36.700  11.528  92.389  1.00  0.00    -0.385 N 
ATOM     25  H4  UNL     1      36.157  12.355  92.135  1.00  0.00     0.159 HD
BRANCH  24  26
HETATM   26  C7  UNL     1      36.270  10.269  91.863  1.00  0.00     0.156 C 
BRANCH  26  27
HETATM   27  C8  UNL     1      34.835  10.032  92.249  1.00  0.00     0.169 C 
BRANCH  27  28
HETATM   28  O1  UNL     1      34.372  11.121  92.964  1.00  0.00    -0.389 OA
ATOM     29  H1  UNL     1      34.536  11.914  92.466  1.00  0.00     0.210 HD
ENDBRANCH  27  28
BRANCH  27  30
HETATM   30  C9  UNL     1      33.987   9.739  91.060  1.00  0.00    -0.025 A 
HETATM   31  C10 UNL     1      33.088  10.656  90.568  1.00  0.00     0.036 A 
HETATM   32  C11 UNL     1      32.284  10.353  89.457  1.00  0.00     0.069 A 
HETATM   33 CL1  UNL     1      31.149  11.521  88.827  1.00  0.00    -0.081 Cl
HETATM   34  C12 UNL     1      32.379   9.132  88.836  1.00  0.00     0.109 A 
HETATM   35  C13 UNL     1      33.277   8.215  89.326  1.00  0.00     0.069 A 
HETATM   36 CL2  UNL     1      33.367   6.673  88.514  1.00  0.00    -0.081 Cl
HETATM   37  C14 UNL     1      34.070   8.517  90.424  1.00  0.00     0.036 A 
BRANCH  34  38
HETATM   38  O2  UNL     1      31.575   8.811  87.716  1.00  0.00    -0.357 OA
ATOM     39  H2  UNL     1      30.654   9.047  87.685  1.00  0.00     0.217 HD
ENDBRANCH  34  38
ENDBRANCH  27  30
ENDBRANCH  26  27
ENDBRANCH  24  26
ENDBRANCH   3  24
TORSDOF 11
ENDMDL
MODEL 4
REMARK VINA RESULT: -6.252698658      4.947      9.669
REMARK  11 active torsions:
REMARK  status: ('A' for Active; 'I' for Inactive)
REMARK    1  A    between atoms: N1_1  and  C1_4 
REMARK    2  A    between atoms: C2_7  and  C3_8 
REMARK    3  A    between atoms: C3_8  and  C4_9 
REMARK    4  A    between atoms: C4_9  and  N3_10 
REMARK    5  A    between atoms: C6_12  and  N4_13 
REMARK    6  A    between atoms: N4_13  and  C7_15 
REMARK    7  A    between atoms: C7_15  and  C8_16 
REMARK    8  A    between atoms: C8_16  and  O1_17 
REMARK    9  A    between atoms: C8_16  and  C9_19 
REMARK   10  A    between atoms: C12_23  and  O2_24 
REMARK   11  A    between atoms: C17_34  and  N6_35 
ROOT
HETATM    1  N3  UNL     1      39.682  12.677  94.211  1.00  0.00    -0.301 N 
HETATM    2  C5  UNL     1      38.714  12.843  93.257  1.00  0.00     0.140 A 
HETATM    3  C6  UNL     1      37.849  11.763  93.254  1.00  0.00     0.062 A 
HETATM    4  C15 UNL     1      38.325  10.936  94.240  1.00  0.00     0.138 A 
HETATM    5  N5  UNL     1      39.403  11.524  94.771  1.00  0.00    -0.308 N 
ATOM      6  H5  UNL     1      39.950  11.119  95.531  1.00  0.00     0.186 HD
ENDROOT
BRANCH   1   7
HETATM    7  C4  UNL     1      40.785  13.561  94.459  1.00  0.00     0.154 C 
BRANCH   7   8
HETATM    8  C3  UNL     1      42.006  13.412  93.641  1.00  0.00     0.081 C 
BRANCH   8   9
HETATM    9  C2  UNL     1      42.055  14.110  92.356  1.00  0.00     0.053 A 
HETATM   10  N2  UNL     1      41.245  15.107  92.037  1.00  0.00    -0.194 N 
HETATM   11  C1  UNL     1      41.305  15.779  90.857  1.00  0.00     0.677 A 
ATOM     12  H2  UNL     1      40.537  15.386  92.715  1.00  0.00     0.184 HD
HETATM   13  N7  UNL     1      42.241  15.422  89.939  1.00  0.00    -0.176 N 
HETATM   14  C17 UNL     1      43.105  14.419  90.179  1.00  0.00     0.138 A 
ATOM     15  H7  UNL     1      42.291  15.924  89.052  1.00  0.00     0.186 HD
HETATM   16  C16 UNL     1      43.014  13.762  91.387  1.00  0.00     0.101 A 
HETATM   17 CL3  UNL     1      44.104  12.459  91.759  1.00  0.00    -0.078 Cl
BRANCH  11  18
HETATM   18  N1  UNL     1      40.462  16.731  90.625  1.00  0.00    -0.234 N 
ATOM     19  H12 UNL     1      39.472  16.631  90.848  1.00  0.00     0.174 HD
ATOM     20  H11 UNL     1      40.794  17.607  90.222  1.00  0.00     0.174 HD
ENDBRANCH  11  18
BRANCH  14  21
HETATM   21  N6  UNL     1      43.975  14.128  89.277  1.00  0.00    -0.384 N 
ATOM     22  H62 UNL     1      43.712  13.476  88.539  1.00  0.00     0.157 HD
ATOM     23  H61 UNL     1      44.917  14.519  89.258  1.00  0.00     0.157 HD
ENDBRANCH  14  21
ENDBRANCH   8   9
ENDBRANCH   7   8
ENDBRANCH   1   7
BRANCH   3  24
HETATM   24  N4  UNL     1      36.729  11.597  92.421  1.00  0.00    -0.385 N 
ATOM     25  H4  UNL     1      36.208  12.434  92.159  1.00  0.00     0.159 HD
BRANCH  24  26
HETATM   26  C7  UNL     1      36.263  10.343  91.914  1.00  0.00     0.156 C 
BRANCH  26  27
HETATM   27  C8  UNL     1      34.820  10.157  92.298  1.00  0.00     0.169 C 
BRANCH  27  28
HETATM   28  O1  UNL     1      34.360  11.309  92.908  1.00  0.00    -0.389 OA
ATOM     29  H1  UNL     1      34.054  11.099  93.783  1.00  0.00     0.210 HD
ENDBRANCH  27  28
BRANCH  27  30
HETATM   30  C9  UNL     1      33.985   9.769  91.127  1.00  0.00    -0.025 A 
HETATM   31  C10 UNL     1      34.090   8.529  90.542  1.00  0.00     0.036 A 
HETATM   32  C11 UNL     1      33.307   8.190  89.427  1.00  0.00     0.069 A 
HETATM   33 CL1  UNL     1      33.432   6.611  88.691  1.00  0.00    -0.081 Cl
HETATM   34  C12 UNL     1      32.418   9.090  88.896  1.00  0.00     0.109 A 
HETATM   35  C13 UNL     1      32.312  10.330  89.478  1.00  0.00     0.069 A 
HETATM   36 CL2  UNL     1      31.175  11.450  88.772  1.00  0.00    -0.081 Cl
HETATM   37  C14 UNL     1      33.086  10.663  90.580  1.00  0.00     0.036 A 
BRANCH  34  38
HETATM   38  O2  UNL     1      31.622   8.764  87.770  1.00  0.00    -0.357 OA
ATOM     39  H2  UNL     1      31.105   9.424  87.323  1.00  0.00     0.217 HD
ENDBRANCH  34  38
ENDBRANCH  27  30
ENDBRANCH  26  27
ENDBRANCH  24  26
ENDBRANCH   3  24
TORSDOF 11
ENDMDL
MODEL 5
REMARK VINA RESULT: -6.138585499      5.711      8.687
REMARK  11 active torsions:
REMARK  status: ('A' for Active; 'I' for Inactive)
REMARK    1  A    between atoms: N1_1  and  C1_4 
REMARK    2  A    between atoms: C2_7  and  C3_8 
REMARK    3  A    between atoms: C3_8  and  C4_9 
REMARK    4  A    between atoms: C4_9  and  N3_10 
REMARK    5  A    between atoms: C6_12  and  N4_13 
REMARK    6  A    between atoms: N4_13  and  C7_15 
REMARK    7  A    between atoms: C7_15  and  C8_16 
REMARK    8  A    between atoms: C8_16  and  O1_17 
REMARK    9  A    between atoms: C8_16  and  C9_19 
REMARK   10  A    between atoms: C12_23  and  O2_24 
REMARK   11  A    between atoms: C17_34  and  N6_35 
ROOT
HETATM    1  N3  UNL     1      32.159   6.414  90.074  1.00  0.00    -0.301 N 
HETATM    2  C5  UNL     1      31.137   5.855  90.793  1.00  0.00     0.140 A 
HETATM    3  C6  UNL     1      31.120   4.483  90.620  1.00  0.00     0.062 A 
HETATM    4  C15 UNL     1      32.169   4.227  89.774  1.00  0.00     0.138 A 
HETATM    5  N5  UNL     1      32.747   5.399  89.486  1.00  0.00    -0.308 N 
ATOM      6  H5  UNL     1      33.557   5.494  88.874  1.00  0.00     0.186 HD
ENDROOT
BRANCH   1   7
HETATM    7  C4  UNL     1      32.445   7.816  89.959  1.00  0.00     0.154 C 
BRANCH   7   8
HETATM    8  C3  UNL     1      32.593   8.396  88.608  1.00  0.00     0.081 C 
BRANCH   8   9
HETATM    9  C2  UNL     1      31.577   9.348  88.159  1.00  0.00     0.053 A 
HETATM   10  N2  UNL     1      30.688   9.074  87.218  1.00  0.00    -0.194 N 
HETATM   11  C1  UNL     1      29.722   9.943  86.817  1.00  0.00     0.677 A 
ATOM     12  H2  UNL     1      30.729   8.160  86.769  1.00  0.00     0.184 HD
HETATM   13  N7  UNL     1      29.649  11.168  87.403  1.00  0.00    -0.176 N 
HETATM   14  C17 UNL     1      30.514  11.531  88.367  1.00  0.00     0.138 A 
ATOM     15  H7  UNL     1      28.927  11.823  87.106  1.00  0.00     0.186 HD
HETATM   16  C16 UNL     1      31.479  10.622  88.748  1.00  0.00     0.101 A 
HETATM   17 CL3  UNL     1      32.622  11.030  89.992  1.00  0.00    -0.078 Cl
BRANCH  11  18
HETATM   18  N1  UNL     1      28.905   9.595  85.878  1.00  0.00    -0.234 N 
ATOM     19  H12 UNL     1      28.122   8.969  86.061  1.00  0.00     0.174 HD
ATOM     20  H11 UNL     1      29.038   9.963  84.936  1.00  0.00     0.174 HD
ENDBRANCH  11  18
BRANCH  14  21
HETATM   21  N6  UNL     1      30.395  12.700  88.891  1.00  0.00    -0.384 N 
ATOM     22  H62 UNL     1      30.993  13.450  88.548  1.00  0.00     0.157 HD
ATOM     23  H61 UNL     1      29.728  12.918  89.631  1.00  0.00     0.157 HD
ENDBRANCH  14  21
ENDBRANCH   8   9
ENDBRANCH   7   8
ENDBRANCH   1   7
BRANCH   3  24
HETATM   24  N4  UNL     1      30.222   3.581  91.216  1.00  0.00    -0.385 N 
ATOM     25  H4  UNL     1      30.365   2.586  91.040  1.00  0.00     0.159 HD
BRANCH  24  26
HETATM   26  C7  UNL     1      29.121   3.952  92.052  1.00  0.00     0.156 C 
BRANCH  26  27
HETATM   27  C8  UNL     1      27.941   4.310  91.190  1.00  0.00     0.169 C 
BRANCH  27  28
HETATM   28  O1  UNL     1      27.275   3.154  90.828  1.00  0.00    -0.389 OA
ATOM     29  H1  UNL     1      27.142   3.152  89.887  1.00  0.00     0.210 HD
ENDBRANCH  27  28
BRANCH  27  30
HETATM   30  C9  UNL     1      27.044   5.289  91.865  1.00  0.00    -0.025 A 
HETATM   31  C10 UNL     1      27.541   6.327  92.617  1.00  0.00     0.036 A 
HETATM   32  C11 UNL     1      26.678   7.228  93.262  1.00  0.00     0.069 A 
HETATM   33 CL1  UNL     1      27.309   8.552  94.209  1.00  0.00    -0.081 Cl
HETATM   34  C12 UNL     1      25.316   7.092  93.153  1.00  0.00     0.109 A 
HETATM   35  C13 UNL     1      24.818   6.056  92.402  1.00  0.00     0.069 A 
HETATM   36 CL2  UNL     1      23.082   5.912  92.291  1.00  0.00    -0.081 Cl
HETATM   37  C14 UNL     1      25.672   5.167  91.766  1.00  0.00     0.036 A 
BRANCH  34  38
HETATM   38  O2  UNL     1      24.432   7.992  93.798  1.00  0.00    -0.357 OA
ATOM     39  H2  UNL     1      23.490   7.905  93.712  1.00  0.00     0.217 HD
ENDBRANCH  34  38
ENDBRANCH  27  30
ENDBRANCH  26  27
ENDBRANCH  24  26
ENDBRANCH   3  24
TORSDOF 11
ENDMDL
