MODEL 1
REMARK VINA RESULT: -6.224344519      0.000      0.000
REMARK  11 active torsions:
REMARK  status: ('A' for Active; 'I' for Inactive)
REMARK    1  A    between atoms: O1_2  and  C2_3 
REMARK    2  A    between atoms: C4_7  and  N2_8 
REMARK    3  A    between atoms: N2_8  and  C5_10 
REMARK    4  A    between atoms: C5_10  and  C6_11 
REMARK    5  A    between atoms: C5_10  and  C7_14 
REMARK    6  A    between atoms: C6_11  and  O2_12 
REMARK    7  A    between atoms: C7_14  and  C8_15 
REMARK    8  A    between atoms: C8_15  and  C9_16 
REMARK    9  A    between atoms: C9_16  and  N3_17 
REMARK   10  A    between atoms: N3_17  and  C10_19 
REMARK   11  A    between atoms: C13_23  and  O3_24 
ROOT
HETATM    1  C5  UNL     1      33.455   6.632  88.835  1.00  0.00     0.106 C 
ENDROOT
BRANCH   1   2
HETATM    2  N2  UNL     1      32.784   7.790  88.504  1.00  0.00    -0.368 N 
ATOM      3  H2  UNL     1      32.398   7.641  87.572  1.00  0.00     0.161 HD
BRANCH   2   4
HETATM    4  C4  UNL     1      32.445   8.927  88.842  1.00  0.00     0.132 A 
HETATM    5  C3  UNL     1      31.375   9.486  88.117  1.00  0.00     0.107 A 
HETATM    6  N1  UNL     1      30.626   8.990  87.087  1.00  0.00    -0.331 N 
HETATM    7  C17 UNL     1      30.927  10.733  88.414  1.00  0.00     0.090 A 
HETATM    8  C2  UNL     1      29.701   9.889  86.706  1.00  0.00     0.167 A 
ATOM      9  H1  UNL     1      30.751   8.069  86.666  1.00  0.00     0.168 HD
HETATM   10  C18 UNL     1      29.878  10.982  87.528  1.00  0.00     0.114 A 
HETATM   11 CL3  UNL     1      28.948  12.446  87.476  1.00  0.00    -0.077 Cl
HETATM   12  N5  UNL     1      31.512  11.432  89.405  1.00  0.00    -0.349 N 
HETATM   13  C16 UNL     1      32.542  10.900  90.106  1.00  0.00     0.182 A 
ATOM     14  H5  UNL     1      31.178  12.370  89.630  1.00  0.00     0.166 HD
HETATM   15  N4  UNL     1      32.991   9.669  89.820  1.00  0.00    -0.337 N 
ATOM     16  H4  UNL     1      33.767   9.286  90.359  1.00  0.00     0.168 HD
BRANCH   8  17
HETATM   17  O1  UNL     1      28.750   9.751  85.685  1.00  0.00    -0.339 OA
HETATM   18  C1  UNL     1      27.354   9.696  86.009  1.00  0.00     0.211 C 
ENDBRANCH   8  17
ENDBRANCH   2   4
ENDBRANCH   1   2
BRANCH   1  19
HETATM   19  C6  UNL     1      33.657   5.592  87.763  1.00  0.00     0.189 C 
BRANCH  19  20
HETATM   20  O2  UNL     1      32.922   4.430  87.977  1.00  0.00    -0.399 OA
ATOM     21  H2  UNL     1      33.017   3.791  87.281  1.00  0.00     0.209 HD
ENDBRANCH  19  20
ENDBRANCH   1  19
BRANCH   1  22
HETATM   22  C7  UNL     1      32.911   5.977  90.116  1.00  0.00     0.029 C 
BRANCH  22  23
HETATM   23  C8  UNL     1      33.921   5.773  91.180  1.00  0.00     0.022 C 
BRANCH  23  24
HETATM   24  C9  UNL     1      33.876   6.806  92.289  1.00  0.00     0.120 C 
BRANCH  24  25
HETATM   25  N3  UNL     1      35.076   7.623  92.281  1.00  0.00    -0.390 N 
ATOM     26  H3  UNL     1      35.953   7.197  91.981  1.00  0.00     0.159 HD
BRANCH  25  27
HETATM   27  C10 UNL     1      35.082   8.977  92.669  1.00  0.00     0.031 A 
HETATM   28  C11 UNL     1      36.173   9.785  92.466  1.00  0.00     0.056 A 
HETATM   29  C12 UNL     1      36.138  11.121  92.866  1.00  0.00     0.071 A 
HETATM   30 CL1  UNL     1      37.525  12.165  92.612  1.00  0.00    -0.081 Cl
HETATM   31  C13 UNL     1      35.024  11.667  93.467  1.00  0.00     0.109 A 
HETATM   32  C14 UNL     1      33.931  10.857  93.672  1.00  0.00     0.071 A 
HETATM   33 CL2  UNL     1      32.504  11.511  94.430  1.00  0.00    -0.081 Cl
HETATM   34  C15 UNL     1      33.975   9.537  93.273  1.00  0.00     0.056 A 
BRANCH  31  35
HETATM   35  O3  UNL     1      34.997  13.016  93.868  1.00  0.00    -0.357 OA
ATOM     36  H3  UNL     1      34.445  13.307  94.584  1.00  0.00     0.217 HD
ENDBRANCH  31  35
ENDBRANCH  25  27
ENDBRANCH  24  25
ENDBRANCH  23  24
ENDBRANCH  22  23
ENDBRANCH   1  22
TORSDOF 11
ENDMDL
MODEL 2
REMARK VINA RESULT: -6.199243382      0.031      1.663
REMARK  11 active torsions:
REMARK  status: ('A' for Active; 'I' for Inactive)
REMARK    1  A    between atoms: O1_2  and  C2_3 
REMARK    2  A    between atoms: C4_7  and  N2_8 
REMARK    3  A    between atoms: N2_8  and  C5_10 
REMARK    4  A    between atoms: C5_10  and  C6_11 
REMARK    5  A    between atoms: C5_10  and  C7_14 
REMARK    6  A    between atoms: C6_11  and  O2_12 
REMARK    7  A    between atoms: C7_14  and  C8_15 
REMARK    8  A    between atoms: C8_15  and  C9_16 
REMARK    9  A    between atoms: C9_16  and  N3_17 
REMARK   10  A    between atoms: N3_17  and  C10_19 
REMARK   11  A    between atoms: C13_23  and  O3_24 
ROOT
HETATM    1  C5  UNL     1      33.464   6.632  88.824  1.00  0.00     0.106 C 
ENDROOT
BRANCH   1   2
HETATM    2  N2  UNL     1      32.786   7.787  88.496  1.00  0.00    -0.368 N 
ATOM      3  H2  UNL     1      32.392   7.634  87.568  1.00  0.00     0.161 HD
BRANCH   2   4
HETATM    4  C4  UNL     1      32.447   8.924  88.833  1.00  0.00     0.132 A 
HETATM    5  C3  UNL     1      31.375   9.482  88.110  1.00  0.00     0.107 A 
HETATM    6  N1  UNL     1      30.625   8.984  87.082  1.00  0.00    -0.331 N 
HETATM    7  C17 UNL     1      30.927  10.729  88.407  1.00  0.00     0.090 A 
HETATM    8  C2  UNL     1      29.698   9.882  86.703  1.00  0.00     0.167 A 
ATOM      9  H1  UNL     1      30.749   8.063  86.662  1.00  0.00     0.168 HD
HETATM   10  C18 UNL     1      29.876  10.976  87.522  1.00  0.00     0.114 A 
HETATM   11 CL3  UNL     1      28.944  12.439  87.470  1.00  0.00    -0.077 Cl
HETATM   12  N5  UNL     1      31.514  11.430  89.396  1.00  0.00    -0.349 N 
HETATM   13  C16 UNL     1      32.546  10.899  90.095  1.00  0.00     0.182 A 
ATOM     14  H5  UNL     1      31.180  12.368  89.620  1.00  0.00     0.166 HD
HETATM   15  N4  UNL     1      32.995   9.668  89.809  1.00  0.00    -0.337 N 
ATOM     16  H4  UNL     1      33.773   9.286  90.347  1.00  0.00     0.168 HD
BRANCH   8  17
HETATM   17  O1  UNL     1      28.744   9.742  85.684  1.00  0.00    -0.339 OA
HETATM   18  C1  UNL     1      27.348   9.716  86.008  1.00  0.00     0.211 C 
ENDBRANCH   8  17
ENDBRANCH   2   4
ENDBRANCH   1   2
BRANCH   1  19
HETATM   19  C6  UNL     1      33.657   5.588  87.755  1.00  0.00     0.189 C 
BRANCH  19  20
HETATM   20  O2  UNL     1      32.924   4.427  87.980  1.00  0.00    -0.399 OA
ATOM     21  H2  UNL     1      33.420   3.632  87.822  1.00  0.00     0.209 HD
ENDBRANCH  19  20
ENDBRANCH   1  19
BRANCH   1  22
HETATM   22  C7  UNL     1      32.936   5.982  90.114  1.00  0.00     0.029 C 
BRANCH  22  23
HETATM   23  C8  UNL     1      33.963   5.766  91.160  1.00  0.00     0.022 C 
BRANCH  23  24
HETATM   24  C9  UNL     1      33.904   6.757  92.305  1.00  0.00     0.120 C 
BRANCH  24  25
HETATM   25  N3  UNL     1      35.072   7.618  92.302  1.00  0.00    -0.390 N 
ATOM     26  H3  UNL     1      35.965   7.227  91.998  1.00  0.00     0.159 HD
BRANCH  25  27
HETATM   27  C10 UNL     1      35.029   8.968  92.702  1.00  0.00     0.031 A 
HETATM   28  C11 UNL     1      33.917   9.513  93.295  1.00  0.00     0.056 A 
HETATM   29  C12 UNL     1      33.916  10.856  93.675  1.00  0.00     0.071 A 
HETATM   30 CL1  UNL     1      32.503  11.567  94.434  1.00  0.00    -0.081 Cl
HETATM   31  C13 UNL     1      35.013  11.667  93.472  1.00  0.00     0.109 A 
HETATM   32  C14 UNL     1      36.126  11.120  92.877  1.00  0.00     0.071 A 
HETATM   33 CL2  UNL     1      37.532  12.113  92.602  1.00  0.00    -0.081 Cl
HETATM   34  C15 UNL     1      36.118   9.791  92.504  1.00  0.00     0.056 A 
BRANCH  31  35
HETATM   35  O3  UNL     1      35.003  13.020  93.858  1.00  0.00    -0.357 OA
ATOM     36  H3  UNL     1      35.657  13.369  94.452  1.00  0.00     0.217 HD
ENDBRANCH  31  35
ENDBRANCH  25  27
ENDBRANCH  24  25
ENDBRANCH  23  24
ENDBRANCH  22  23
ENDBRANCH   1  22
TORSDOF 11
ENDMDL
MODEL 3
REMARK VINA RESULT: -6.090766915      3.563      4.941
REMARK  11 active torsions:
REMARK  status: ('A' for Active; 'I' for Inactive)
REMARK    1  A    between atoms: O1_2  and  C2_3 
REMARK    2  A    between atoms: C4_7  and  N2_8 
REMARK    3  A    between atoms: N2_8  and  C5_10 
REMARK    4  A    between atoms: C5_10  and  C6_11 
REMARK    5  A    between atoms: C5_10  and  C7_14 
REMARK    6  A    between atoms: C6_11  and  O2_12 
REMARK    7  A    between atoms: C7_14  and  C8_15 
REMARK    8  A    between atoms: C8_15  and  C9_16 
REMARK    9  A    between atoms: C9_16  and  N3_17 
REMARK   10  A    between atoms: N3_17  and  C10_19 
REMARK   11  A    between atoms: C13_23  and  O3_24 
ROOT
HETATM    1  C5  UNL     1      33.450   6.676  88.756  1.00  0.00     0.106 C 
ENDROOT
BRANCH   1   2
HETATM    2  N2  UNL     1      32.713   7.806  88.474  1.00  0.00    -0.368 N 
ATOM      3  H2  UNL     1      32.228   7.620  87.597  1.00  0.00     0.161 HD
BRANCH   2   4
HETATM    4  C4  UNL     1      32.384   8.944  88.817  1.00  0.00     0.132 A 
HETATM    5  C3  UNL     1      31.315   9.514  88.099  1.00  0.00     0.107 A 
HETATM    6  N1  UNL     1      30.559   9.027  87.069  1.00  0.00    -0.331 N 
HETATM    7  C17 UNL     1      30.877  10.763  88.402  1.00  0.00     0.090 A 
HETATM    8  C2  UNL     1      29.640   9.934  86.695  1.00  0.00     0.167 A 
ATOM      9  H1  UNL     1      30.676   8.107  86.645  1.00  0.00     0.168 HD
HETATM   10  C18 UNL     1      29.827  11.023  87.520  1.00  0.00     0.114 A 
HETATM   11 CL3  UNL     1      28.907  12.493  87.477  1.00  0.00    -0.077 Cl
HETATM   12  N5  UNL     1      31.472  11.454  89.393  1.00  0.00    -0.349 N 
HETATM   13  C16 UNL     1      32.500  10.912  90.088  1.00  0.00     0.182 A 
ATOM     14  H5  UNL     1      31.145  12.394  89.623  1.00  0.00     0.166 HD
HETATM   15  N4  UNL     1      32.939   9.679  89.796  1.00  0.00    -0.337 N 
ATOM     16  H4  UNL     1      33.714   9.288  90.331  1.00  0.00     0.168 HD
BRANCH   8  17
HETATM   17  O1  UNL     1      28.683   9.806  85.677  1.00  0.00    -0.339 OA
HETATM   18  C1  UNL     1      27.300   9.630  86.011  1.00  0.00     0.211 C 
ENDBRANCH   8  17
ENDBRANCH   2   4
ENDBRANCH   1   2
BRANCH   1  19
HETATM   19  C6  UNL     1      33.819   5.760  87.618  1.00  0.00     0.189 C 
BRANCH  19  20
HETATM   20  O2  UNL     1      33.084   4.578  87.601  1.00  0.00    -0.399 OA
ATOM     21  H2  UNL     1      33.433   3.926  87.005  1.00  0.00     0.209 HD
ENDBRANCH  19  20
ENDBRANCH   1  19
BRANCH   1  22
HETATM   22  C7  UNL     1      32.865   5.864  89.925  1.00  0.00     0.029 C 
BRANCH  22  23
HETATM   23  C8  UNL     1      33.343   6.279  91.263  1.00  0.00     0.022 C 
BRANCH  23  24
HETATM   24  C9  UNL     1      32.244   6.439  92.296  1.00  0.00     0.120 C 
BRANCH  24  25
HETATM   25  N3  UNL     1      31.050   5.720  91.892  1.00  0.00    -0.390 N 
ATOM     26  H3  UNL     1      31.156   4.877  91.326  1.00  0.00     0.159 HD
BRANCH  25  27
HETATM   27  C10 UNL     1      29.751   6.133  92.248  1.00  0.00     0.031 A 
HETATM   28  C11 UNL     1      29.533   7.200  93.085  1.00  0.00     0.056 A 
HETATM   29  C12 UNL     1      28.230   7.576  93.412  1.00  0.00     0.071 A 
HETATM   30 CL1  UNL     1      27.937   8.938  94.479  1.00  0.00    -0.081 Cl
HETATM   31  C13 UNL     1      27.135   6.902  92.915  1.00  0.00     0.109 A 
HETATM   32  C14 UNL     1      27.354   5.833  92.077  1.00  0.00     0.071 A 
HETATM   33 CL2  UNL     1      25.995   4.954  91.428  1.00  0.00    -0.081 Cl
HETATM   34  C15 UNL     1      28.647   5.468  91.759  1.00  0.00     0.056 A 
BRANCH  31  35
HETATM   35  O3  UNL     1      25.825   7.289  93.250  1.00  0.00    -0.357 OA
ATOM     36  H3  UNL     1      25.265   6.731  93.778  1.00  0.00     0.217 HD
ENDBRANCH  31  35
ENDBRANCH  25  27
ENDBRANCH  24  25
ENDBRANCH  23  24
ENDBRANCH  22  23
ENDBRANCH   1  22
TORSDOF 11
ENDMDL
MODEL 4
REMARK VINA RESULT: -6.016116340      3.531      5.178
REMARK  11 active torsions:
REMARK  status: ('A' for Active; 'I' for Inactive)
REMARK    1  A    between atoms: O1_2  and  C2_3 
REMARK    2  A    between atoms: C4_7  and  N2_8 
REMARK    3  A    between atoms: N2_8  and  C5_10 
REMARK    4  A    between atoms: C5_10  and  C6_11 
REMARK    5  A    between atoms: C5_10  and  C7_14 
REMARK    6  A    between atoms: C6_11  and  O2_12 
REMARK    7  A    between atoms: C7_14  and  C8_15 
REMARK    8  A    between atoms: C8_15  and  C9_16 
REMARK    9  A    between atoms: C9_16  and  N3_17 
REMARK   10  A    between atoms: N3_17  and  C10_19 
REMARK   11  A    between atoms: C13_23  and  O3_24 
ROOT
HETATM    1  C5  UNL     1      33.513   6.679  88.904  1.00  0.00     0.106 C 
ENDROOT
BRANCH   1   2
HETATM    2  N2  UNL     1      32.727   7.774  88.619  1.00  0.00    -0.368 N 
ATOM      3  H2  UNL     1      32.174   7.524  87.799  1.00  0.00     0.161 HD
BRANCH   2   4
HETATM    4  C4  UNL     1      32.398   8.924  88.920  1.00  0.00     0.132 A 
HETATM    5  C3  UNL     1      31.349   9.478  88.161  1.00  0.00     0.107 A 
HETATM    6  N1  UNL     1      30.612   8.965  87.131  1.00  0.00    -0.331 N 
HETATM    7  C17 UNL     1      30.913  10.739  88.417  1.00  0.00     0.090 A 
HETATM    8  C2  UNL     1      29.706   9.866  86.710  1.00  0.00     0.167 A 
ATOM      9  H1  UNL     1      30.731   8.032  86.737  1.00  0.00     0.168 HD
HETATM   10  C18 UNL     1      29.884  10.978  87.505  1.00  0.00     0.114 A 
HETATM   11 CL3  UNL     1      28.975  12.452  87.397  1.00  0.00    -0.077 Cl
HETATM   12  N5  UNL     1      31.491  11.457  89.399  1.00  0.00    -0.349 N 
HETATM   13  C16 UNL     1      32.501  10.929  90.132  1.00  0.00     0.182 A 
ATOM     14  H5  UNL     1      31.166  12.404  89.593  1.00  0.00     0.166 HD
HETATM   15  N4  UNL     1      32.937   9.685  89.887  1.00  0.00    -0.337 N 
ATOM     16  H4  UNL     1      33.698   9.306  90.450  1.00  0.00     0.168 HD
BRANCH   8  17
HETATM   17  O1  UNL     1      28.771   9.713  85.676  1.00  0.00    -0.339 OA
HETATM   18  C1  UNL     1      27.368   9.710  85.973  1.00  0.00     0.211 C 
ENDBRANCH   8  17
ENDBRANCH   2   4
ENDBRANCH   1   2
BRANCH   1  19
HETATM   19  C6  UNL     1      34.007   5.835  87.758  1.00  0.00     0.189 C 
BRANCH  19  20
HETATM   20  O2  UNL     1      35.387   5.654  87.761  1.00  0.00    -0.399 OA
ATOM     21  H2  UNL     1      35.829   6.145  88.443  1.00  0.00     0.209 HD
ENDBRANCH  19  20
ENDBRANCH   1  19
BRANCH   1  22
HETATM   22  C7  UNL     1      32.909   5.786  90.002  1.00  0.00     0.029 C 
BRANCH  22  23
HETATM   23  C8  UNL     1      32.462   4.454  89.535  1.00  0.00     0.022 C 
BRANCH  23  24
HETATM   24  C9  UNL     1      31.272   3.895  90.290  1.00  0.00     0.120 C 
BRANCH  24  25
HETATM   25  N3  UNL     1      31.076   4.607  91.539  1.00  0.00    -0.390 N 
ATOM     26  H3  UNL     1      31.856   4.668  92.194  1.00  0.00     0.159 HD
BRANCH  25  27
HETATM   27  C10 UNL     1      29.855   5.219  91.887  1.00  0.00     0.031 A 
HETATM   28  C11 UNL     1      28.647   4.716  91.472  1.00  0.00     0.056 A 
HETATM   29  C12 UNL     1      27.461   5.353  91.839  1.00  0.00     0.071 A 
HETATM   30 CL1  UNL     1      25.911   4.721  91.315  1.00  0.00    -0.081 Cl
HETATM   31  C13 UNL     1      27.462   6.489  92.619  1.00  0.00     0.109 A 
HETATM   32  C14 UNL     1      28.672   6.994  93.034  1.00  0.00     0.071 A 
HETATM   33 CL2  UNL     1      28.714   8.430  94.022  1.00  0.00    -0.081 Cl
HETATM   34  C15 UNL     1      29.840   6.357  92.666  1.00  0.00     0.056 A 
BRANCH  31  35
HETATM   35  O3  UNL     1      26.261   7.126  92.984  1.00  0.00    -0.357 OA
ATOM     36  H3  UNL     1      25.646   7.433  92.329  1.00  0.00     0.217 HD
ENDBRANCH  31  35
ENDBRANCH  25  27
ENDBRANCH  24  25
ENDBRANCH  23  24
ENDBRANCH  22  23
ENDBRANCH   1  22
TORSDOF 11
ENDMDL
MODEL 5
REMARK VINA RESULT: -5.917200376      3.766      5.272
REMARK  11 active torsions:
REMARK  status: ('A' for Active; 'I' for Inactive)
REMARK    1  A    between atoms: O1_2  and  C2_3 
REMARK    2  A    between atoms: C4_7  and  N2_8 
REMARK    3  A    between atoms: N2_8  and  C5_10 
REMARK    4  A    between atoms: C5_10  and  C6_11 
REMARK    5  A    between atoms: C5_10  and  C7_14 
REMARK    6  A    between atoms: C6_11  and  O2_12 
REMARK    7  A    between atoms: C7_14  and  C8_15 
REMARK    8  A    between atoms: C8_15  and  C9_16 
REMARK    9  A    between atoms: C9_16  and  N3_17 
REMARK   10  A    between atoms: N3_17  and  C10_19 
REMARK   11  A    between atoms: C13_23  and  O3_24 
ROOT
HETATM    1  C5  UNL     1      33.608   5.979  88.657  1.00  0.00     0.106 C 
ENDROOT
BRANCH   1   2
HETATM    2  N2  UNL     1      32.873   7.146  88.638  1.00  0.00    -0.368 N 
ATOM      3  H2  UNL     1      32.077   6.973  88.025  1.00  0.00     0.161 HD
BRANCH   2   4
HETATM    4  C4  UNL     1      32.757   8.307  89.037  1.00  0.00     0.132 A 
HETATM    5  C3  UNL     1      31.806   9.094  88.359  1.00  0.00     0.107 A 
HETATM    6  N1  UNL     1      30.971   8.801  87.317  1.00  0.00    -0.331 N 
HETATM    7  C17 UNL     1      31.603  10.386  88.724  1.00  0.00     0.090 A 
HETATM    8  C2  UNL     1      30.229   9.876  86.997  1.00  0.00     0.167 A 
ATOM      9  H1  UNL     1      30.917   7.896  86.849  1.00  0.00     0.168 HD
HETATM   10  C18 UNL     1      30.614  10.872  87.869  1.00  0.00     0.114 A 
HETATM   11 CL3  UNL     1      29.975  12.485  87.905  1.00  0.00    -0.077 Cl
HETATM   12  N5  UNL     1      32.316  10.910  89.739  1.00  0.00    -0.349 N 
HETATM   13  C16 UNL     1      33.232  10.159  90.396  1.00  0.00     0.182 A 
ATOM     14  H5  UNL     1      32.166  11.881  90.016  1.00  0.00     0.166 HD
HETATM   15  N4  UNL     1      33.439   8.882  90.042  1.00  0.00    -0.337 N 
ATOM     16  H4  UNL     1      34.133   8.333  90.548  1.00  0.00     0.168 HD
BRANCH   8  17
HETATM   17  O1  UNL     1      29.261   9.972  85.986  1.00  0.00    -0.339 OA
HETATM   18  C1  UNL     1      27.868   9.931  86.321  1.00  0.00     0.211 C 
ENDBRANCH   8  17
ENDBRANCH   2   4
ENDBRANCH   1   2
BRANCH   1  19
HETATM   19  C6  UNL     1      34.280   5.537  87.383  1.00  0.00     0.189 C 
BRANCH  19  20
HETATM   20  O2  UNL     1      33.567   4.561  86.694  1.00  0.00    -0.399 OA
ATOM     21  H2  UNL     1      33.690   3.687  87.044  1.00  0.00     0.209 HD
ENDBRANCH  19  20
ENDBRANCH   1  19
BRANCH   1  22
HETATM   22  C7  UNL     1      32.840   4.806  89.289  1.00  0.00     0.029 C 
BRANCH  22  23
HETATM   23  C8  UNL     1      32.389   5.043  90.680  1.00  0.00     0.022 C 
BRANCH  23  24
HETATM   24  C9  UNL     1      31.201   4.201  91.102  1.00  0.00     0.120 C 
BRANCH  24  25
HETATM   25  N3  UNL     1      29.970   4.732  90.547  1.00  0.00    -0.390 N 
ATOM     26  H3  UNL     1      29.802   4.628  89.546  1.00  0.00     0.159 HD
BRANCH  25  27
HETATM   27  C10 UNL     1      28.997   5.385  91.329  1.00  0.00     0.031 A 
HETATM   28  C11 UNL     1      29.328   6.381  92.215  1.00  0.00     0.056 A 
HETATM   29  C12 UNL     1      28.333   7.002  92.971  1.00  0.00     0.071 A 
HETATM   30 CL1  UNL     1      28.741   8.276  94.106  1.00  0.00    -0.081 Cl
HETATM   31  C13 UNL     1      27.007   6.644  92.856  1.00  0.00     0.109 A 
HETATM   32  C14 UNL     1      26.676   5.646  91.969  1.00  0.00     0.071 A 
HETATM   33 CL2  UNL     1      25.010   5.165  91.795  1.00  0.00    -0.081 Cl
HETATM   34  C15 UNL     1      27.667   5.037  91.225  1.00  0.00     0.056 A 
BRANCH  31  35
HETATM   35  O3  UNL     1      26.010   7.276  93.622  1.00  0.00    -0.357 OA
ATOM     36  H3  UNL     1      25.237   6.806  93.911  1.00  0.00     0.217 HD
ENDBRANCH  31  35
ENDBRANCH  25  27
ENDBRANCH  24  25
ENDBRANCH  23  24
ENDBRANCH  22  23
ENDBRANCH   1  22
TORSDOF 11
ENDMDL
