MODEL 1
REMARK VINA RESULT: -4.104771621      0.000      0.000
REMARK  6 active torsions:
REMARK  status: ('A' for Active; 'I' for Inactive)
REMARK    1  A    between atoms: N1_1  and  C1_4 
REMARK    2  A    between atoms: C2_9  and  C3_10 
REMARK    3  A    between atoms: C3_10  and  C4_11 
REMARK    4  A    between atoms: C4_11  and  N4_12 
REMARK    5  A    between atoms: C4_11  and  C5_16 
REMARK    6  A    between atoms: C5_16  and  N5_17 
ROOT
HETATM    1  C3  UNL     1      13.140   1.708   6.078  1.00  0.00     0.101 C 
ENDROOT
BRANCH   1   2
HETATM    2  C2  UNL     1      11.818   2.248   5.613  1.00  0.00     0.071 A 
HETATM    3  N3  UNL     1      11.231   3.382   5.992  1.00  0.00    -0.296 N 
HETATM    4  N2  UNL     1      10.100   3.699   5.530  1.00  0.00    -0.279 N 
ATOM      5  H3  UNL     1      11.698   3.997   6.658  1.00  0.00     0.187 HD
HETATM    6  C1  UNL     1       9.500   2.880   4.658  1.00  0.00     0.158 A 
ATOM      7  H2  UNL     1       9.649   4.567   5.818  1.00  0.00     0.189 HD
HETATM    8  S1  UNL     1      10.643   1.620   4.525  1.00  0.00    -0.038 SA
BRANCH   6   9
HETATM    9  N1  UNL     1       8.330   3.053   4.082  1.00  0.00    -0.379 N 
ATOM     10  H12 UNL     1       7.652   3.811   4.153  1.00  0.00     0.158 HD
ATOM     11  H11 UNL     1       7.868   2.423   3.426  1.00  0.00     0.158 HD
ENDBRANCH   6   9
ENDBRANCH   1   2
BRANCH   1  12
HETATM   12  C4  UNL     1      13.017   0.994   7.371  1.00  0.00     0.215 C 
BRANCH  12  13
HETATM   13  N4  UNL     1      14.391   0.605   7.783  1.00  0.00    -0.073 N 
ATOM     14  H43 UNL     1      15.055   1.378   7.742  1.00  0.00     0.274 HD
ATOM     15  H42 UNL     1      14.472   0.418   8.782  1.00  0.00     0.274 HD
ATOM     16  H41 UNL     1      14.661  -0.188   7.202  1.00  0.00     0.274 HD
ENDBRANCH  12  13
BRANCH  12  17
HETATM   17  C5  UNL     1      12.250  -0.304   7.249  1.00  0.00     0.262 C 
BRANCH  17  18
HETATM   18  N5  UNL     1      11.072  -0.359   8.017  1.00  0.00    -0.077 N 
ATOM     19  H53 UNL     1      11.194  -0.990   8.808  1.00  0.00     0.274 HD
ATOM     20  H52 UNL     1      10.930   0.520   8.513  1.00  0.00     0.274 HD
ATOM     21  H51 UNL     1      10.235  -0.608   7.490  1.00  0.00     0.274 HD
ENDBRANCH  17  18
ENDBRANCH  12  17
ENDBRANCH   1  12
TORSDOF 6
ENDMDL
MODEL 2
REMARK VINA RESULT: -4.006428620      0.896      1.490
REMARK  6 active torsions:
REMARK  status: ('A' for Active; 'I' for Inactive)
REMARK    1  A    between atoms: N1_1  and  C1_4 
REMARK    2  A    between atoms: C2_9  and  C3_10 
REMARK    3  A    between atoms: C3_10  and  C4_11 
REMARK    4  A    between atoms: C4_11  and  N4_12 
REMARK    5  A    between atoms: C4_11  and  C5_16 
REMARK    6  A    between atoms: C5_16  and  N5_17 
ROOT
HETATM    1  C3  UNL     1      13.054   2.064   5.854  1.00  0.00     0.101 C 
ENDROOT
BRANCH   1   2
HETATM    2  C2  UNL     1      11.657   2.448   5.456  1.00  0.00     0.071 A 
HETATM    3  N3  UNL     1      10.963   3.507   5.868  1.00  0.00    -0.296 N 
HETATM    4  N2  UNL     1       9.782   3.690   5.464  1.00  0.00    -0.279 N 
ATOM      5  H3  UNL     1      11.388   4.173   6.513  1.00  0.00     0.187 HD
HETATM    6  C1  UNL     1       9.238   2.806   4.619  1.00  0.00     0.158 A 
ATOM      7  H2  UNL     1       9.248   4.502   5.777  1.00  0.00     0.189 HD
HETATM    8  S1  UNL     1      10.511   1.686   4.426  1.00  0.00    -0.038 SA
BRANCH   6   9
HETATM    9  N1  UNL     1       8.029   2.842   4.102  1.00  0.00    -0.379 N 
ATOM     10  H12 UNL     1       7.112   2.707   4.528  1.00  0.00     0.158 HD
ATOM     11  H11 UNL     1       7.780   3.021   3.129  1.00  0.00     0.158 HD
ENDBRANCH   6   9
ENDBRANCH   1   2
BRANCH   1  12
HETATM   12  C4  UNL     1      13.099   0.717   6.472  1.00  0.00     0.215 C 
BRANCH  12  13
HETATM   13  N4  UNL     1      12.423   0.822   7.790  1.00  0.00    -0.073 N 
ATOM     14  H43 UNL     1      13.060   1.061   8.550  1.00  0.00     0.274 HD
ATOM     15  H42 UNL     1      11.819   1.641   7.867  1.00  0.00     0.274 HD
ATOM     16  H41 UNL     1      11.929  -0.057   7.942  1.00  0.00     0.274 HD
ENDBRANCH  12  13
BRANCH  12  17
HETATM   17  C5  UNL     1      14.509   0.263   6.776  1.00  0.00     0.262 C 
BRANCH  17  18
HETATM   18  N5  UNL     1      14.704  -0.193   8.092  1.00  0.00    -0.077 N 
ATOM     19  H53 UNL     1      14.469   0.540   8.761  1.00  0.00     0.274 HD
ATOM     20  H52 UNL     1      13.996  -0.886   8.336  1.00  0.00     0.274 HD
ATOM     21  H51 UNL     1      15.637  -0.559   8.279  1.00  0.00     0.274 HD
ENDBRANCH  17  18
ENDBRANCH  12  17
ENDBRANCH   1  12
TORSDOF 6
ENDMDL
MODEL 3
REMARK VINA RESULT: -3.997468190      3.756      5.552
REMARK  6 active torsions:
REMARK  status: ('A' for Active; 'I' for Inactive)
REMARK    1  A    between atoms: N1_1  and  C1_4 
REMARK    2  A    between atoms: C2_9  and  C3_10 
REMARK    3  A    between atoms: C3_10  and  C4_11 
REMARK    4  A    between atoms: C4_11  and  N4_12 
REMARK    5  A    between atoms: C4_11  and  C5_16 
REMARK    6  A    between atoms: C5_16  and  N5_17 
ROOT
HETATM    1  C3  UNL     1       9.760   3.566   2.621  1.00  0.00     0.101 C 
ENDROOT
BRANCH   1   2
HETATM    2  C2  UNL     1       9.922   2.777   1.353  1.00  0.00     0.071 A 
HETATM    3  N3  UNL     1      10.421   3.204   0.195  1.00  0.00    -0.296 N 
HETATM    4  N2  UNL     1      10.474   2.429  -0.800  1.00  0.00    -0.279 N 
ATOM      5  H3  UNL     1      10.761   4.162   0.111  1.00  0.00     0.187 HD
HETATM    6  C1  UNL     1      10.022   1.176  -0.674  1.00  0.00     0.158 A 
ATOM      7  H2  UNL     1      10.856   2.754  -1.688  1.00  0.00     0.189 HD
HETATM    8  S1  UNL     1       9.511   1.156   0.954  1.00  0.00    -0.038 SA
BRANCH   6   9
HETATM    9  N1  UNL     1      10.001   0.242  -1.600  1.00  0.00    -0.379 N 
ATOM     10  H12 UNL     1       9.832  -0.761  -1.538  1.00  0.00     0.158 HD
ATOM     11  H11 UNL     1      10.159   0.363  -2.601  1.00  0.00     0.158 HD
ENDBRANCH   6   9
ENDBRANCH   1   2
BRANCH   1  12
HETATM   12  C4  UNL     1       9.549   2.685   3.794  1.00  0.00     0.215 C 
BRANCH  12  13
HETATM   13  N4  UNL     1       8.229   3.045   4.373  1.00  0.00    -0.073 N 
ATOM     14  H43 UNL     1       7.618   3.524   3.712  1.00  0.00     0.274 HD
ATOM     15  H42 UNL     1       7.630   2.236   4.540  1.00  0.00     0.274 HD
ATOM     16  H41 UNL     1       8.413   3.589   5.216  1.00  0.00     0.274 HD
ENDBRANCH  12  13
BRANCH  12  17
HETATM   17  C5  UNL     1      10.555   2.932   4.896  1.00  0.00     0.262 C 
BRANCH  17  18
HETATM   18  N5  UNL     1      10.133   3.850   5.876  1.00  0.00    -0.077 N 
ATOM     19  H53 UNL     1       9.701   4.663   5.438  1.00  0.00     0.274 HD
ATOM     20  H52 UNL     1       9.333   3.480   6.388  1.00  0.00     0.274 HD
ATOM     21  H51 UNL     1      10.864   4.142   6.524  1.00  0.00     0.274 HD
ENDBRANCH  17  18
ENDBRANCH  12  17
ENDBRANCH   1  12
TORSDOF 6
ENDMDL
MODEL 4
REMARK VINA RESULT: -3.973555835      1.177      1.269
REMARK  6 active torsions:
REMARK  status: ('A' for Active; 'I' for Inactive)
REMARK    1  A    between atoms: N1_1  and  C1_4 
REMARK    2  A    between atoms: C2_9  and  C3_10 
REMARK    3  A    between atoms: C3_10  and  C4_11 
REMARK    4  A    between atoms: C4_11  and  N4_12 
REMARK    5  A    between atoms: C4_11  and  C5_16 
REMARK    6  A    between atoms: C5_16  and  N5_17 
ROOT
HETATM    1  C3  UNL     1      12.104   1.053   5.391  1.00  0.00     0.101 C 
ENDROOT
BRANCH   1   2
HETATM    2  C2  UNL     1      10.806   1.704   5.006  1.00  0.00     0.071 A 
HETATM    3  N3  UNL     1      10.273   2.809   5.524  1.00  0.00    -0.296 N 
HETATM    4  N2  UNL     1       9.155   3.228   5.114  1.00  0.00    -0.279 N 
ATOM      5  H3  UNL     1      10.769   3.318   6.254  1.00  0.00     0.187 HD
HETATM    6  C1  UNL     1       8.515   2.548   4.155  1.00  0.00     0.158 A 
ATOM      7  H2  UNL     1       8.744   4.075   5.509  1.00  0.00     0.189 HD
HETATM    8  S1  UNL     1       9.600   1.264   3.862  1.00  0.00    -0.038 SA
BRANCH   6   9
HETATM    9  N1  UNL     1       7.352   2.840   3.616  1.00  0.00    -0.379 N 
ATOM     10  H12 UNL     1       6.502   2.286   3.512  1.00  0.00     0.158 HD
ATOM     11  H11 UNL     1       7.078   3.722   3.181  1.00  0.00     0.158 HD
ENDBRANCH   6   9
ENDBRANCH   1   2
BRANCH   1  12
HETATM   12  C4  UNL     1      12.648   1.614   6.650  1.00  0.00     0.215 C 
BRANCH  12  13
HETATM   13  N4  UNL     1      14.026   2.085   6.354  1.00  0.00    -0.073 N 
ATOM     14  H43 UNL     1      14.604   1.376   5.902  1.00  0.00     0.274 HD
ATOM     15  H42 UNL     1      14.061   2.777   5.606  1.00  0.00     0.274 HD
ATOM     16  H41 UNL     1      14.419   2.422   7.233  1.00  0.00     0.274 HD
ENDBRANCH  12  13
BRANCH  12  17
HETATM   17  C5  UNL     1      12.802   0.571   7.734  1.00  0.00     0.262 C 
BRANCH  17  18
HETATM   18  N5  UNL     1      11.599  -0.046   8.124  1.00  0.00    -0.077 N 
ATOM     19  H53 UNL     1      11.779  -0.988   8.470  1.00  0.00     0.274 HD
ATOM     20  H52 UNL     1      11.236   0.387   8.972  1.00  0.00     0.274 HD
ATOM     21  H51 UNL     1      10.880  -0.066   7.401  1.00  0.00     0.274 HD
ENDBRANCH  17  18
ENDBRANCH  12  17
ENDBRANCH   1  12
TORSDOF 6
ENDMDL
MODEL 5
REMARK VINA RESULT: -3.950627614      1.948      5.175
REMARK  6 active torsions:
REMARK  status: ('A' for Active; 'I' for Inactive)
REMARK    1  A    between atoms: N1_1  and  C1_4 
REMARK    2  A    between atoms: C2_9  and  C3_10 
REMARK    3  A    between atoms: C3_10  and  C4_11 
REMARK    4  A    between atoms: C4_11  and  N4_12 
REMARK    5  A    between atoms: C4_11  and  C5_16 
REMARK    6  A    between atoms: C5_16  and  N5_17 
ROOT
HETATM    1  C3  UNL     1      11.801   2.245   5.021  1.00  0.00     0.101 C 
ENDROOT
BRANCH   1   2
HETATM    2  C2  UNL     1      12.603   1.473   6.030  1.00  0.00     0.071 A 
HETATM    3  N3  UNL     1      12.229   1.121   7.259  1.00  0.00    -0.296 N 
HETATM    4  N2  UNL     1      13.024   0.489   8.009  1.00  0.00    -0.279 N 
ATOM      5  H3  UNL     1      11.298   1.361   7.595  1.00  0.00     0.187 HD
HETATM    6  C1  UNL     1      14.244   0.181   7.554  1.00  0.00     0.158 A 
ATOM      7  H2  UNL     1      12.740   0.217   8.950  1.00  0.00     0.189 HD
HETATM    8  S1  UNL     1      14.202   0.845   5.982  1.00  0.00    -0.038 SA
BRANCH   6   9
HETATM    9  N1  UNL     1      15.191  -0.467   8.196  1.00  0.00    -0.379 N 
ATOM     10  H12 UNL     1      15.176  -1.354   8.698  1.00  0.00     0.158 HD
ATOM     11  H11 UNL     1      16.164  -0.181   8.311  1.00  0.00     0.158 HD
ENDBRANCH   6   9
ENDBRANCH   1   2
BRANCH   1  12
HETATM   12  C4  UNL     1      11.449   3.597   5.516  1.00  0.00     0.215 C 
BRANCH  12  13
HETATM   13  N4  UNL     1       9.966   3.673   5.549  1.00  0.00    -0.073 N 
ATOM     14  H43 UNL     1       9.600   4.538   5.152  1.00  0.00     0.274 HD
ATOM     15  H42 UNL     1       9.517   3.031   4.897  1.00  0.00     0.274 HD
ATOM     16  H41 UNL     1       9.683   3.525   6.518  1.00  0.00     0.274 HD
ENDBRANCH  12  13
BRANCH  12  17
HETATM   17  C5  UNL     1      11.889   4.694   4.573  1.00  0.00     0.262 C 
BRANCH  17  18
HETATM   18  N5  UNL     1      10.990   4.956   3.523  1.00  0.00    -0.077 N 
ATOM     19  H53 UNL     1      10.633   5.909   3.591  1.00  0.00     0.274 HD
ATOM     20  H52 UNL     1      11.489   5.019   2.636  1.00  0.00     0.274 HD
ATOM     21  H51 UNL     1      10.220   4.292   3.450  1.00  0.00     0.274 HD
ENDBRANCH  17  18
ENDBRANCH  12  17
ENDBRANCH   1  12
TORSDOF 6
ENDMDL
