MODEL 1
REMARK VINA RESULT: -5.243141132      0.000      0.000
REMARK  3 active torsions:
REMARK  status: ('A' for Active; 'I' for Inactive)
REMARK    1  A    between atoms: N1_1  and  N2_4 
REMARK       I    between atoms: C1_6  and  N4_8 
REMARK    2  A    between atoms: N4_8  and  N5_10 
REMARK    3  A    between atoms: C2_12  and  C3_13 
ROOT
HETATM    1  N5  UNL     1      12.130   4.277   3.950  1.00  0.00    -0.307 N 
ATOM      2  H5  UNL     1      13.117   4.258   3.696  1.00  0.00     0.186 HD
HETATM    3  C2  UNL     1      11.556   3.182   4.294  1.00  0.00     0.139 C 
ENDROOT
BRANCH   1   4
HETATM    4  N4  UNL     1      11.451   5.488   3.912  1.00  0.00    -0.273 N 
HETATM    5  C1  UNL     1      12.166   6.669   4.243  1.00  0.00     0.221 C 
HETATM    6  N2  UNL     1      13.356   6.671   4.711  1.00  0.00    -0.279 N 
HETATM    7  N3  UNL     1      11.539   7.929   4.049  1.00  0.00    -0.061 NA
ATOM      8  H2  UNL     1      13.770   7.582   4.911  1.00  0.00     0.189 HD
ATOM      9  H4  UNL     1      10.465   5.528   3.653  1.00  0.00     0.189 HD
BRANCH   6  10
HETATM   10  N1  UNL     1      14.132   5.566   4.969  1.00  0.00    -0.343 N 
ATOM     11  H12 UNL     1      14.163   4.865   4.230  1.00  0.00     0.176 HD
ATOM     12  H11 UNL     1      14.667   5.390   5.819  1.00  0.00     0.176 HD
ENDBRANCH   6  10
ENDBRANCH   1   4
BRANCH   3  13
HETATM   13  C3  UNL     1      10.149   3.225   4.654  1.00  0.00     0.083 A 
HETATM   14  C4  UNL     1       9.075   2.822   3.852  1.00  0.00     0.141 A 
HETATM   15  N6  UNL     1       7.926   3.016   4.539  1.00  0.00    -0.295 N 
HETATM   16  N7  UNL     1       8.250   3.514   5.714  1.00  0.00    -0.243 N 
ATOM     17  H6  UNL     1       6.982   2.814   4.209  1.00  0.00     0.187 HD
HETATM   18  N8  UNL     1       9.566   3.639   5.787  1.00  0.00    -0.284 N 
ATOM     19  H7  UNL     1       7.592   3.764   6.451  1.00  0.00     0.208 HD
ATOM     20  H8  UNL     1      10.068   4.002   6.596  1.00  0.00     0.188 HD
ENDBRANCH   3  13
TORSDOF 3
ENDMDL
MODEL 2
REMARK VINA RESULT: -4.772968050      3.266      4.778
REMARK  3 active torsions:
REMARK  status: ('A' for Active; 'I' for Inactive)
REMARK    1  A    between atoms: N1_1  and  N2_4 
REMARK       I    between atoms: C1_6  and  N4_8 
REMARK    2  A    between atoms: N4_8  and  N5_10 
REMARK    3  A    between atoms: C2_12  and  C3_13 
ROOT
HETATM    1  N5  UNL     1      12.131   2.192   6.258  1.00  0.00    -0.307 N 
ATOM      2  H5  UNL     1      13.023   2.187   6.752  1.00  0.00     0.186 HD
HETATM    3  C2  UNL     1      11.743   3.275   5.688  1.00  0.00     0.139 C 
ENDROOT
BRANCH   1   4
HETATM    4  N4  UNL     1      11.378   1.026   6.222  1.00  0.00    -0.273 N 
HETATM    5  C1  UNL     1      11.793  -0.066   7.030  1.00  0.00     0.221 C 
HETATM    6  N2  UNL     1      12.895  -0.092   7.677  1.00  0.00    -0.279 N 
HETATM    7  N3  UNL     1      10.947  -1.203   7.136  1.00  0.00    -0.061 NA
ATOM      8  H2  UNL     1      13.088  -0.931   8.225  1.00  0.00     0.189 HD
ATOM      9  H4  UNL     1      10.548   0.956   5.633  1.00  0.00     0.189 HD
BRANCH   6  10
HETATM   10  N1  UNL     1      13.846   0.900   7.706  1.00  0.00    -0.343 N 
ATOM     11  H12 UNL     1      13.737   1.596   8.444  1.00  0.00     0.176 HD
ATOM     12  H11 UNL     1      14.635   0.998   7.068  1.00  0.00     0.176 HD
ENDBRANCH   6  10
ENDBRANCH   1   4
BRANCH   3  13
HETATM   13  C3  UNL     1      10.470   3.266   4.987  1.00  0.00     0.083 A 
HETATM   14  C4  UNL     1      10.287   3.256   3.600  1.00  0.00     0.141 A 
HETATM   15  N6  UNL     1       8.959   3.250   3.339  1.00  0.00    -0.295 N 
HETATM   16  N7  UNL     1       8.332   3.254   4.496  1.00  0.00    -0.243 N 
ATOM     17  H6  UNL     1       8.525   3.242   2.417  1.00  0.00     0.187 HD
HETATM   18  N8  UNL     1       9.222   3.263   5.476  1.00  0.00    -0.284 N 
ATOM     19  H7  UNL     1       7.320   3.251   4.619  1.00  0.00     0.208 HD
ATOM     20  H8  UNL     1       8.990   3.268   6.468  1.00  0.00     0.188 HD
ENDBRANCH   3  13
TORSDOF 3
ENDMDL
MODEL 3
REMARK VINA RESULT: -4.720679285      3.015      5.067
REMARK  3 active torsions:
REMARK  status: ('A' for Active; 'I' for Inactive)
REMARK    1  A    between atoms: N1_1  and  N2_4 
REMARK       I    between atoms: C1_6  and  N4_8 
REMARK    2  A    between atoms: N4_8  and  N5_10 
REMARK    3  A    between atoms: C2_12  and  C3_13 
ROOT
HETATM    1  N5  UNL     1      10.179   4.117   3.223  1.00  0.00    -0.307 N 
ATOM      2  H5  UNL     1      10.212   4.688   4.067  1.00  0.00     0.186 HD
HETATM    3  C2  UNL     1      11.128   4.220   2.366  1.00  0.00     0.139 C 
ENDROOT
BRANCH   1   4
HETATM    4  N4  UNL     1       9.106   3.254   3.039  1.00  0.00    -0.273 N 
HETATM    5  C1  UNL     1       8.371   2.844   4.184  1.00  0.00     0.221 C 
HETATM    6  N2  UNL     1       8.722   3.106   5.385  1.00  0.00    -0.279 N 
HETATM    7  N3  UNL     1       7.174   2.099   4.001  1.00  0.00    -0.061 NA
ATOM      8  H2  UNL     1       8.114   2.760   6.128  1.00  0.00     0.189 HD
ATOM      9  H4  UNL     1       8.853   2.923   2.108  1.00  0.00     0.189 HD
BRANCH   6  10
HETATM   10  N1  UNL     1       9.838   3.809   5.772  1.00  0.00    -0.343 N 
ATOM     11  H12 UNL     1      10.699   3.268   5.843  1.00  0.00     0.176 HD
ATOM     12  H11 UNL     1       9.879   4.804   5.991  1.00  0.00     0.176 HD
ENDBRANCH   6  10
ENDBRANCH   1   4
BRANCH   3  13
HETATM   13  C3  UNL     1      11.066   3.400   1.168  1.00  0.00     0.083 A 
HETATM   14  C4  UNL     1      11.594   2.113   1.015  1.00  0.00     0.141 A 
HETATM   15  N6  UNL     1      11.333   1.685  -0.242  1.00  0.00    -0.295 N 
HETATM   16  N7  UNL     1      10.674   2.646  -0.855  1.00  0.00    -0.243 N 
ATOM     17  H6  UNL     1      11.597   0.785  -0.641  1.00  0.00     0.187 HD
HETATM   18  N8  UNL     1      10.513   3.664  -0.024  1.00  0.00    -0.284 N 
ATOM     19  H7  UNL     1      10.340   2.612  -1.817  1.00  0.00     0.208 HD
ATOM     20  H8  UNL     1      10.033   4.532  -0.259  1.00  0.00     0.188 HD
ENDBRANCH   3  13
TORSDOF 3
ENDMDL
MODEL 4
REMARK VINA RESULT: -4.690750462      2.955      4.256
REMARK  3 active torsions:
REMARK  status: ('A' for Active; 'I' for Inactive)
REMARK    1  A    between atoms: N1_1  and  N2_4 
REMARK       I    between atoms: C1_6  and  N4_8 
REMARK    2  A    between atoms: N4_8  and  N5_10 
REMARK    3  A    between atoms: C2_12  and  C3_13 
ROOT
HETATM    1  N5  UNL     1      12.607   2.711   5.756  1.00  0.00    -0.307 N 
ATOM      2  H5  UNL     1      13.625   2.776   5.766  1.00  0.00     0.186 HD
HETATM    3  C2  UNL     1      11.944   3.481   4.972  1.00  0.00     0.139 C 
ENDROOT
BRANCH   1   4
HETATM    4  N4  UNL     1      11.985   1.792   6.591  1.00  0.00    -0.273 N 
HETATM    5  C1  UNL     1      12.766   0.733   7.124  1.00  0.00     0.221 C 
HETATM    6  N2  UNL     1      13.971   0.492   6.770  1.00  0.00    -0.279 N 
HETATM    7  N3  UNL     1      12.193  -0.116   8.108  1.00  0.00    -0.061 NA
ATOM      8  H2  UNL     1      14.435  -0.297   7.222  1.00  0.00     0.189 HD
ATOM      9  H4  UNL     1      10.993   1.876   6.815  1.00  0.00     0.189 HD
BRANCH   6  10
HETATM   10  N1  UNL     1      14.702   1.191   5.840  1.00  0.00    -0.343 N 
ATOM     11  H12 UNL     1      14.163   1.647   5.104  1.00  0.00     0.176 HD
ATOM     12  H11 UNL     1      15.717   1.292   5.822  1.00  0.00     0.176 HD
ENDBRANCH   6  10
ENDBRANCH   1   4
BRANCH   3  13
HETATM   13  C3  UNL     1      10.495   3.378   4.969  1.00  0.00     0.083 A 
HETATM   14  C4  UNL     1       9.703   2.848   3.944  1.00  0.00     0.141 A 
HETATM   15  N6  UNL     1       8.404   2.929   4.315  1.00  0.00    -0.295 N 
HETATM   16  N7  UNL     1       8.372   3.478   5.511  1.00  0.00    -0.243 N 
ATOM     17  H6  UNL     1       7.600   2.620   3.770  1.00  0.00     0.187 HD
HETATM   18  N8  UNL     1       9.607   3.746   5.902  1.00  0.00    -0.284 N 
ATOM     19  H7  UNL     1       7.527   3.668   6.050  1.00  0.00     0.208 HD
ATOM     20  H8  UNL     1       9.850   4.175   6.795  1.00  0.00     0.188 HD
ENDBRANCH   3  13
TORSDOF 3
ENDMDL
MODEL 5
REMARK VINA RESULT: -4.655189334      1.946      2.265
REMARK  3 active torsions:
REMARK  status: ('A' for Active; 'I' for Inactive)
REMARK    1  A    between atoms: N1_1  and  N2_4 
REMARK       I    between atoms: C1_6  and  N4_8 
REMARK    2  A    between atoms: N4_8  and  N5_10 
REMARK    3  A    between atoms: C2_12  and  C3_13 
ROOT
HETATM    1  N5  UNL     1      13.832   5.259   4.687  1.00  0.00    -0.307 N 
ATOM      2  H5  UNL     1      14.682   5.821   4.659  1.00  0.00     0.186 HD
HETATM    3  C2  UNL     1      13.929   4.000   4.917  1.00  0.00     0.139 C 
ENDROOT
BRANCH   1   4
HETATM    4  N4  UNL     1      12.609   5.881   4.476  1.00  0.00    -0.273 N 
HETATM    5  C1  UNL     1      12.576   7.300   4.434  1.00  0.00     0.221 C 
HETATM    6  N2  UNL     1      13.576   8.043   4.721  1.00  0.00    -0.279 N 
HETATM    7  N3  UNL     1      11.370   7.949   4.054  1.00  0.00    -0.061 NA
ATOM      8  H2  UNL     1      13.435   9.051   4.655  1.00  0.00     0.189 HD
ATOM      9  H4  UNL     1      11.757   5.334   4.353  1.00  0.00     0.189 HD
BRANCH   6  10
HETATM   10  N1  UNL     1      14.824   7.614   5.109  1.00  0.00    -0.343 N 
ATOM     11  H12 UNL     1      15.014   6.622   4.970  1.00  0.00     0.176 HD
ATOM     12  H11 UNL     1      15.561   8.191   5.514  1.00  0.00     0.176 HD
ENDBRANCH   6  10
ENDBRANCH   1   4
BRANCH   3  13
HETATM   13  C3  UNL     1      12.709   3.211   4.955  1.00  0.00     0.083 A 
HETATM   14  C4  UNL     1      12.156   2.487   3.893  1.00  0.00     0.141 A 
HETATM   15  N6  UNL     1      11.022   1.888   4.322  1.00  0.00    -0.295 N 
HETATM   16  N7  UNL     1      10.861   2.212   5.588  1.00  0.00    -0.243 N 
ATOM     17  H6  UNL     1      10.405   1.294   3.768  1.00  0.00     0.187 HD
HETATM   18  N8  UNL     1      11.858   2.995   5.967  1.00  0.00    -0.284 N 
ATOM     19  H7  UNL     1      10.091   1.907   6.182  1.00  0.00     0.208 HD
ATOM     20  H8  UNL     1      11.964   3.383   6.904  1.00  0.00     0.188 HD
ENDBRANCH   3  13
TORSDOF 3
ENDMDL
