MODEL 1
REMARK VINA RESULT: -7.298542302      0.000      0.000
REMARK  1 active torsions:
REMARK  status: ('A' for Active; 'I' for Inactive)
REMARK       I    between atoms: C2_2  and  N1_4 
REMARK    1  A    between atoms: N1_4  and  C3_6 
ROOT
HETATM    1  C3  UNL     1      18.337  10.109  33.344  1.00  0.00     0.152 A 
HETATM    2  N2  UNL     1      18.652  11.207  34.034  1.00  0.00    -0.335 N 
ATOM      3  H2  UNL     1      17.946  11.699  34.581  1.00  0.00     0.168 HD
HETATM    4  C4  UNL     1      19.890  11.639  33.992  1.00  0.00     0.052 A 
HETATM    5  C5  UNL     1      20.410  12.771  34.647  1.00  0.00     0.032 A 
HETATM    6  C6  UNL     1      21.717  13.120  34.530  1.00  0.00     0.014 A 
HETATM    7  C7  UNL     1      22.612  12.408  33.776  1.00  0.00    -0.024 A 
HETATM    8  C8  UNL     1      23.914  12.785  33.680  1.00  0.00     0.024 A 
HETATM    9  C9  UNL     1      24.787  12.020  32.893  1.00  0.00    -0.025 A 
HETATM   10  C10 UNL     1      26.112  12.411  32.800  1.00  0.00     0.012 A 
HETATM   11  C11 UNL     1      26.992  11.671  32.030  1.00  0.00     0.001 A 
HETATM   12  C12 UNL     1      26.532  10.552  31.367  1.00  0.00     0.001 A 
HETATM   13  C13 UNL     1      25.192  10.179  31.477  1.00  0.00     0.012 A 
HETATM   14  C14 UNL     1      24.318  10.911  32.240  1.00  0.00    -0.025 A 
HETATM   15  C15 UNL     1      22.980  10.556  32.363  1.00  0.00     0.026 A 
HETATM   16  C16 UNL     1      22.116  11.297  33.129  1.00  0.00    -0.006 A 
HETATM   17  C17 UNL     1      20.787  10.933  33.242  1.00  0.00     0.046 A 
HETATM   18  S1  UNL     1      19.815   9.672  32.622  1.00  0.00    -0.051 SA
ENDROOT
BRANCH   1  19
HETATM   19  N1  UNL     1      17.227   9.470  33.203  1.00  0.00    -0.307 N 
HETATM   20  C2  UNL     1      17.030   8.400  32.329  1.00  0.00     0.219 C 
HETATM   21  C1  UNL     1      16.299   7.191  32.795  1.00  0.00     0.117 C 
HETATM   22  O1  UNL     1      17.443   8.397  31.141  1.00  0.00    -0.274 OA
ATOM     23  H1  UNL     1      16.434   9.769  33.772  1.00  0.00     0.171 HD
ENDBRANCH   1  19
TORSDOF 1
ENDMDL
MODEL 2
REMARK VINA RESULT: -6.248439108      1.645      2.366
REMARK  1 active torsions:
REMARK  status: ('A' for Active; 'I' for Inactive)
REMARK       I    between atoms: C2_2  and  N1_4 
REMARK    1  A    between atoms: N1_4  and  C3_6 
ROOT
HETATM    1  C3  UNL     1      18.503   9.049  33.548  1.00  0.00     0.152 A 
HETATM    2  N2  UNL     1      19.404   8.309  34.194  1.00  0.00    -0.335 N 
ATOM      3  H2  UNL     1      19.132   7.437  34.650  1.00  0.00     0.168 HD
HETATM    4  C4  UNL     1      20.647   8.725  34.232  1.00  0.00     0.052 A 
HETATM    5  C5  UNL     1      21.732   8.087  34.860  1.00  0.00     0.032 A 
HETATM    6  C6  UNL     1      22.982   8.617  34.829  1.00  0.00     0.014 A 
HETATM    7  C7  UNL     1      23.275   9.795  34.195  1.00  0.00    -0.024 A 
HETATM    8  C8  UNL     1      24.537  10.297  34.183  1.00  0.00     0.024 A 
HETATM    9  C9  UNL     1      24.781  11.508  33.518  1.00  0.00    -0.025 A 
HETATM   10  C10 UNL     1      26.069  12.014  33.510  1.00  0.00     0.012 A 
HETATM   11  C11 UNL     1      26.333  13.206  32.860  1.00  0.00     0.001 A 
HETATM   12  C12 UNL     1      25.304  13.872  32.228  1.00  0.00     0.001 A 
HETATM   13  C13 UNL     1      24.014  13.342  32.250  1.00  0.00     0.012 A 
HETATM   14  C14 UNL     1      23.750  12.159  32.894  1.00  0.00    -0.025 A 
HETATM   15  C15 UNL     1      22.472  11.614  32.927  1.00  0.00     0.026 A 
HETATM   16  C16 UNL     1      22.221  10.431  33.574  1.00  0.00    -0.006 A 
HETATM   17  C17 UNL     1      20.945   9.899  33.600  1.00  0.00     0.046 A 
HETATM   18  S1  UNL     1      19.423  10.362  32.976  1.00  0.00    -0.051 SA
ENDROOT
BRANCH   1  19
HETATM   19  N1  UNL     1      17.239   8.891  33.353  1.00  0.00    -0.307 N 
HETATM   20  C2  UNL     1      16.681   8.156  32.306  1.00  0.00     0.219 C 
HETATM   21  C1  UNL     1      15.555   7.221  32.577  1.00  0.00     0.117 C 
HETATM   22  O1  UNL     1      17.083   8.238  31.117  1.00  0.00    -0.274 OA
ATOM     23  H1  UNL     1      16.600   9.335  34.012  1.00  0.00     0.171 HD
ENDBRANCH   1  19
TORSDOF 1
ENDMDL
MODEL 3
REMARK VINA RESULT: -6.061643834      1.103      1.164
REMARK  1 active torsions:
REMARK  status: ('A' for Active; 'I' for Inactive)
REMARK       I    between atoms: C2_2  and  N1_4 
REMARK    1  A    between atoms: N1_4  and  C3_6 
ROOT
HETATM    1  C3  UNL     1      18.950   8.649  33.263  1.00  0.00     0.152 A 
HETATM    2  N2  UNL     1      18.833   9.838  33.855  1.00  0.00    -0.335 N 
ATOM      3  H2  UNL     1      17.948  10.129  34.272  1.00  0.00     0.168 HD
HETATM    4  C4  UNL     1      19.882  10.626  33.892  1.00  0.00     0.052 A 
HETATM    5  C5  UNL     1      19.955  11.908  34.467  1.00  0.00     0.032 A 
HETATM    6  C6  UNL     1      21.103  12.632  34.444  1.00  0.00     0.014 A 
HETATM    7  C7  UNL     1      22.258  12.176  33.866  1.00  0.00    -0.024 A 
HETATM    8  C8  UNL     1      23.390  12.926  33.860  1.00  0.00     0.024 A 
HETATM    9  C9  UNL     1      24.546  12.410  33.255  1.00  0.00    -0.025 A 
HETATM   10  C10 UNL     1      25.695  13.180  33.253  1.00  0.00     0.012 A 
HETATM   11  C11 UNL     1      26.847  12.692  32.661  1.00  0.00     0.001 A 
HETATM   12  C12 UNL     1      26.828  11.439  32.082  1.00  0.00     0.001 A 
HETATM   13  C13 UNL     1      25.657  10.682  32.098  1.00  0.00     0.012 A 
HETATM   14  C14 UNL     1      24.514  11.165  32.684  1.00  0.00    -0.025 A 
HETATM   15  C15 UNL     1      23.338  10.427  32.710  1.00  0.00     0.026 A 
HETATM   16  C16 UNL     1      22.201  10.920  33.299  1.00  0.00    -0.006 A 
HETATM   17  C17 UNL     1      21.037  10.176  33.317  1.00  0.00     0.046 A 
HETATM   18  S1  UNL     1      20.571   8.634  32.745  1.00  0.00    -0.051 SA
ENDROOT
BRANCH   1  19
HETATM   19  N1  UNL     1      18.106   7.691  33.082  1.00  0.00    -0.307 N 
HETATM   20  C2  UNL     1      16.755   7.868  32.776  1.00  0.00     0.219 C 
HETATM   21  C1  UNL     1      16.125   7.039  31.713  1.00  0.00     0.117 C 
HETATM   22  O1  UNL     1      16.022   8.706  33.358  1.00  0.00    -0.274 OA
ATOM     23  H1  UNL     1      18.450   6.736  33.168  1.00  0.00     0.171 HD
ENDBRANCH   1  19
TORSDOF 1
ENDMDL
MODEL 4
REMARK VINA RESULT: -5.148321502      3.887      7.455
REMARK  1 active torsions:
REMARK  status: ('A' for Active; 'I' for Inactive)
REMARK       I    between atoms: C2_2  and  N1_4 
REMARK    1  A    between atoms: N1_4  and  C3_6 
ROOT
HETATM    1  C3  UNL     1      25.586  11.271  32.060  1.00  0.00     0.152 A 
HETATM    2  N2  UNL     1      24.845  10.949  30.999  1.00  0.00    -0.335 N 
ATOM      3  H2  UNL     1      25.238  10.984  30.058  1.00  0.00     0.168 HD
HETATM    4  C4  UNL     1      23.599  10.585  31.192  1.00  0.00     0.052 A 
HETATM    5  C5  UNL     1      22.667  10.211  30.207  1.00  0.00     0.032 A 
HETATM    6  C6  UNL     1      21.399   9.850  30.531  1.00  0.00     0.014 A 
HETATM    7  C7  UNL     1      20.939   9.825  31.820  1.00  0.00    -0.024 A 
HETATM    8  C8  UNL     1      19.663   9.458  32.110  1.00  0.00     0.024 A 
HETATM    9  C9  UNL     1      19.245   9.450  33.449  1.00  0.00    -0.025 A 
HETATM   10  C10 UNL     1      17.943   9.076  33.735  1.00  0.00     0.012 A 
HETATM   11  C11 UNL     1      17.509   9.060  35.049  1.00  0.00     0.001 A 
HETATM   12  C12 UNL     1      18.384   9.419  36.053  1.00  0.00     0.001 A 
HETATM   13  C13 UNL     1      19.690   9.791  35.738  1.00  0.00     0.012 A 
HETATM   14  C14 UNL     1      20.124   9.808  34.436  1.00  0.00    -0.025 A 
HETATM   15  C15 UNL     1      21.421  10.176  34.102  1.00  0.00     0.026 A 
HETATM   16  C16 UNL     1      21.842  10.188  32.797  1.00  0.00    -0.006 A 
HETATM   17  C17 UNL     1      23.136  10.557  32.477  1.00  0.00     0.046 A 
HETATM   18  S1  UNL     1      24.510  11.057  33.361  1.00  0.00    -0.051 SA
ENDROOT
BRANCH   1  19
HETATM   19  N1  UNL     1      26.811  11.657  32.168  1.00  0.00    -0.307 N 
HETATM   20  C2  UNL     1      27.248  12.700  32.987  1.00  0.00     0.219 C 
HETATM   21  C1  UNL     1      28.468  12.524  33.820  1.00  0.00     0.117 C 
HETATM   22  O1  UNL     1      26.657  13.807  33.065  1.00  0.00    -0.274 OA
ATOM     23  H1  UNL     1      27.513  11.164  31.616  1.00  0.00     0.171 HD
ENDBRANCH   1  19
TORSDOF 1
ENDMDL
MODEL 5
REMARK VINA RESULT: -4.743590461      3.907      7.471
REMARK  1 active torsions:
REMARK  status: ('A' for Active; 'I' for Inactive)
REMARK       I    between atoms: C2_2  and  N1_4 
REMARK    1  A    between atoms: N1_4  and  C3_6 
ROOT
HETATM    1  C3  UNL     1      25.457  12.516  33.290  1.00  0.00     0.152 A 
HETATM    2  N2  UNL     1      25.557  11.189  33.383  1.00  0.00    -0.335 N 
ATOM      3  H2  UNL     1      26.449  10.721  33.218  1.00  0.00     0.168 HD
HETATM    4  C4  UNL     1      24.485  10.499  33.692  1.00  0.00     0.052 A 
HETATM    5  C5  UNL     1      24.392   9.103  33.834  1.00  0.00     0.032 A 
HETATM    6  C6  UNL     1      23.221   8.499  34.160  1.00  0.00     0.014 A 
HETATM    7  C7  UNL     1      22.059   9.193  34.370  1.00  0.00    -0.024 A 
HETATM    8  C8  UNL     1      20.904   8.557  34.695  1.00  0.00     0.024 A 
HETATM    9  C9  UNL     1      19.743   9.318  34.899  1.00  0.00    -0.025 A 
HETATM   10  C10 UNL     1      18.569   8.663  35.229  1.00  0.00     0.012 A 
HETATM   11  C11 UNL     1      17.412   9.393  35.435  1.00  0.00     0.001 A 
HETATM   12  C12 UNL     1      17.449  10.766  35.307  1.00  0.00     0.001 A 
HETATM   13  C13 UNL     1      18.644  11.402  34.973  1.00  0.00     0.012 A 
HETATM   14  C14 UNL     1      19.793  10.681  34.769  1.00  0.00    -0.025 A 
HETATM   15  C15 UNL     1      20.993  11.296  34.436  1.00  0.00     0.026 A 
HETATM   16  C16 UNL     1      22.135  10.563  34.234  1.00  0.00    -0.006 A 
HETATM   17  C17 UNL     1      23.324  11.187  33.902  1.00  0.00     0.046 A 
HETATM   18  S1  UNL     1      23.818  12.803  33.647  1.00  0.00    -0.051 SA
ENDROOT
BRANCH   1  19
HETATM   19  N1  UNL     1      26.324  13.427  33.010  1.00  0.00    -0.307 N 
HETATM   20  C2  UNL     1      26.016  14.682  32.481  1.00  0.00     0.219 C 
HETATM   21  C1  UNL     1      26.669  15.898  33.037  1.00  0.00     0.117 C 
HETATM   22  O1  UNL     1      25.200  14.851  31.540  1.00  0.00    -0.274 OA
ATOM     23  H1  UNL     1      27.305  13.216  33.186  1.00  0.00     0.171 HD
ENDBRANCH   1  19
TORSDOF 1
ENDMDL
