MODEL 1
REMARK VINA RESULT: -7.740747248      0.000      0.000
REMARK  0 active torsions:
REMARK  status: ('A' for Active; 'I' for Inactive)
ROOT
HETATM    1  C1  UNL     1      19.855   5.849  35.029  1.00  0.00     0.018 C 
HETATM    2  C2  UNL     1      20.067   7.013  34.787  1.00  0.00    -0.077 C 
HETATM    3  C3  UNL     1      20.341   8.397  34.505  1.00  0.00     0.030 A 
HETATM    4  C4  UNL     1      21.555   8.784  33.937  1.00  0.00     0.036 A 
HETATM    5  C5  UNL     1      21.761  10.127  33.691  1.00  0.00     0.007 A 
HETATM    6  C6  UNL     1      22.852  10.771  33.145  1.00  0.00     0.004 A 
HETATM    7  C7  UNL     1      24.026  10.193  32.710  1.00  0.00     0.028 C 
HETATM    8  C8  UNL     1      25.123  10.815  32.118  1.00  0.00    -0.007 A 
HETATM    9  C9  UNL     1      26.185  10.122  31.590  1.00  0.00     0.030 A 
HETATM   10  C10 UNL     1      27.104  11.016  31.081  1.00  0.00     0.089 A 
HETATM   11  N1  UNL     1      26.588  12.237  31.307  1.00  0.00    -0.365 N 
ATOM     12  H1  UNL     1      27.039  13.114  31.042  1.00  0.00     0.165 HD
HETATM   13  C11 UNL     1      25.415  12.148  31.920  1.00  0.00     0.042 A 
HETATM   14  C12 UNL     1      24.611  13.228  32.300  1.00  0.00     0.033 C 
HETATM   15  C13 UNL     1      23.284  13.219  32.670  1.00  0.00     0.033 C 
HETATM   16  C14 UNL     1      22.498  12.193  33.130  1.00  0.00     0.044 A 
HETATM   17  N2  UNL     1      21.259  12.298  33.649  1.00  0.00    -0.353 N 
ATOM     18  H2  UNL     1      20.743  13.169  33.767  1.00  0.00     0.166 HD
HETATM   19  C15 UNL     1      20.807  11.075  33.988  1.00  0.00     0.071 A 
HETATM   20  C16 UNL     1      19.602  10.655  34.557  1.00  0.00     0.071 A 
HETATM   21  N3  UNL     1      18.637  11.545  34.866  1.00  0.00    -0.363 N 
ATOM     22  H3  UNL     1      18.808  12.533  34.676  1.00  0.00     0.165 HD
HETATM   23  C17 UNL     1      17.462  11.189  35.413  1.00  0.00     0.088 A 
HETATM   24  C18 UNL     1      17.173   9.869  35.694  1.00  0.00     0.018 A 
HETATM   25  C19 UNL     1      18.151   8.944  35.383  1.00  0.00     0.016 A 
HETATM   26  C20 UNL     1      19.356   9.319  34.820  1.00  0.00     0.012 A 
ENDROOT
TORSDOF 0
ENDMDL
MODEL 2
REMARK VINA RESULT: -7.027909860      2.261      2.715
REMARK  0 active torsions:
REMARK  status: ('A' for Active; 'I' for Inactive)
ROOT
HETATM    1  C1  UNL     1      18.626   8.963  36.871  1.00  0.00     0.018 C 
HETATM    2  C2  UNL     1      19.083   9.074  35.757  1.00  0.00    -0.077 C 
HETATM    3  C3  UNL     1      19.634   9.225  34.438  1.00  0.00     0.030 A 
HETATM    4  C4  UNL     1      20.920   9.736  34.255  1.00  0.00     0.036 A 
HETATM    5  C5  UNL     1      21.395   9.858  32.964  1.00  0.00     0.007 A 
HETATM    6  C6  UNL     1      22.610  10.325  32.508  1.00  0.00     0.004 A 
HETATM    7  C7  UNL     1      23.660  10.793  33.271  1.00  0.00     0.028 C 
HETATM    8  C8  UNL     1      24.910  11.231  32.837  1.00  0.00    -0.007 A 
HETATM    9  C9  UNL     1      25.936  11.542  33.695  1.00  0.00     0.030 A 
HETATM   10  C10 UNL     1      27.035  11.940  32.965  1.00  0.00     0.089 A 
HETATM   11  N1  UNL     1      26.664  11.865  31.675  1.00  0.00    -0.365 N 
ATOM     12  H1  UNL     1      27.265  12.097  30.884  1.00  0.00     0.165 HD
HETATM   13  C11 UNL     1      25.409  11.447  31.570  1.00  0.00     0.042 A 
HETATM   14  C12 UNL     1      24.711  11.258  30.372  1.00  0.00     0.033 C 
HETATM   15  C13 UNL     1      23.535  10.571  30.164  1.00  0.00     0.033 C 
HETATM   16  C14 UNL     1      22.546  10.219  31.048  1.00  0.00     0.044 A 
HETATM   17  N2  UNL     1      21.336   9.711  30.741  1.00  0.00    -0.353 N 
ATOM     18  H2  UNL     1      21.000   9.522  29.797  1.00  0.00     0.166 HD
HETATM   19  C15 UNL     1      20.639   9.491  31.873  1.00  0.00     0.071 A 
HETATM   20  C16 UNL     1      19.356   8.983  32.090  1.00  0.00     0.071 A 
HETATM   21  N3  UNL     1      18.577   8.610  31.054  1.00  0.00    -0.363 N 
ATOM     22  H3  UNL     1      18.946   8.708  30.108  1.00  0.00     0.165 HD
HETATM   23  C17 UNL     1      17.337   8.116  31.212  1.00  0.00     0.088 A 
HETATM   24  C18 UNL     1      16.782   7.961  32.467  1.00  0.00     0.018 A 
HETATM   25  C19 UNL     1      17.568   8.338  33.540  1.00  0.00     0.016 A 
HETATM   26  C20 UNL     1      18.842   8.845  33.367  1.00  0.00     0.012 A 
ENDROOT
TORSDOF 0
ENDMDL
MODEL 3
REMARK VINA RESULT: -5.955880352      1.693      3.148
REMARK  0 active torsions:
REMARK  status: ('A' for Active; 'I' for Inactive)
ROOT
HETATM    1  C1  UNL     1      17.323  13.180  33.698  1.00  0.00     0.018 C 
HETATM    2  C2  UNL     1      18.193  12.363  33.884  1.00  0.00    -0.077 C 
HETATM    3  C3  UNL     1      19.234  11.391  34.083  1.00  0.00     0.030 A 
HETATM    4  C4  UNL     1      20.472  11.530  33.454  1.00  0.00     0.036 A 
HETATM    5  C5  UNL     1      21.432  10.565  33.683  1.00  0.00     0.007 A 
HETATM    6  C6  UNL     1      22.719  10.461  33.196  1.00  0.00     0.004 A 
HETATM    7  C7  UNL     1      23.354  11.332  32.336  1.00  0.00     0.028 C 
HETATM    8  C8  UNL     1      24.664  11.272  31.863  1.00  0.00    -0.007 A 
HETATM    9  C9  UNL     1      25.242  12.273  31.122  1.00  0.00     0.030 A 
HETATM   10  C10 UNL     1      26.536  11.918  30.808  1.00  0.00     0.089 A 
HETATM   11  N1  UNL     1      26.727  10.708  31.362  1.00  0.00    -0.365 N 
ATOM     12  H1  UNL     1      27.596  10.175  31.305  1.00  0.00     0.165 HD
HETATM   13  C11 UNL     1      25.634  10.301  31.994  1.00  0.00     0.042 A 
HETATM   14  C12 UNL     1      25.492   9.088  32.678  1.00  0.00     0.033 C 
HETATM   15  C13 UNL     1      24.518   8.722  33.580  1.00  0.00     0.033 C 
HETATM   16  C14 UNL     1      23.261   9.232  33.782  1.00  0.00     0.044 A 
HETATM   17  N2  UNL     1      22.293   8.704  34.557  1.00  0.00    -0.353 N 
ATOM     18  H2  UNL     1      22.376   7.843  35.097  1.00  0.00     0.166 HD
HETATM   19  C15 UNL     1      21.197   9.486  34.507  1.00  0.00     0.071 A 
HETATM   20  C16 UNL     1      19.948   9.376  35.122  1.00  0.00     0.071 A 
HETATM   21  N3  UNL     1      19.669   8.338  35.937  1.00  0.00    -0.363 N 
ATOM     22  H3  UNL     1      20.392   7.636  36.095  1.00  0.00     0.165 HD
HETATM   23  C17 UNL     1      18.483   8.189  36.552  1.00  0.00     0.088 A 
HETATM   24  C18 UNL     1      17.466   9.106  36.378  1.00  0.00     0.018 A 
HETATM   25  C19 UNL     1      17.735  10.176  35.546  1.00  0.00     0.016 A 
HETATM   26  C20 UNL     1      18.958  10.321  34.919  1.00  0.00     0.012 A 
ENDROOT
TORSDOF 0
ENDMDL
MODEL 4
REMARK VINA RESULT: -5.715743103      1.502      6.694
REMARK  0 active torsions:
REMARK  status: ('A' for Active; 'I' for Inactive)
ROOT
HETATM    1  C1  UNL     1      26.086   7.844  32.960  1.00  0.00     0.018 C 
HETATM    2  C2  UNL     1      25.305   8.761  33.056  1.00  0.00    -0.077 C 
HETATM    3  C3  UNL     1      24.360   9.839  33.164  1.00  0.00     0.030 A 
HETATM    4  C4  UNL     1      23.087   9.623  33.695  1.00  0.00     0.036 A 
HETATM    5  C5  UNL     1      22.223  10.696  33.772  1.00  0.00     0.007 A 
HETATM    6  C6  UNL     1      20.929  10.760  34.247  1.00  0.00     0.004 A 
HETATM    7  C7  UNL     1      20.183   9.723  34.768  1.00  0.00     0.028 C 
HETATM    8  C8  UNL     1      18.892   9.770  35.291  1.00  0.00    -0.007 A 
HETATM    9  C9  UNL     1      18.296   8.702  35.916  1.00  0.00     0.030 A 
HETATM   10  C10 UNL     1      17.028   9.062  36.320  1.00  0.00     0.089 A 
HETATM   11  N1  UNL     1      16.871  10.341  35.935  1.00  0.00    -0.365 N 
ATOM     12  H1  UNL     1      16.028  10.894  36.093  1.00  0.00     0.165 HD
HETATM   13  C11 UNL     1      17.960  10.786  35.323  1.00  0.00     0.042 A 
HETATM   14  C12 UNL     1      18.133  12.072  34.799  1.00  0.00     0.033 C 
HETATM   15  C13 UNL     1      19.301  12.691  34.415  1.00  0.00     0.033 C 
HETATM   16  C14 UNL     1      20.519  12.157  34.078  1.00  0.00     0.044 A 
HETATM   17  N2  UNL     1      21.563  12.812  33.533  1.00  0.00    -0.353 N 
ATOM     18  H2  UNL     1      21.577  13.804  33.299  1.00  0.00     0.166 HD
HETATM   19  C15 UNL     1      22.585  11.955  33.345  1.00  0.00     0.071 A 
HETATM   20  C16 UNL     1      23.866  12.137  32.818  1.00  0.00     0.071 A 
HETATM   21  N3  UNL     1      24.268  13.350  32.386  1.00  0.00    -0.363 N 
ATOM     22  H3  UNL     1      23.615  14.131  32.452  1.00  0.00     0.165 HD
HETATM   23  C17 UNL     1      25.490  13.576  31.873  1.00  0.00     0.088 A 
HETATM   24  C18 UNL     1      26.417  12.560  31.757  1.00  0.00     0.018 A 
HETATM   25  C19 UNL     1      26.021  11.311  32.196  1.00  0.00     0.016 A 
HETATM   26  C20 UNL     1      24.763  11.089  32.723  1.00  0.00     0.012 A 
ENDROOT
TORSDOF 0
ENDMDL
MODEL 5
REMARK VINA RESULT: -5.612490018      1.938      3.318
REMARK  0 active torsions:
REMARK  status: ('A' for Active; 'I' for Inactive)
ROOT
HETATM    1  C1  UNL     1      17.595  12.989  34.589  1.00  0.00     0.018 C 
HETATM    2  C2  UNL     1      18.405  12.176  34.213  1.00  0.00    -0.077 C 
HETATM    3  C3  UNL     1      19.379  11.224  33.751  1.00  0.00     0.030 A 
HETATM    4  C4  UNL     1      20.715  11.592  33.583  1.00  0.00     0.036 A 
HETATM    5  C5  UNL     1      21.603  10.635  33.137  1.00  0.00     0.007 A 
HETATM    6  C6  UNL     1      22.958  10.729  32.889  1.00  0.00     0.004 A 
HETATM    7  C7  UNL     1      23.753  11.846  33.037  1.00  0.00     0.028 C 
HETATM    8  C8  UNL     1      25.128  11.956  32.834  1.00  0.00    -0.007 A 
HETATM    9  C9  UNL     1      25.845  13.083  33.150  1.00  0.00     0.030 A 
HETATM   10  C10 UNL     1      27.172  12.881  32.832  1.00  0.00     0.089 A 
HETATM   11  N1  UNL     1      27.242  11.636  32.330  1.00  0.00    -0.365 N 
ATOM     12  H1  UNL     1      28.100  11.191  32.002  1.00  0.00     0.165 HD
HETATM   13  C11 UNL     1      26.045  11.064  32.319  1.00  0.00     0.042 A 
HETATM   14  C12 UNL     1      25.763   9.772  31.861  1.00  0.00     0.033 C 
HETATM   15  C13 UNL     1      24.633   9.015  32.075  1.00  0.00     0.033 C 
HETATM   16  C14 UNL     1      23.366   9.396  32.436  1.00  0.00     0.044 A 
HETATM   17  N2  UNL     1      22.264   8.621  32.446  1.00  0.00    -0.353 N 
ATOM     18  H2  UNL     1      22.234   7.637  32.179  1.00  0.00     0.166 HD
HETATM   19  C15 UNL     1      21.206   9.345  32.860  1.00  0.00     0.071 A 
HETATM   20  C16 UNL     1      19.862   9.009  33.039  1.00  0.00     0.071 A 
HETATM   21  N3  UNL     1      19.423   7.759  32.781  1.00  0.00    -0.363 N 
ATOM     22  H3  UNL     1      20.095   7.066  32.453  1.00  0.00     0.165 HD
HETATM   23  C17 UNL     1      18.141   7.388  32.938  1.00  0.00     0.088 A 
HETATM   24  C18 UNL     1      17.185   8.280  33.379  1.00  0.00     0.018 A 
HETATM   25  C19 UNL     1      17.618   9.565  33.648  1.00  0.00     0.016 A 
HETATM   26  C20 UNL     1      18.939   9.938  33.484  1.00  0.00     0.012 A 
ENDROOT
TORSDOF 0
ENDMDL
