MODEL 1
REMARK VINA RESULT: -6.905031226      0.000      0.000
REMARK  0 active torsions:
REMARK  status: ('A' for Active; 'I' for Inactive)
ROOT
HETATM    1  C1  UNL     1      21.206  14.220  33.544  1.00  0.00     0.158 C 
HETATM    2  N1  UNL     1      21.537  12.821  33.569  1.00  0.00    -0.328 N 
HETATM    3  C2  UNL     1      22.694  12.407  33.013  1.00  0.00     0.136 A 
HETATM    4  N2  UNL     1      23.718  12.989  32.383  1.00  0.00    -0.340 N 
ATOM      5  H2  UNL     1      23.792  13.990  32.199  1.00  0.00     0.167 HD
HETATM    6  C3  UNL     1      24.633  12.078  32.027  1.00  0.00     0.046 A 
HETATM    7  C4  UNL     1      25.852  12.128  31.371  1.00  0.00     0.030 A 
HETATM    8  C5  UNL     1      26.594  10.987  31.140  1.00  0.00     0.002 A 
HETATM    9  C6  UNL     1      26.120   9.764  31.569  1.00  0.00     0.001 A 
HETATM   10  C7  UNL     1      24.922   9.724  32.213  1.00  0.00     0.016 A 
HETATM   11  C8  UNL     1      24.166  10.862  32.451  1.00  0.00     0.021 A 
HETATM   12  C9  UNL     1      22.944  11.066  33.073  1.00  0.00     0.090 A 
HETATM   13  N3  UNL     1      22.110  10.208  33.640  1.00  0.00    -0.349 N 
ATOM     14  H3  UNL     1      22.354   9.217  33.654  1.00  0.00     0.166 HD
HETATM   15  C10 UNL     1      20.927  10.611  34.212  1.00  0.00     0.079 A 
HETATM   16  C11 UNL     1      19.997   9.827  34.820  1.00  0.00     0.011 A 
HETATM   17  C12 UNL     1      19.998   8.429  35.021  1.00  0.00     0.015 A 
HETATM   18  C13 UNL     1      18.993   7.771  35.651  1.00  0.00     0.001 A 
HETATM   19  C14 UNL     1      17.886   8.441  36.144  1.00  0.00     0.001 A 
HETATM   20  C15 UNL     1      17.847   9.806  35.969  1.00  0.00     0.020 A 
HETATM   21  C16 UNL     1      18.892  10.460  35.317  1.00  0.00     0.019 A 
HETATM   22  S1  UNL     1      19.180  12.099  34.928  1.00  0.00    -0.069 SA
HETATM   23  C17 UNL     1      20.682  11.946  34.150  1.00  0.00     0.106 A 
ENDROOT
TORSDOF 0
ENDMDL
MODEL 2
REMARK VINA RESULT: -6.876993455      1.401      6.263
REMARK  0 active torsions:
REMARK  status: ('A' for Active; 'I' for Inactive)
ROOT
HETATM    1  C1  UNL     1      21.241  14.380  33.673  1.00  0.00     0.158 C 
HETATM    2  N1  UNL     1      21.502  12.967  33.645  1.00  0.00    -0.328 N 
HETATM    3  C2  UNL     1      20.595  12.117  34.171  1.00  0.00     0.136 A 
HETATM    4  N2  UNL     1      19.407  12.234  34.770  1.00  0.00    -0.340 N 
ATOM      5  H2  UNL     1      18.931  13.118  34.948  1.00  0.00     0.167 HD
HETATM    6  C3  UNL     1      18.927  11.029  35.105  1.00  0.00     0.046 A 
HETATM    7  C4  UNL     1      17.774  10.579  35.726  1.00  0.00     0.030 A 
HETATM    8  C5  UNL     1      17.548   9.234  35.942  1.00  0.00     0.002 A 
HETATM    9  C6  UNL     1      18.486   8.309  35.531  1.00  0.00     0.001 A 
HETATM   10  C7  UNL     1      19.615   8.759  34.921  1.00  0.00     0.016 A 
HETATM   11  C8  UNL     1      19.855  10.107  34.699  1.00  0.00     0.021 A 
HETATM   12  C9  UNL     1      20.908  10.790  34.110  1.00  0.00     0.090 A 
HETATM   13  N3  UNL     1      22.032  10.344  33.569  1.00  0.00    -0.349 N 
ATOM     14  H3  UNL     1      22.208   9.339  33.553  1.00  0.00     0.166 HD
HETATM   15  C10 UNL     1      22.967  11.194  33.029  1.00  0.00     0.079 A 
HETATM   16  C11 UNL     1      24.150  10.855  32.450  1.00  0.00     0.011 A 
HETATM   17  C12 UNL     1      24.718   9.576  32.255  1.00  0.00     0.015 A 
HETATM   18  C13 UNL     1      25.919   9.383  31.656  1.00  0.00     0.001 A 
HETATM   19  C14 UNL     1      26.675  10.446  31.191  1.00  0.00     0.001 A 
HETATM   20  C15 UNL     1      26.157  11.709  31.361  1.00  0.00     0.020 A 
HETATM   21  C16 UNL     1      24.920  11.882  31.981  1.00  0.00     0.019 A 
HETATM   22  S1  UNL     1      23.986  13.264  32.354  1.00  0.00    -0.069 SA
HETATM   23  C17 UNL     1      22.652  12.514  33.091  1.00  0.00     0.106 A 
ENDROOT
TORSDOF 0
ENDMDL
MODEL 3
REMARK VINA RESULT: -6.166856909      1.423      1.432
REMARK  0 active torsions:
REMARK  status: ('A' for Active; 'I' for Inactive)
ROOT
HETATM    1  C1  UNL     1      21.966  13.659  35.083  1.00  0.00     0.158 C 
HETATM    2  N1  UNL     1      21.977  12.492  34.244  1.00  0.00    -0.328 N 
HETATM    3  C2  UNL     1      23.105  12.168  33.579  1.00  0.00     0.136 A 
HETATM    4  N2  UNL     1      24.334  12.679  33.470  1.00  0.00    -0.340 N 
ATOM      5  H2  UNL     1      24.657  13.521  33.947  1.00  0.00     0.167 HD
HETATM    6  C3  UNL     1      25.085  11.933  32.648  1.00  0.00     0.046 A 
HETATM    7  C4  UNL     1      26.392  12.000  32.195  1.00  0.00     0.030 A 
HETATM    8  C5  UNL     1      26.902  11.058  31.325  1.00  0.00     0.002 A 
HETATM    9  C6  UNL     1      26.101  10.021  30.892  1.00  0.00     0.001 A 
HETATM   10  C7  UNL     1      24.819   9.962  31.343  1.00  0.00     0.016 A 
HETATM   11  C8  UNL     1      24.293  10.902  32.216  1.00  0.00     0.021 A 
HETATM   12  C9  UNL     1      23.044  11.048  32.801  1.00  0.00     0.090 A 
HETATM   13  N3  UNL     1      21.950  10.309  32.694  1.00  0.00    -0.349 N 
ATOM     14  H3  UNL     1      21.967   9.482  32.097  1.00  0.00     0.166 HD
HETATM   15  C10 UNL     1      20.791  10.623  33.364  1.00  0.00     0.079 A 
HETATM   16  C11 UNL     1      19.613   9.946  33.333  1.00  0.00     0.011 A 
HETATM   17  C12 UNL     1      19.273   8.772  32.624  1.00  0.00     0.015 A 
HETATM   18  C13 UNL     1      18.046   8.199  32.686  1.00  0.00     0.001 A 
HETATM   19  C14 UNL     1      17.033   8.738  33.461  1.00  0.00     0.001 A 
HETATM   20  C15 UNL     1      17.324   9.882  34.168  1.00  0.00     0.020 A 
HETATM   21  C16 UNL     1      18.593  10.454  34.087  1.00  0.00     0.019 A 
HETATM   22  S1  UNL     1      19.297  11.836  34.805  1.00  0.00    -0.069 SA
HETATM   23  C17 UNL     1      20.856  11.739  34.136  1.00  0.00     0.106 A 
ENDROOT
TORSDOF 0
ENDMDL
MODEL 4
REMARK VINA RESULT: -5.474917247      1.843      6.288
REMARK  0 active torsions:
REMARK  status: ('A' for Active; 'I' for Inactive)
ROOT
HETATM    1  C1  UNL     1      21.227  14.007  34.179  1.00  0.00     0.158 C 
HETATM    2  N1  UNL     1      21.443  12.695  33.632  1.00  0.00    -0.328 N 
HETATM    3  C2  UNL     1      20.431  11.803  33.638  1.00  0.00     0.136 A 
HETATM    4  N2  UNL     1      19.161  11.796  34.051  1.00  0.00    -0.340 N 
ATOM      5  H2  UNL     1      18.690  12.586  34.493  1.00  0.00     0.167 HD
HETATM    6  C3  UNL     1      18.590  10.609  33.806  1.00  0.00     0.046 A 
HETATM    7  C4  UNL     1      17.333  10.071  34.020  1.00  0.00     0.030 A 
HETATM    8  C5  UNL     1      17.029   8.776  33.649  1.00  0.00     0.002 A 
HETATM    9  C6  UNL     1      17.994   7.993  33.049  1.00  0.00     0.001 A 
HETATM   10  C7  UNL     1      19.226   8.530  32.841  1.00  0.00     0.016 A 
HETATM   11  C8  UNL     1      19.545   9.828  33.210  1.00  0.00     0.021 A 
HETATM   12  C9  UNL     1      20.706  10.578  33.103  1.00  0.00     0.090 A 
HETATM   13  N3  UNL     1      21.892  10.266  32.602  1.00  0.00    -0.349 N 
ATOM     14  H3  UNL     1      22.035   9.333  32.214  1.00  0.00     0.166 HD
HETATM   15  C10 UNL     1      22.935  11.162  32.587  1.00  0.00     0.079 A 
HETATM   16  C11 UNL     1      24.189  10.957  32.103  1.00  0.00     0.011 A 
HETATM   17  C12 UNL     1      24.740   9.803  31.502  1.00  0.00     0.015 A 
HETATM   18  C13 UNL     1      26.020   9.738  31.061  1.00  0.00     0.001 A 
HETATM   19  C14 UNL     1      26.880  10.817  31.172  1.00  0.00     0.001 A 
HETATM   20  C15 UNL     1      26.381  11.962  31.751  1.00  0.00     0.020 A 
HETATM   21  C16 UNL     1      25.062  12.004  32.199  1.00  0.00     0.019 A 
HETATM   22  S1  UNL     1      24.122  13.221  32.947  1.00  0.00    -0.069 SA
HETATM   23  C17 UNL     1      22.657  12.380  33.121  1.00  0.00     0.106 A 
ENDROOT
TORSDOF 0
ENDMDL
MODEL 5
REMARK VINA RESULT: -5.390555969      0.978      1.269
REMARK  0 active torsions:
REMARK  status: ('A' for Active; 'I' for Inactive)
ROOT
HETATM    1  C1  UNL     1      20.587  13.337  34.128  1.00  0.00     0.158 C 
HETATM    2  N1  UNL     1      21.255  12.092  33.863  1.00  0.00    -0.328 N 
HETATM    3  C2  UNL     1      22.462  12.106  33.262  1.00  0.00     0.136 A 
HETATM    4  N2  UNL     1      23.291  13.045  32.796  1.00  0.00    -0.340 N 
ATOM      5  H2  UNL     1      23.110  14.048  32.831  1.00  0.00     0.167 HD
HETATM    6  C3  UNL     1      24.394  12.487  32.278  1.00  0.00     0.046 A 
HETATM    7  C4  UNL     1      25.543  12.976  31.680  1.00  0.00     0.030 A 
HETATM    8  C5  UNL     1      26.538  12.131  31.231  1.00  0.00     0.002 A 
HETATM    9  C6  UNL     1      26.395  10.767  31.377  1.00  0.00     0.001 A 
HETATM   10  C7  UNL     1      25.263  10.295  31.967  1.00  0.00     0.016 A 
HETATM   11  C8  UNL     1      24.255  11.132  32.422  1.00  0.00     0.021 A 
HETATM   12  C9  UNL     1      23.039  10.889  33.041  1.00  0.00     0.090 A 
HETATM   13  N3  UNL     1      22.461   9.750  33.391  1.00  0.00    -0.349 N 
ATOM     14  H3  UNL     1      22.943   8.871  33.200  1.00  0.00     0.166 HD
HETATM   15  C10 UNL     1      21.232   9.715  34.005  1.00  0.00     0.079 A 
HETATM   16  C11 UNL     1      20.543   8.614  34.408  1.00  0.00     0.011 A 
HETATM   17  C12 UNL     1      20.896   7.250  34.307  1.00  0.00     0.015 A 
HETATM   18  C13 UNL     1      20.105   6.245  34.756  1.00  0.00     0.001 A 
HETATM   19  C14 UNL     1      18.881   6.498  35.351  1.00  0.00     0.001 A 
HETATM   20  C15 UNL     1      18.499   7.816  35.470  1.00  0.00     0.020 A 
HETATM   21  C16 UNL     1      19.330   8.832  34.999  1.00  0.00     0.019 A 
HETATM   22  S1  UNL     1      19.191  10.535  34.976  1.00  0.00    -0.069 SA
HETATM   23  C17 UNL     1      20.661  10.929  34.222  1.00  0.00     0.106 A 
ENDROOT
TORSDOF 0
ENDMDL
