MODEL 1
REMARK VINA RESULT: -7.472235597      0.000      0.000
REMARK  7 active torsions:
REMARK  status: ('A' for Active; 'I' for Inactive)
REMARK    1  A    between atoms: C4_5  and  C5_6 
REMARK    2  A    between atoms: C5_6  and  C6_7 
REMARK    3  A    between atoms: C6_7  and  O1_8 
REMARK    4  A    between atoms: C8_11  and  O2_12 
REMARK    5  A    between atoms: C9_14  and  N2_15 
REMARK       I    between atoms: N2_15  and  C10_17 
REMARK    6  A    between atoms: C10_17  and  O4_19 
REMARK    7  A    between atoms: O4_19  and  C11_20 
ROOT
HETATM    1  C5  UNL     1      -6.838  46.045  40.057  1.00  0.00    -0.008 C 
HETATM    2  C7  UNL     1      -6.450  46.849  38.804  1.00  0.00     0.046 C 
HETATM    3  C8  UNL     1      -7.741  47.341  38.201  1.00  0.00     0.141 C 
HETATM    4  C9  UNL     1      -8.594  47.604  39.404  1.00  0.00     0.116 C 
HETATM    5  C17 UNL     1      -8.207  46.604  40.450  1.00  0.00     0.040 C 
ENDROOT
BRANCH   4   6
HETATM    6  N2  UNL     1      -8.379  48.967  39.838  1.00  0.00    -0.330 N 
HETATM    7  C10 UNL     1      -9.473  49.802  40.191  1.00  0.00     0.361 C 
HETATM    8  O3  UNL     1     -10.676  49.379  40.137  1.00  0.00    -0.238 OA
ATOM      9  H2  UNL     1      -7.429  49.334  39.892  1.00  0.00     0.165 HD
BRANCH   7  10
HETATM   10  O4  UNL     1      -9.314  51.109  40.609  1.00  0.00    -0.299 OA
BRANCH  10  11
HETATM   11  C11 UNL     1      -8.660  51.503  41.770  1.00  0.00     0.133 C 
HETATM   12  C12 UNL     1      -7.585  52.520  41.461  1.00  0.00     0.032 C 
HETATM   13  C13 UNL     1      -6.989  53.096  42.723  1.00  0.00     0.002 C 
HETATM   14  C14 UNL     1      -6.614  52.059  43.727  1.00  0.00     0.000 C 
HETATM   15  C15 UNL     1      -7.631  50.977  43.910  1.00  0.00     0.002 C 
HETATM   16  C16 UNL     1      -8.035  50.394  42.552  1.00  0.00     0.032 C 
ENDBRANCH  10  11
ENDBRANCH   7  10
ENDBRANCH   4   6
BRANCH   3  17
HETATM   17  O2  UNL     1      -8.265  46.388  37.342  1.00  0.00    -0.393 OA
ATOM     18  H2  UNL     1      -8.385  46.756  36.476  1.00  0.00     0.210 HD
ENDBRANCH   3  17
BRANCH   1  19
HETATM   19  C4  UNL     1      -7.008  44.649  39.644  1.00  0.00     0.048 C 
HETATM   20  C3  UNL     1      -6.034  44.002  38.726  1.00  0.00     0.243 C 
HETATM   21  N1  UNL     1      -6.068  42.806  39.550  1.00  0.00    -0.074 N 
HETATM   22  C1  UNL     1      -4.764  42.298  39.853  1.00  0.00     0.272 C 
HETATM   23  C2  UNL     1      -6.893  41.751  38.963  1.00  0.00     0.272 C 
HETATM   24  C18 UNL     1      -6.724  43.551  40.611  1.00  0.00     0.243 C 
ENDBRANCH   1  19
BRANCH   1  25
HETATM   25  C6  UNL     1      -5.841  46.370  41.093  1.00  0.00     0.174 C 
BRANCH  25  26
HETATM   26  O1  UNL     1      -4.835  47.250  40.710  1.00  0.00    -0.400 OA
ATOM     27  H1  UNL     1      -5.122  48.037  40.263  1.00  0.00     0.209 HD
ENDBRANCH  25  26
ENDBRANCH   1  25
TORSDOF 7
ENDMDL
MODEL 2
REMARK VINA RESULT: -7.349980044      1.376      1.793
REMARK  7 active torsions:
REMARK  status: ('A' for Active; 'I' for Inactive)
REMARK    1  A    between atoms: C4_5  and  C5_6 
REMARK    2  A    between atoms: C5_6  and  C6_7 
REMARK    3  A    between atoms: C6_7  and  O1_8 
REMARK    4  A    between atoms: C8_11  and  O2_12 
REMARK    5  A    between atoms: C9_14  and  N2_15 
REMARK       I    between atoms: N2_15  and  C10_17 
REMARK    6  A    between atoms: C10_17  and  O4_19 
REMARK    7  A    between atoms: O4_19  and  C11_20 
ROOT
HETATM    1  C5  UNL     1      -6.316  45.103  40.556  1.00  0.00    -0.008 C 
HETATM    2  C7  UNL     1      -5.699  46.343  39.886  1.00  0.00     0.046 C 
HETATM    3  C8  UNL     1      -6.770  46.918  38.995  1.00  0.00     0.141 C 
HETATM    4  C9  UNL     1      -8.026  46.648  39.764  1.00  0.00     0.116 C 
HETATM    5  C17 UNL     1      -7.823  45.365  40.511  1.00  0.00     0.040 C 
ENDROOT
BRANCH   4   6
HETATM    6  N2  UNL     1      -8.282  47.765  40.647  1.00  0.00    -0.330 N 
HETATM    7  C10 UNL     1      -8.935  48.936  40.174  1.00  0.00     0.361 C 
HETATM    8  O3  UNL     1      -9.316  49.039  38.961  1.00  0.00    -0.238 OA
ATOM      9  H2  UNL     1      -7.989  47.712  41.623  1.00  0.00     0.165 HD
BRANCH   7  10
HETATM   10  O4  UNL     1      -9.198  50.025  40.982  1.00  0.00    -0.299 OA
BRANCH  10  11
HETATM   11  C11 UNL     1      -8.237  50.863  41.533  1.00  0.00     0.133 C 
HETATM   12  C12 UNL     1      -7.827  50.379  42.905  1.00  0.00     0.032 C 
HETATM   13  C13 UNL     1      -6.655  51.167  43.442  1.00  0.00     0.002 C 
HETATM   14  C14 UNL     1      -6.825  52.642  43.312  1.00  0.00     0.000 C 
HETATM   15  C15 UNL     1      -7.373  53.089  41.992  1.00  0.00     0.002 C 
HETATM   16  C16 UNL     1      -8.639  52.297  41.649  1.00  0.00     0.032 C 
ENDBRANCH  10  11
ENDBRANCH   7  10
ENDBRANCH   4   6
BRANCH   3  17
HETATM   17  O2  UNL     1      -6.736  46.314  37.749  1.00  0.00    -0.393 OA
ATOM     18  H2  UNL     1      -6.440  46.931  37.091  1.00  0.00     0.210 HD
ENDBRANCH   3  17
BRANCH   1  19
HETATM   19  C4  UNL     1      -6.020  43.951  39.700  1.00  0.00     0.048 C 
HETATM   20  C3  UNL     1      -5.201  42.817  40.203  1.00  0.00     0.243 C 
HETATM   21  N1  UNL     1      -6.124  41.886  39.577  1.00  0.00    -0.074 N 
HETATM   22  C1  UNL     1      -6.522  40.822  40.448  1.00  0.00     0.272 C 
HETATM   23  C2  UNL     1      -5.600  41.342  38.326  1.00  0.00     0.272 C 
HETATM   24  C18 UNL     1      -7.089  42.958  39.399  1.00  0.00     0.243 C 
ENDBRANCH   1  19
BRANCH   1  25
HETATM   25  C6  UNL     1      -5.844  45.098  41.953  1.00  0.00     0.174 C 
BRANCH  25  26
HETATM   26  O1  UNL     1      -6.814  44.850  42.918  1.00  0.00    -0.400 OA
ATOM     27  H1  UNL     1      -7.038  45.584  43.477  1.00  0.00     0.209 HD
ENDBRANCH  25  26
ENDBRANCH   1  25
TORSDOF 7
ENDMDL
MODEL 3
REMARK VINA RESULT: -7.197022862      2.240      3.653
REMARK  7 active torsions:
REMARK  status: ('A' for Active; 'I' for Inactive)
REMARK    1  A    between atoms: C4_5  and  C5_6 
REMARK    2  A    between atoms: C5_6  and  C6_7 
REMARK    3  A    between atoms: C6_7  and  O1_8 
REMARK    4  A    between atoms: C8_11  and  O2_12 
REMARK    5  A    between atoms: C9_14  and  N2_15 
REMARK       I    between atoms: N2_15  and  C10_17 
REMARK    6  A    between atoms: C10_17  and  O4_19 
REMARK    7  A    between atoms: O4_19  and  C11_20 
ROOT
HETATM    1  C5  UNL     1      -5.959  44.235  39.879  1.00  0.00    -0.008 C 
HETATM    2  C7  UNL     1      -7.228  44.722  40.599  1.00  0.00     0.046 C 
HETATM    3  C8  UNL     1      -6.759  45.500  41.802  1.00  0.00     0.141 C 
HETATM    4  C9  UNL     1      -5.506  46.155  41.310  1.00  0.00     0.116 C 
HETATM    5  C17 UNL     1      -4.877  45.223  40.319  1.00  0.00     0.040 C 
ENDROOT
BRANCH   4   6
HETATM    6  N2  UNL     1      -5.847  47.434  40.725  1.00  0.00    -0.330 N 
HETATM    7  C10 UNL     1      -6.303  48.509  41.534  1.00  0.00     0.361 C 
HETATM    8  O3  UNL     1      -6.425  48.383  42.797  1.00  0.00    -0.238 OA
ATOM      9  H2  UNL     1      -5.759  47.565  39.717  1.00  0.00     0.165 HD
BRANCH   7  10
HETATM   10  O4  UNL     1      -6.640  49.745  41.017  1.00  0.00    -0.299 OA
BRANCH  10  11
HETATM   11  C11 UNL     1      -7.792  50.021  40.292  1.00  0.00     0.133 C 
HETATM   12  C12 UNL     1      -8.653  51.029  41.018  1.00  0.00     0.032 C 
HETATM   13  C13 UNL     1      -9.816  51.480  40.165  1.00  0.00     0.002 C 
HETATM   14  C14 UNL     1     -10.555  50.353  39.528  1.00  0.00     0.000 C 
HETATM   15  C15 UNL     1      -9.679  49.289  38.944  1.00  0.00     0.002 C 
HETATM   16  C16 UNL     1      -8.639  48.833  39.973  1.00  0.00     0.032 C 
ENDBRANCH  10  11
ENDBRANCH   7  10
ENDBRANCH   4   6
BRANCH   3  17
HETATM   17  O2  UNL     1      -6.560  44.649  42.877  1.00  0.00    -0.393 OA
ATOM     18  H2  UNL     1      -7.387  44.456  43.302  1.00  0.00     0.210 HD
ENDBRANCH   3  17
BRANCH   1  19
HETATM   19  C4  UNL     1      -5.629  42.914  40.423  1.00  0.00     0.048 C 
HETATM   20  C3  UNL     1      -6.088  41.674  39.744  1.00  0.00     0.243 C 
HETATM   21  N1  UNL     1      -4.780  41.081  39.967  1.00  0.00    -0.074 N 
HETATM   22  C1  UNL     1      -4.241  40.459  38.795  1.00  0.00     0.272 C 
HETATM   23  C2  UNL     1      -4.781  40.135  41.082  1.00  0.00     0.272 C 
HETATM   24  C18 UNL     1      -4.240  42.388  40.299  1.00  0.00     0.243 C 
ENDBRANCH   1  19
BRANCH   1  25
HETATM   25  C6  UNL     1      -6.214  44.371  38.434  1.00  0.00     0.174 C 
BRANCH  25  26
HETATM   26  O1  UNL     1      -6.338  45.673  37.962  1.00  0.00    -0.400 OA
ATOM     27  H1  UNL     1      -5.726  45.927  37.282  1.00  0.00     0.209 HD
ENDBRANCH  25  26
ENDBRANCH   1  25
TORSDOF 7
ENDMDL
MODEL 4
REMARK VINA RESULT: -7.166541500      3.457      7.745
REMARK  7 active torsions:
REMARK  status: ('A' for Active; 'I' for Inactive)
REMARK    1  A    between atoms: C4_5  and  C5_6 
REMARK    2  A    between atoms: C5_6  and  C6_7 
REMARK    3  A    between atoms: C6_7  and  O1_8 
REMARK    4  A    between atoms: C8_11  and  O2_12 
REMARK    5  A    between atoms: C9_14  and  N2_15 
REMARK       I    between atoms: N2_15  and  C10_17 
REMARK    6  A    between atoms: C10_17  and  O4_19 
REMARK    7  A    between atoms: O4_19  and  C11_20 
ROOT
HETATM    1  C5  UNL     1      -9.084  49.340  40.197  1.00  0.00    -0.008 C 
HETATM    2  C7  UNL     1     -10.598  49.607  40.248  1.00  0.00     0.046 C 
HETATM    3  C8  UNL     1     -10.936  50.366  38.991  1.00  0.00     0.141 C 
HETATM    4  C9  UNL     1     -10.000  49.777  37.981  1.00  0.00     0.116 C 
HETATM    5  C17 UNL     1      -8.744  49.401  38.706  1.00  0.00     0.040 C 
ENDROOT
BRANCH   4   6
HETATM    6  N2  UNL     1     -10.641  48.638  37.361  1.00  0.00    -0.330 N 
HETATM    7  C10 UNL     1     -10.326  48.259  36.028  1.00  0.00     0.361 C 
HETATM    8  O3  UNL     1      -9.471  48.909  35.338  1.00  0.00    -0.238 OA
ATOM      9  H2  UNL     1     -11.328  48.099  37.888  1.00  0.00     0.165 HD
BRANCH   7  10
HETATM   10  O4  UNL     1     -10.913  47.181  35.397  1.00  0.00    -0.299 OA
BRANCH  10  11
HETATM   11  C11 UNL     1     -10.345  45.919  35.274  1.00  0.00     0.133 C 
HETATM   12  C12 UNL     1      -9.984  45.631  33.835  1.00  0.00     0.032 C 
HETATM   13  C13 UNL     1      -9.200  44.346  33.707  1.00  0.00     0.002 C 
HETATM   14  C14 UNL     1      -9.808  43.206  34.451  1.00  0.00     0.000 C 
HETATM   15  C15 UNL     1     -10.295  43.550  35.824  1.00  0.00     0.002 C 
HETATM   16  C16 UNL     1     -11.190  44.793  35.773  1.00  0.00     0.032 C 
ENDBRANCH  10  11
ENDBRANCH   7  10
ENDBRANCH   4   6
BRANCH   3  17
HETATM   17  O2  UNL     1     -10.761  51.726  39.189  1.00  0.00    -0.393 OA
ATOM     18  H2  UNL     1      -9.842  51.925  39.322  1.00  0.00     0.210 HD
ENDBRANCH   3  17
BRANCH   1  19
HETATM   19  C4  UNL     1      -8.421  50.461  40.870  1.00  0.00     0.048 C 
HETATM   20  C3  UNL     1      -8.972  51.027  42.130  1.00  0.00     0.243 C 
HETATM   21  N1  UNL     1      -7.626  51.097  42.674  1.00  0.00    -0.074 N 
HETATM   22  C1  UNL     1      -7.531  50.567  44.001  1.00  0.00     0.272 C 
HETATM   23  C2  UNL     1      -7.081  52.453  42.634  1.00  0.00     0.272 C 
HETATM   24  C18 UNL     1      -7.147  50.234  41.608  1.00  0.00     0.243 C 
ENDBRANCH   1  19
BRANCH   1  25
HETATM   25  C6  UNL     1      -8.877  47.974  40.709  1.00  0.00     0.174 C 
BRANCH  25  26
HETATM   26  O1  UNL     1      -7.992  47.184  39.984  1.00  0.00    -0.400 OA
ATOM     27  H1  UNL     1      -7.509  47.628  39.297  1.00  0.00     0.209 HD
ENDBRANCH  25  26
ENDBRANCH   1  25
TORSDOF 7
ENDMDL
MODEL 5
REMARK VINA RESULT: -7.115995459      2.041      3.556
REMARK  7 active torsions:
REMARK  status: ('A' for Active; 'I' for Inactive)
REMARK    1  A    between atoms: C4_5  and  C5_6 
REMARK    2  A    between atoms: C5_6  and  C6_7 
REMARK    3  A    between atoms: C6_7  and  O1_8 
REMARK    4  A    between atoms: C8_11  and  O2_12 
REMARK    5  A    between atoms: C9_14  and  N2_15 
REMARK       I    between atoms: N2_15  and  C10_17 
REMARK    6  A    between atoms: C10_17  and  O4_19 
REMARK    7  A    between atoms: O4_19  and  C11_20 
ROOT
HETATM    1  C5  UNL     1      -6.674  45.004  40.641  1.00  0.00    -0.008 C 
HETATM    2  C7  UNL     1      -6.557  44.802  42.161  1.00  0.00     0.046 C 
HETATM    3  C8  UNL     1      -5.262  45.451  42.576  1.00  0.00     0.141 C 
HETATM    4  C9  UNL     1      -5.168  46.630  41.656  1.00  0.00     0.116 C 
HETATM    5  C17 UNL     1      -5.806  46.233  40.359  1.00  0.00     0.040 C 
ENDROOT
BRANCH   4   6
HETATM    6  N2  UNL     1      -5.831  47.757  42.274  1.00  0.00    -0.330 N 
HETATM    7  C10 UNL     1      -5.585  49.084  41.828  1.00  0.00     0.361 C 
HETATM    8  O3  UNL     1      -4.776  49.322  40.870  1.00  0.00    -0.238 OA
ATOM      9  H2  UNL     1      -6.483  47.598  43.042  1.00  0.00     0.165 HD
BRANCH   7  10
HETATM   10  O4  UNL     1      -6.194  50.188  42.390  1.00  0.00    -0.299 OA
BRANCH  10  11
HETATM   11  C11 UNL     1      -7.415  50.719  41.990  1.00  0.00     0.133 C 
HETATM   12  C12 UNL     1      -7.912  50.034  40.737  1.00  0.00     0.032 C 
HETATM   13  C13 UNL     1      -9.317  50.466  40.391  1.00  0.00     0.002 C 
HETATM   14  C14 UNL     1      -9.507  51.944  40.426  1.00  0.00     0.000 C 
HETATM   15  C15 UNL     1      -8.878  52.622  41.603  1.00  0.00     0.002 C 
HETATM   16  C16 UNL     1      -7.414  52.192  41.742  1.00  0.00     0.032 C 
ENDBRANCH  10  11
ENDBRANCH   7  10
ENDBRANCH   4   6
BRANCH   3  17
HETATM   17  O2  UNL     1      -4.212  44.557  42.446  1.00  0.00    -0.393 OA
ATOM     18  H2  UNL     1      -4.070  44.094  43.263  1.00  0.00     0.210 HD
ENDBRANCH   3  17
BRANCH   1  19
HETATM   19  C4  UNL     1      -6.053  43.842  39.997  1.00  0.00     0.048 C 
HETATM   20  C3  UNL     1      -6.456  42.460  40.368  1.00  0.00     0.243 C 
HETATM   21  N1  UNL     1      -6.449  42.093  38.962  1.00  0.00    -0.074 N 
HETATM   22  C1  UNL     1      -7.623  41.374  38.566  1.00  0.00     0.272 C 
HETATM   23  C2  UNL     1      -5.251  41.342  38.591  1.00  0.00     0.272 C 
HETATM   24  C18 UNL     1      -6.407  43.497  38.591  1.00  0.00     0.243 C 
ENDBRANCH   1  19
BRANCH   1  25
HETATM   25  C6  UNL     1      -8.089  45.307  40.361  1.00  0.00     0.174 C 
BRANCH  25  26
HETATM   26  O1  UNL     1      -8.557  46.519  40.858  1.00  0.00    -0.400 OA
ATOM     27  H1  UNL     1      -8.102  47.295  40.551  1.00  0.00     0.209 HD
ENDBRANCH  25  26
ENDBRANCH   1  25
TORSDOF 7
ENDMDL
