MODEL 1
REMARK VINA RESULT: -7.213762837      0.000      0.000
REMARK  6 active torsions:
REMARK  status: ('A' for Active; 'I' for Inactive)
REMARK    1  A    between atoms: C2_2  and  C3_3 
REMARK    2  A    between atoms: C6_6  and  O1_7 
REMARK    3  A    between atoms: C9_11  and  O2_12 
REMARK    4  A    between atoms: C13_17  and  O3_18 
REMARK    5  A    between atoms: O3_18  and  C14_19 
REMARK    6  A    between atoms: C14_19  and  C15_20 
ROOT
HETATM    1  C3  UNL     1      -8.587  51.108  41.461  1.00  0.00    -0.009 C 
HETATM    2  C4  UNL     1      -8.170  52.601  41.322  1.00  0.00     0.017 C 
HETATM    3  C5  UNL     1      -7.489  52.932  42.637  1.00  0.00     0.033 C 
HETATM    4  C6  UNL     1      -6.265  52.129  42.888  1.00  0.00     0.118 C 
HETATM    5  C7  UNL     1      -6.295  50.706  42.452  1.00  0.00     0.039 C 
HETATM    6  C8  UNL     1      -7.301  50.398  41.400  1.00  0.00     0.030 C 
HETATM    7  C9  UNL     1      -7.305  48.939  41.057  1.00  0.00     0.124 C 
HETATM    8  C10 UNL     1      -8.064  48.665  39.795  1.00  0.00     0.041 C 
HETATM    9  C11 UNL     1      -8.737  49.895  39.254  1.00  0.00     0.022 C 
HETATM   10  C12 UNL     1      -9.661  49.524  38.171  1.00  0.00     0.011 C 
HETATM   11  C13 UNL     1     -10.870  49.117  38.434  1.00  0.00     0.043 C 
HETATM   12  C16 UNL     1     -11.311  49.030  39.835  1.00  0.00     0.065 C 
HETATM   13  C17 UNL     1     -10.757  50.087  40.729  1.00  0.00     0.017 C 
HETATM   14  C18 UNL     1      -9.460  50.710  40.268  1.00  0.00    -0.025 C 
HETATM   15  C19 UNL     1      -9.843  51.999  39.555  1.00  0.00     0.017 C 
ENDROOT
BRANCH  11  16
HETATM   16  O3  UNL     1     -11.726  48.772  37.393  1.00  0.00    -0.347 OA
BRANCH  16  17
HETATM   17  C14 UNL     1     -11.255  48.162  36.209  1.00  0.00     0.274 C 
BRANCH  17  18
HETATM   18  C15 UNL     1     -12.261  47.185  35.739  1.00  0.00     0.255 C 
HETATM   19  N1  UNL     1     -11.889  45.821  35.607  1.00  0.00    -0.060 NA
HETATM   20  O4  UNL     1     -13.417  47.580  35.469  1.00  0.00    -0.274 OA
ENDBRANCH  17  18
ENDBRANCH  16  17
ENDBRANCH  11  16
BRANCH   7  21
HETATM   21  O2  UNL     1      -7.617  48.070  42.064  1.00  0.00    -0.395 OA
ATOM     22  H2  UNL     1      -8.293  47.428  41.883  1.00  0.00     0.210 HD
ENDBRANCH   7  21
BRANCH   1  23
HETATM   23  C2  UNL     1      -9.381  51.126  42.672  1.00  0.00    -0.026 C 
HETATM   24  C1  UNL     1      -9.241  50.638  43.854  1.00  0.00     0.008 C 
ENDBRANCH   1  23
BRANCH   4  25
HETATM   25  O1  UNL     1      -6.039  52.146  44.284  1.00  0.00    -0.396 OA
ATOM     26  H1  UNL     1      -5.097  52.133  44.412  1.00  0.00     0.210 HD
ENDBRANCH   4  25
TORSDOF 6
ENDMDL
MODEL 2
REMARK VINA RESULT: -7.104448622      1.643      2.863
REMARK  6 active torsions:
REMARK  status: ('A' for Active; 'I' for Inactive)
REMARK    1  A    between atoms: C2_2  and  C3_3 
REMARK    2  A    between atoms: C6_6  and  O1_7 
REMARK    3  A    between atoms: C9_11  and  O2_12 
REMARK    4  A    between atoms: C13_17  and  O3_18 
REMARK    5  A    between atoms: O3_18  and  C14_19 
REMARK    6  A    between atoms: C14_19  and  C15_20 
ROOT
HETATM    1  C3  UNL     1      -8.118  50.171  40.985  1.00  0.00    -0.009 C 
HETATM    2  C4  UNL     1      -7.840  49.307  42.250  1.00  0.00     0.017 C 
HETATM    3  C5  UNL     1      -6.734  50.044  42.982  1.00  0.00     0.033 C 
HETATM    4  C6  UNL     1      -7.126  51.407  43.427  1.00  0.00     0.118 C 
HETATM    5  C7  UNL     1      -8.002  52.186  42.509  1.00  0.00     0.039 C 
HETATM    6  C8  UNL     1      -8.773  51.365  41.538  1.00  0.00     0.030 C 
HETATM    7  C9  UNL     1      -9.585  52.226  40.618  1.00  0.00     0.124 C 
HETATM    8  C10 UNL     1     -10.602  51.429  39.861  1.00  0.00     0.041 C 
HETATM    9  C11 UNL     1     -10.476  49.952  40.114  1.00  0.00     0.022 C 
HETATM   10  C12 UNL     1     -11.320  49.207  39.166  1.00  0.00     0.011 C 
HETATM   11  C13 UNL     1     -10.890  48.923  37.970  1.00  0.00     0.043 C 
HETATM   12  C16 UNL     1      -9.543  49.355  37.567  1.00  0.00     0.065 C 
HETATM   13  C17 UNL     1      -8.528  49.329  38.659  1.00  0.00     0.017 C 
HETATM   14  C18 UNL     1      -9.084  49.425  40.062  1.00  0.00    -0.025 C 
HETATM   15  C19 UNL     1      -9.171  47.996  40.577  1.00  0.00     0.017 C 
ENDROOT
BRANCH  11  16
HETATM   16  O3  UNL     1     -11.707  48.219  37.092  1.00  0.00    -0.347 OA
BRANCH  16  17
HETATM   17  C14 UNL     1     -11.389  48.083  35.722  1.00  0.00     0.274 C 
BRANCH  17  18
HETATM   18  C15 UNL     1     -10.821  46.737  35.492  1.00  0.00     0.255 C 
HETATM   19  N1  UNL     1      -9.511  46.624  34.955  1.00  0.00    -0.060 NA
HETATM   20  O4  UNL     1     -11.504  45.728  35.775  1.00  0.00    -0.274 OA
ENDBRANCH  17  18
ENDBRANCH  16  17
ENDBRANCH  11  16
BRANCH   7  21
HETATM   21  O2  UNL     1      -8.897  53.100  39.825  1.00  0.00    -0.395 OA
ATOM     22  H2  UNL     1      -8.848  54.001  40.121  1.00  0.00     0.210 HD
ENDBRANCH   7  21
BRANCH   1  23
HETATM   23  C2  UNL     1      -6.806  50.246  40.375  1.00  0.00    -0.026 C 
HETATM   24  C1  UNL     1      -5.904  49.386  40.059  1.00  0.00     0.008 C 
ENDBRANCH   1  23
BRANCH   4  25
HETATM   25  O1  UNL     1      -5.931  52.141  43.608  1.00  0.00    -0.396 OA
ATOM     26  H1  UNL     1      -5.773  52.617  42.800  1.00  0.00     0.210 HD
ENDBRANCH   4  25
TORSDOF 6
ENDMDL
MODEL 3
REMARK VINA RESULT: -7.010100503      4.360      6.478
REMARK  6 active torsions:
REMARK  status: ('A' for Active; 'I' for Inactive)
REMARK    1  A    between atoms: C2_2  and  C3_3 
REMARK    2  A    between atoms: C6_6  and  O1_7 
REMARK    3  A    between atoms: C9_11  and  O2_12 
REMARK    4  A    between atoms: C13_17  and  O3_18 
REMARK    5  A    between atoms: O3_18  and  C14_19 
REMARK    6  A    between atoms: C14_19  and  C15_20 
ROOT
HETATM    1  C3  UNL     1      -6.674  48.460  41.639  1.00  0.00    -0.009 C 
HETATM    2  C4  UNL     1      -6.731  49.026  43.087  1.00  0.00     0.017 C 
HETATM    3  C5  UNL     1      -6.862  50.527  42.908  1.00  0.00     0.033 C 
HETATM    4  C6  UNL     1      -8.106  50.931  42.202  1.00  0.00     0.118 C 
HETATM    5  C7  UNL     1      -8.567  50.048  41.095  1.00  0.00     0.039 C 
HETATM    6  C8  UNL     1      -8.048  48.654  41.154  1.00  0.00     0.030 C 
HETATM    7  C9  UNL     1      -8.512  47.849  39.978  1.00  0.00     0.124 C 
HETATM    8  C10 UNL     1      -8.278  46.384  40.179  1.00  0.00     0.041 C 
HETATM    9  C11 UNL     1      -7.526  46.093  41.448  1.00  0.00     0.022 C 
HETATM   10  C12 UNL     1      -7.108  44.682  41.470  1.00  0.00     0.011 C 
HETATM   11  C13 UNL     1      -6.017  44.299  40.871  1.00  0.00     0.043 C 
HETATM   12  C16 UNL     1      -5.197  45.294  40.163  1.00  0.00     0.065 C 
HETATM   13  C17 UNL     1      -5.164  46.642  40.802  1.00  0.00     0.017 C 
HETATM   14  C18 UNL     1      -6.344  46.966  41.689  1.00  0.00    -0.025 C 
HETATM   15  C19 UNL     1      -5.897  46.662  43.110  1.00  0.00     0.017 C 
ENDROOT
BRANCH  11  16
HETATM   16  O3  UNL     1      -5.643  42.960  40.905  1.00  0.00    -0.347 OA
BRANCH  16  17
HETATM   17  C14 UNL     1      -4.947  42.350  39.837  1.00  0.00     0.274 C 
BRANCH  17  18
HETATM   18  C15 UNL     1      -3.607  41.939  40.308  1.00  0.00     0.255 C 
HETATM   19  N1  UNL     1      -2.904  40.932  39.596  1.00  0.00    -0.060 NA
HETATM   20  O4  UNL     1      -3.121  42.488  41.322  1.00  0.00    -0.274 OA
ENDBRANCH  17  18
ENDBRANCH  16  17
ENDBRANCH  11  16
BRANCH   7  21
HETATM   21  O2  UNL     1      -8.126  48.284  38.742  1.00  0.00    -0.395 OA
ATOM     22  H2  UNL     1      -7.424  47.804  38.318  1.00  0.00     0.210 HD
ENDBRANCH   7  21
BRANCH   1  23
HETATM   23  C2  UNL     1      -5.563  49.195  41.070  1.00  0.00    -0.026 C 
HETATM   24  C1  UNL     1      -5.231  49.558  39.881  1.00  0.00     0.008 C 
ENDBRANCH   1  23
BRANCH   4  25
HETATM   25  O1  UNL     1      -7.873  52.215  41.659  1.00  0.00    -0.396 OA
ATOM     26  H1  UNL     1      -7.357  52.094  40.870  1.00  0.00     0.210 HD
ENDBRANCH   4  25
TORSDOF 6
ENDMDL
MODEL 4
REMARK VINA RESULT: -6.889842252      4.038      5.933
REMARK  6 active torsions:
REMARK  status: ('A' for Active; 'I' for Inactive)
REMARK    1  A    between atoms: C2_2  and  C3_3 
REMARK    2  A    between atoms: C6_6  and  O1_7 
REMARK    3  A    between atoms: C9_11  and  O2_12 
REMARK    4  A    between atoms: C13_17  and  O3_18 
REMARK    5  A    between atoms: O3_18  and  C14_19 
REMARK    6  A    between atoms: C14_19  and  C15_20 
ROOT
HETATM    1  C3  UNL     1      -6.669  48.444  41.608  1.00  0.00    -0.009 C 
HETATM    2  C4  UNL     1      -6.674  48.993  43.064  1.00  0.00     0.017 C 
HETATM    3  C5  UNL     1      -6.776  50.499  42.906  1.00  0.00     0.033 C 
HETATM    4  C6  UNL     1      -8.028  50.940  42.239  1.00  0.00     0.118 C 
HETATM    5  C7  UNL     1      -8.538  50.081  41.135  1.00  0.00     0.039 C 
HETATM    6  C8  UNL     1      -8.050  48.676  41.163  1.00  0.00     0.030 C 
HETATM    7  C9  UNL     1      -8.564  47.896  39.990  1.00  0.00     0.124 C 
HETATM    8  C10 UNL     1      -8.358  46.423  40.168  1.00  0.00     0.041 C 
HETATM    9  C11 UNL     1      -7.579  46.099  41.412  1.00  0.00     0.022 C 
HETATM   10  C12 UNL     1      -7.193  44.680  41.406  1.00  0.00     0.011 C 
HETATM   11  C13 UNL     1      -6.128  44.280  40.773  1.00  0.00     0.043 C 
HETATM   12  C16 UNL     1      -5.304  45.265  40.055  1.00  0.00     0.065 C 
HETATM   13  C17 UNL     1      -5.223  46.603  40.709  1.00  0.00     0.017 C 
HETATM   14  C18 UNL     1      -6.372  46.943  41.631  1.00  0.00    -0.025 C 
HETATM   15  C19 UNL     1      -5.894  46.610  43.037  1.00  0.00     0.017 C 
ENDROOT
BRANCH  11  16
HETATM   16  O3  UNL     1      -5.783  42.932  40.781  1.00  0.00    -0.347 OA
BRANCH  16  17
HETATM   17  C14 UNL     1      -5.918  42.118  39.634  1.00  0.00     0.274 C 
BRANCH  17  18
HETATM   18  C15 UNL     1      -6.871  41.027  39.928  1.00  0.00     0.255 C 
HETATM   19  N1  UNL     1      -7.812  40.646  38.936  1.00  0.00    -0.060 NA
HETATM   20  O4  UNL     1      -6.828  40.461  41.043  1.00  0.00    -0.274 OA
ENDBRANCH  17  18
ENDBRANCH  16  17
ENDBRANCH  11  16
BRANCH   7  21
HETATM   21  O2  UNL     1      -8.201  48.337  38.750  1.00  0.00    -0.395 OA
ATOM     22  H2  UNL     1      -8.621  47.921  38.006  1.00  0.00     0.210 HD
ENDBRANCH   7  21
BRANCH   1  23
HETATM   23  C2  UNL     1      -5.557  49.161  41.018  1.00  0.00    -0.026 C 
HETATM   24  C1  UNL     1      -5.259  49.552  39.829  1.00  0.00     0.008 C 
ENDBRANCH   1  23
BRANCH   4  25
HETATM   25  O1  UNL     1      -7.780  52.225  41.705  1.00  0.00    -0.396 OA
ATOM     26  H1  UNL     1      -6.853  52.267  41.502  1.00  0.00     0.210 HD
ENDBRANCH   4  25
TORSDOF 6
ENDMDL
MODEL 5
REMARK VINA RESULT: -6.605826377      5.036      7.373
REMARK  6 active torsions:
REMARK  status: ('A' for Active; 'I' for Inactive)
REMARK    1  A    between atoms: C2_2  and  C3_3 
REMARK    2  A    between atoms: C6_6  and  O1_7 
REMARK    3  A    between atoms: C9_11  and  O2_12 
REMARK    4  A    between atoms: C13_17  and  O3_18 
REMARK    5  A    between atoms: O3_18  and  C14_19 
REMARK    6  A    between atoms: C14_19  and  C15_20 
ROOT
HETATM    1  C3  UNL     1      -6.701  47.557  40.892  1.00  0.00    -0.009 C 
HETATM    2  C4  UNL     1      -7.412  48.051  42.186  1.00  0.00     0.017 C 
HETATM    3  C5  UNL     1      -7.793  49.489  41.888  1.00  0.00     0.033 C 
HETATM    4  C6  UNL     1      -8.743  49.627  40.754  1.00  0.00     0.118 C 
HETATM    5  C7  UNL     1      -8.556  48.698  39.606  1.00  0.00     0.039 C 
HETATM    6  C8  UNL     1      -7.805  47.454  39.927  1.00  0.00     0.030 C 
HETATM    7  C9  UNL     1      -7.612  46.602  38.709  1.00  0.00     0.124 C 
HETATM    8  C10 UNL     1      -7.155  45.220  39.062  1.00  0.00     0.041 C 
HETATM    9  C11 UNL     1      -6.881  45.066  40.532  1.00  0.00     0.022 C 
HETATM   10  C12 UNL     1      -6.203  43.785  40.784  1.00  0.00     0.011 C 
HETATM   11  C13 UNL     1      -4.913  43.674  40.649  1.00  0.00     0.043 C 
HETATM   12  C16 UNL     1      -4.128  44.848  40.238  1.00  0.00     0.065 C 
HETATM   13  C17 UNL     1      -4.630  46.149  40.769  1.00  0.00     0.017 C 
HETATM   14  C18 UNL     1      -6.095  46.174  41.142  1.00  0.00    -0.025 C 
HETATM   15  C19 UNL     1      -6.150  45.933  42.643  1.00  0.00     0.017 C 
ENDROOT
BRANCH  11  16
HETATM   16  O3  UNL     1      -4.295  42.452  40.892  1.00  0.00    -0.347 OA
BRANCH  16  17
HETATM   17  C14 UNL     1      -2.907  42.352  41.137  1.00  0.00     0.274 C 
BRANCH  17  18
HETATM   18  C15 UNL     1      -2.310  41.428  40.149  1.00  0.00     0.255 C 
HETATM   19  N1  UNL     1      -3.166  40.663  39.315  1.00  0.00    -0.060 NA
HETATM   20  O4  UNL     1      -1.065  41.342  40.067  1.00  0.00    -0.274 OA
ENDBRANCH  17  18
ENDBRANCH  16  17
ENDBRANCH  11  16
BRANCH   7  21
HETATM   21  O2  UNL     1      -6.902  47.150  37.679  1.00  0.00    -0.395 OA
ATOM     22  H2  UNL     1      -6.134  46.673  37.386  1.00  0.00     0.210 HD
ENDBRANCH   7  21
BRANCH   1  23
HETATM   23  C2  UNL     1      -5.648  48.539  40.732  1.00  0.00    -0.026 C 
HETATM   24  C1  UNL     1      -5.270  49.313  39.777  1.00  0.00     0.008 C 
ENDBRANCH   1  23
BRANCH   4  25
HETATM   25  O1  UNL     1      -8.613  50.947  40.264  1.00  0.00    -0.396 OA
ATOM     26  H1  UNL     1      -7.704  51.060  40.012  1.00  0.00     0.210 HD
ENDBRANCH   4  25
TORSDOF 6
ENDMDL
