MODEL 1
REMARK VINA RESULT: -6.906966683      0.000      0.000
REMARK  4 active torsions:
REMARK  status: ('A' for Active; 'I' for Inactive)
REMARK    1  A    between atoms: C2_2  and  C3_3 
REMARK    2  A    between atoms: C3_3  and  C4_4 
REMARK    3  A    between atoms: C9_9  and  C10_10 
REMARK    4  A    between atoms: C10_10  and  O1_11 
ROOT
HETATM    1  C4  UNL     1      -8.018  48.884  40.380  1.00  0.00    -0.004 C 
HETATM    2  C5  UNL     1      -8.725  47.698  40.839  1.00  0.00     0.019 C 
HETATM    3  C6  UNL     1      -8.081  46.448  41.221  1.00  0.00    -0.013 C 
HETATM    4  C7  UNL     1      -8.056  45.421  40.070  1.00  0.00     0.005 C 
HETATM    5  C8  UNL     1      -6.690  45.572  39.487  1.00  0.00     0.012 C 
HETATM    6  C9  UNL     1      -5.898  46.495  40.426  1.00  0.00    -0.015 C 
HETATM    7  C11 UNL     1      -6.695  46.368  41.682  1.00  0.00     0.016 C 
HETATM    8  C12 UNL     1      -5.807  47.808  39.804  1.00  0.00     0.053 C 
HETATM    9  C13 UNL     1      -6.534  48.936  40.421  1.00  0.00     0.005 C 
HETATM   10  C14 UNL     1      -5.954  49.398  41.716  1.00  0.00     0.286 C 
HETATM   11  O2  UNL     1      -4.700  49.426  41.790  1.00  0.00    -0.260 OA
HETATM   12  O3  UNL     1      -6.679  49.783  42.799  1.00  0.00    -0.310 OA
HETATM   13  C15 UNL     1      -8.082  49.833  42.687  1.00  0.00     0.163 C 
HETATM   14  C16 UNL     1      -8.564  51.107  43.404  1.00  0.00     0.265 C 
HETATM   15  N1  UNL     1      -7.555  52.072  43.067  1.00  0.00    -0.073 N 
ATOM     16  H11 UNL     1      -6.648  51.779  43.431  1.00  0.00     0.277 HD
ATOM     17  H12 UNL     1      -7.691  52.929  43.603  1.00  0.00     0.277 HD
HETATM   18  C17 UNL     1      -7.458  52.368  41.688  1.00  0.00     0.233 C 
HETATM   19  C18 UNL     1      -8.107  51.405  40.735  1.00  0.00     0.036 C 
HETATM   20  C19 UNL     1      -8.480  50.089  41.226  1.00  0.00     0.031 C 
ENDROOT
BRANCH   1  21
HETATM   21  C3  UNL     1      -8.403  49.192  38.942  1.00  0.00     0.014 C 
BRANCH  21  22
HETATM   22  C2  UNL     1      -9.757  48.731  38.534  1.00  0.00    -0.004 C 
HETATM   23  C1  UNL     1     -10.751  49.911  38.558  1.00  0.00     0.005 C 
ENDBRANCH  21  22
ENDBRANCH   1  21
BRANCH   6  24
HETATM   24  C10 UNL     1      -4.534  45.850  40.604  1.00  0.00     0.173 C 
BRANCH  24  25
HETATM   25  O1  UNL     1      -4.087  46.189  41.884  1.00  0.00    -0.400 OA
ATOM     26  H1  UNL     1      -3.186  46.476  41.796  1.00  0.00     0.209 HD
ENDBRANCH  24  25
ENDBRANCH   6  24
TORSDOF 4
ENDMDL
MODEL 2
REMARK VINA RESULT: -6.106803299      7.643      9.662
REMARK  4 active torsions:
REMARK  status: ('A' for Active; 'I' for Inactive)
REMARK    1  A    between atoms: C2_2  and  C3_3 
REMARK    2  A    between atoms: C3_3  and  C4_4 
REMARK    3  A    between atoms: C9_9  and  C10_10 
REMARK    4  A    between atoms: C10_10  and  O1_11 
ROOT
HETATM    1  C4  UNL     1     -12.336  45.777  34.782  1.00  0.00    -0.004 C 
HETATM    2  C5  UNL     1     -11.450  45.325  33.720  1.00  0.00     0.019 C 
HETATM    3  C6  UNL     1     -10.931  43.969  33.596  1.00  0.00    -0.013 C 
HETATM    4  C7  UNL     1      -9.521  43.820  34.203  1.00  0.00     0.005 C 
HETATM    5  C8  UNL     1      -9.776  43.253  35.561  1.00  0.00     0.012 C 
HETATM    6  C9  UNL     1     -11.267  42.886  35.624  1.00  0.00    -0.015 C 
HETATM    7  C11 UNL     1     -11.596  42.800  34.171  1.00  0.00     0.016 C 
HETATM    8  C12 UNL     1     -11.950  43.895  36.422  1.00  0.00     0.053 C 
HETATM    9  C13 UNL     1     -12.902  44.803  35.751  1.00  0.00     0.005 C 
HETATM   10  C14 UNL     1     -14.169  44.143  35.317  1.00  0.00     0.286 C 
HETATM   11  O2  UNL     1     -14.656  43.294  36.103  1.00  0.00    -0.260 OA
HETATM   12  O3  UNL     1     -14.815  44.396  34.149  1.00  0.00    -0.310 OA
HETATM   13  C15 UNL     1     -14.316  45.409  33.307  1.00  0.00     0.163 C 
HETATM   14  C16 UNL     1     -15.518  46.199  32.760  1.00  0.00     0.265 C 
HETATM   15  N1  UNL     1     -16.406  46.262  33.887  1.00  0.00    -0.073 N 
ATOM     16  H11 UNL     1     -16.693  45.323  34.165  1.00  0.00     0.277 HD
ATOM     17  H12 UNL     1     -17.309  46.645  33.606  1.00  0.00     0.277 HD
HETATM   18  C17 UNL     1     -15.899  46.970  35.001  1.00  0.00     0.233 C 
HETATM   19  C18 UNL     1     -14.418  47.222  35.034  1.00  0.00     0.036 C 
HETATM   20  C19 UNL     1     -13.565  46.456  34.141  1.00  0.00     0.031 C 
ENDROOT
BRANCH   1  21
HETATM   21  C3  UNL     1     -11.642  46.838  35.620  1.00  0.00     0.014 C 
BRANCH  21  22
HETATM   22  C2  UNL     1     -10.300  47.255  35.132  1.00  0.00    -0.004 C 
HETATM   23  C1  UNL     1      -9.234  46.988  36.215  1.00  0.00     0.005 C 
ENDBRANCH  21  22
ENDBRANCH   1  21
BRANCH   6  24
HETATM   24  C10 UNL     1     -11.338  41.509  36.260  1.00  0.00     0.173 C 
BRANCH  24  25
HETATM   25  O1  UNL     1     -12.321  41.569  37.252  1.00  0.00    -0.400 OA
ATOM     26  H1  UNL     1     -12.440  40.684  37.578  1.00  0.00     0.209 HD
ENDBRANCH  24  25
ENDBRANCH   6  24
TORSDOF 4
ENDMDL
MODEL 3
REMARK VINA RESULT: -5.647857477      1.384      1.739
REMARK  4 active torsions:
REMARK  status: ('A' for Active; 'I' for Inactive)
REMARK    1  A    between atoms: C2_2  and  C3_3 
REMARK    2  A    between atoms: C3_3  and  C4_4 
REMARK    3  A    between atoms: C9_9  and  C10_10 
REMARK    4  A    between atoms: C10_10  and  O1_11 
ROOT
HETATM    1  C4  UNL     1      -7.464  47.490  40.058  1.00  0.00    -0.004 C 
HETATM    2  C5  UNL     1      -8.190  46.363  40.623  1.00  0.00     0.019 C 
HETATM    3  C6  UNL     1      -7.593  45.334  41.465  1.00  0.00    -0.013 C 
HETATM    4  C7  UNL     1      -7.189  44.078  40.665  1.00  0.00     0.005 C 
HETATM    5  C8  UNL     1      -5.729  44.267  40.418  1.00  0.00     0.012 C 
HETATM    6  C9  UNL     1      -5.284  45.481  41.249  1.00  0.00    -0.015 C 
HETATM    7  C11 UNL     1      -6.382  45.548  42.257  1.00  0.00     0.016 C 
HETATM    8  C12 UNL     1      -5.114  46.611  40.348  1.00  0.00     0.053 C 
HETATM    9  C13 UNL     1      -6.054  47.746  40.449  1.00  0.00     0.005 C 
HETATM   10  C14 UNL     1      -5.879  48.572  41.680  1.00  0.00     0.286 C 
HETATM   11  O2  UNL     1      -4.698  48.782  42.051  1.00  0.00    -0.260 OA
HETATM   12  O3  UNL     1      -6.895  49.101  42.411  1.00  0.00    -0.310 OA
HETATM   13  C15 UNL     1      -8.215  48.938  41.948  1.00  0.00     0.163 C 
HETATM   14  C16 UNL     1      -8.956  50.269  42.165  1.00  0.00     0.265 C 
HETATM   15  N1  UNL     1      -7.959  51.253  41.847  1.00  0.00    -0.073 N 
ATOM     16  H11 UNL     1      -7.168  51.176  42.486  1.00  0.00     0.277 HD
ATOM     17  H12 UNL     1      -8.291  52.186  42.090  1.00  0.00     0.277 HD
HETATM   18  C17 UNL     1      -7.510  51.227  40.506  1.00  0.00     0.233 C 
HETATM   19  C18 UNL     1      -7.811  49.990  39.709  1.00  0.00     0.036 C 
HETATM   20  C19 UNL     1      -8.217  48.789  40.420  1.00  0.00     0.031 C 
ENDROOT
BRANCH   1  21
HETATM   21  C3  UNL     1      -7.463  47.399  38.541  1.00  0.00     0.014 C 
BRANCH  21  22
HETATM   22  C2  UNL     1      -8.233  46.259  37.973  1.00  0.00    -0.004 C 
HETATM   23  C1  UNL     1      -8.951  46.696  36.679  1.00  0.00     0.005 C 
ENDBRANCH  21  22
ENDBRANCH   1  21
BRANCH   6  24
HETATM   24  C10 UNL     1      -3.981  45.082  41.919  1.00  0.00     0.173 C 
BRANCH  24  25
HETATM   25  O1  UNL     1      -3.711  46.048  42.893  1.00  0.00    -0.400 OA
ATOM     26  H1  UNL     1      -3.183  46.720  42.477  1.00  0.00     0.209 HD
ENDBRANCH  24  25
ENDBRANCH   6  24
TORSDOF 4
ENDMDL
MODEL 4
REMARK VINA RESULT: -5.597984177      2.916      5.131
REMARK  4 active torsions:
REMARK  status: ('A' for Active; 'I' for Inactive)
REMARK    1  A    between atoms: C2_2  and  C3_3 
REMARK    2  A    between atoms: C3_3  and  C4_4 
REMARK    3  A    between atoms: C9_9  and  C10_10 
REMARK    4  A    between atoms: C10_10  and  O1_11 
ROOT
HETATM    1  C4  UNL     1      -7.734  48.551  40.352  1.00  0.00    -0.004 C 
HETATM    2  C5  UNL     1      -9.064  48.892  40.832  1.00  0.00     0.019 C 
HETATM    3  C6  UNL     1     -10.262  48.917  40.002  1.00  0.00    -0.013 C 
HETATM    4  C7  UNL     1     -10.591  50.333  39.485  1.00  0.00     0.005 C 
HETATM    5  C8  UNL     1     -10.024  50.348  38.104  1.00  0.00     0.012 C 
HETATM    6  C9  UNL     1      -9.592  48.910  37.777  1.00  0.00    -0.015 C 
HETATM    7  C11 UNL     1     -10.400  48.142  38.770  1.00  0.00     0.016 C 
HETATM    8  C12 UNL     1      -8.141  48.838  37.876  1.00  0.00     0.053 C 
HETATM    9  C13 UNL     1      -7.544  48.043  38.968  1.00  0.00     0.005 C 
HETATM   10  C14 UNL     1      -7.706  46.569  38.807  1.00  0.00     0.286 C 
HETATM   11  O2  UNL     1      -7.579  46.115  37.644  1.00  0.00    -0.260 OA
HETATM   12  O3  UNL     1      -7.979  45.703  39.819  1.00  0.00    -0.310 OA
HETATM   13  C15 UNL     1      -8.037  46.201  41.135  1.00  0.00     0.163 C 
HETATM   14  C16 UNL     1      -7.335  45.184  42.052  1.00  0.00     0.265 C 
HETATM   15  N1  UNL     1      -6.221  44.744  41.258  1.00  0.00    -0.073 N 
ATOM     16  H11 UNL     1      -6.551  44.289  40.407  1.00  0.00     0.277 HD
ATOM     17  H12 UNL     1      -5.754  43.957  41.708  1.00  0.00     0.277 HD
HETATM   18  C17 UNL     1      -5.285  45.755  40.942  1.00  0.00     0.233 C 
HETATM   19  C18 UNL     1      -5.730  47.178  41.120  1.00  0.00     0.036 C 
HETATM   20  C19 UNL     1      -7.151  47.448  41.261  1.00  0.00     0.031 C 
ENDROOT
BRANCH   1  21
HETATM   21  C3  UNL     1      -6.812  49.752  40.483  1.00  0.00     0.014 C 
BRANCH  21  22
HETATM   22  C2  UNL     1      -7.314  50.845  41.358  1.00  0.00    -0.004 C 
HETATM   23  C1  UNL     1      -6.597  50.803  42.724  1.00  0.00     0.005 C 
ENDBRANCH  21  22
ENDBRANCH   1  21
BRANCH   6  24
HETATM   24  C10 UNL     1     -10.085  48.628  36.369  1.00  0.00     0.173 C 
BRANCH  24  25
HETATM   25  O1  UNL     1      -9.094  47.873  35.734  1.00  0.00    -0.400 OA
ATOM     26  H1  UNL     1      -9.296  46.959  35.896  1.00  0.00     0.209 HD
ENDBRANCH  24  25
ENDBRANCH   6  24
TORSDOF 4
ENDMDL
MODEL 5
REMARK VINA RESULT: -5.546962653      1.548      2.362
REMARK  4 active torsions:
REMARK  status: ('A' for Active; 'I' for Inactive)
REMARK    1  A    between atoms: C2_2  and  C3_3 
REMARK    2  A    between atoms: C3_3  and  C4_4 
REMARK    3  A    between atoms: C9_9  and  C10_10 
REMARK    4  A    between atoms: C10_10  and  O1_11 
ROOT
HETATM    1  C4  UNL     1      -8.385  50.704  41.048  1.00  0.00    -0.004 C 
HETATM    2  C5  UNL     1      -9.560  49.850  40.970  1.00  0.00     0.019 C 
HETATM    3  C6  UNL     1      -9.555  48.481  40.469  1.00  0.00    -0.013 C 
HETATM    4  C7  UNL     1      -9.965  48.394  38.984  1.00  0.00     0.005 C 
HETATM    5  C8  UNL     1      -8.662  48.322  38.259  1.00  0.00     0.012 C 
HETATM    6  C9  UNL     1      -7.564  48.146  39.319  1.00  0.00    -0.015 C 
HETATM    7  C11 UNL     1      -8.365  47.632  40.469  1.00  0.00     0.016 C 
HETATM    8  C12 UNL     1      -6.879  49.420  39.479  1.00  0.00     0.053 C 
HETATM    9  C13 UNL     1      -7.037  50.155  40.751  1.00  0.00     0.005 C 
HETATM   10  C14 UNL     1      -6.344  49.521  41.910  1.00  0.00     0.286 C 
HETATM   11  O2  UNL     1      -5.214  49.023  41.683  1.00  0.00    -0.260 OA
HETATM   12  O3  UNL     1      -6.846  49.449  43.171  1.00  0.00    -0.310 OA
HETATM   13  C15 UNL     1      -8.074  50.082  43.445  1.00  0.00     0.163 C 
HETATM   14  C16 UNL     1      -7.951  50.771  44.815  1.00  0.00     0.265 C 
HETATM   15  N1  UNL     1      -6.608  51.281  44.804  1.00  0.00    -0.073 N 
ATOM     16  H11 UNL     1      -5.939  50.515  44.728  1.00  0.00     0.277 HD
ATOM     17  H12 UNL     1      -6.358  51.642  45.725  1.00  0.00     0.277 HD
HETATM   18  C17 UNL     1      -6.354  52.255  43.811  1.00  0.00     0.233 C 
HETATM   19  C18 UNL     1      -7.342  52.355  42.684  1.00  0.00     0.036 C 
HETATM   20  C19 UNL     1      -8.278  51.261  42.483  1.00  0.00     0.031 C 
ENDROOT
BRANCH   1  21
HETATM   21  C3  UNL     1      -8.555  51.904  40.130  1.00  0.00     0.014 C 
BRANCH  21  22
HETATM   22  C2  UNL     1      -9.944  52.424  40.015  1.00  0.00    -0.004 C 
HETATM   23  C1  UNL     1     -10.656  51.778  38.809  1.00  0.00     0.005 C 
ENDBRANCH  21  22
ENDBRANCH   1  21
BRANCH   6  24
HETATM   24  C10 UNL     1      -6.640  47.060  38.796  1.00  0.00     0.173 C 
BRANCH  24  25
HETATM   25  O1  UNL     1      -5.803  46.693  39.854  1.00  0.00    -0.400 OA
ATOM     26  H1  UNL     1      -5.945  45.767  40.012  1.00  0.00     0.209 HD
ENDBRANCH  24  25
ENDBRANCH   6  24
TORSDOF 4
ENDMDL
