MODEL 1
REMARK VINA RESULT: -7.546320054      0.000      0.000
REMARK  4 active torsions:
REMARK  status: ('A' for Active; 'I' for Inactive)
REMARK    1  A    between atoms: C2_2  and  N1_4 
REMARK    2  A    between atoms: N1_4  and  C4_5 
REMARK       I    between atoms: N1_4  and  C12_14 
REMARK    3  A    between atoms: C4_5  and  C5_6 
REMARK       I    between atoms: C12_14  and  N2_16 
REMARK    4  A    between atoms: N2_16  and  C13_18 
ROOT
HETATM    1  N1  UNL     1      -6.926  50.340  41.968  1.00  0.00    -0.330 N 
HETATM    2  C12 UNL     1      -6.340  49.146  41.489  1.00  0.00     0.320 C 
HETATM    3  O2  UNL     1      -6.452  48.929  40.235  1.00  0.00    -0.247 OA
HETATM    4  N2  UNL     1      -5.651  48.175  42.241  1.00  0.00    -0.313 N 
ATOM      5  H2  UNL     1      -5.536  48.301  43.246  1.00  0.00     0.167 HD
ENDROOT
BRANCH   1   6
HETATM    6  C2  UNL     1      -6.857  50.695  43.355  1.00  0.00     0.080 C 
HETATM    7  C1  UNL     1      -6.605  52.210  43.427  1.00  0.00     0.032 C 
HETATM    8  C3  UNL     1      -8.059  50.396  44.174  1.00  0.00     0.032 C 
ENDBRANCH   1   6
BRANCH   1   9
HETATM    9  C4  UNL     1      -7.651  51.179  41.053  1.00  0.00     0.134 C 
BRANCH   9  10
HETATM   10  C5  UNL     1      -9.061  50.786  40.812  1.00  0.00     0.028 C 
HETATM   11  C6  UNL     1      -9.955  52.006  40.625  1.00  0.00     0.173 C 
HETATM   12  O1  UNL     1     -10.095  52.334  39.288  1.00  0.00    -0.390 OA
HETATM   13  C7  UNL     1     -10.941  51.432  38.629  1.00  0.00     0.176 C 
HETATM   14  C8  UNL     1     -10.638  50.034  39.062  1.00  0.00    -0.026 C 
HETATM   15  C9  UNL     1     -10.687  49.065  37.873  1.00  0.00     0.017 C 
HETATM   16  C10 UNL     1     -11.642  49.569  40.074  1.00  0.00     0.017 C 
HETATM   17  C11 UNL     1      -9.218  49.926  39.611  1.00  0.00     0.019 C 
ENDBRANCH   9  10
ENDBRANCH   1   9
BRANCH   4  18
HETATM   18  C13 UNL     1      -5.109  47.010  41.606  1.00  0.00     0.251 C 
HETATM   19  N3  UNL     1      -6.095  46.372  40.749  1.00  0.00    -0.350 N 
HETATM   20  C14 UNL     1      -7.075  45.668  41.441  1.00  0.00     0.082 C 
ATOM     21  H3  UNL     1      -6.070  46.435  39.731  1.00  0.00     0.163 HD
HETATM   22  N4  UNL     1      -8.325  45.623  41.155  1.00  0.00    -0.388 N 
HETATM   23  C15 UNL     1      -6.555  44.907  42.617  1.00  0.00     0.153 C 
ATOM     24  H42 UNL     1      -8.680  46.142  40.352  1.00  0.00     0.157 HD
ATOM     25  H41 UNL     1      -9.043  45.106  41.662  1.00  0.00     0.157 HD
HETATM   26  S1  UNL     1      -4.925  45.672  42.856  1.00  0.00    -0.116 SA
ENDBRANCH   4  18
TORSDOF 4
ENDMDL
MODEL 2
REMARK VINA RESULT: -7.191351544      3.875      6.159
REMARK  4 active torsions:
REMARK  status: ('A' for Active; 'I' for Inactive)
REMARK    1  A    between atoms: C2_2  and  N1_4 
REMARK    2  A    between atoms: N1_4  and  C4_5 
REMARK       I    between atoms: N1_4  and  C12_14 
REMARK    3  A    between atoms: C4_5  and  C5_6 
REMARK       I    between atoms: C12_14  and  N2_16 
REMARK    4  A    between atoms: N2_16  and  C13_18 
ROOT
HETATM    1  N1  UNL     1      -9.375  49.126  38.423  1.00  0.00    -0.330 N 
HETATM    2  C12 UNL     1      -9.262  48.170  37.387  1.00  0.00     0.320 C 
HETATM    3  O2  UNL     1      -8.127  47.594  37.276  1.00  0.00    -0.247 OA
HETATM    4  N2  UNL     1     -10.260  47.786  36.471  1.00  0.00    -0.313 N 
ATOM      5  H2  UNL     1     -11.183  48.217  36.518  1.00  0.00     0.167 HD
ENDROOT
BRANCH   1   6
HETATM    6  C2  UNL     1     -10.603  49.830  38.650  1.00  0.00     0.080 C 
HETATM    7  C1  UNL     1     -11.232  49.250  39.929  1.00  0.00     0.032 C 
HETATM    8  C3  UNL     1     -10.498  51.301  38.823  1.00  0.00     0.032 C 
ENDBRANCH   1   6
BRANCH   1   9
HETATM    9  C4  UNL     1      -8.219  49.434  39.220  1.00  0.00     0.134 C 
BRANCH   9  10
HETATM   10  C5  UNL     1      -8.489  49.698  40.654  1.00  0.00     0.028 C 
HETATM   11  C6  UNL     1      -7.942  48.584  41.539  1.00  0.00     0.173 C 
HETATM   12  O1  UNL     1      -6.670  48.876  41.997  1.00  0.00    -0.390 OA
HETATM   13  C7  UNL     1      -6.703  49.854  42.999  1.00  0.00     0.176 C 
HETATM   14  C8  UNL     1      -7.667  50.935  42.631  1.00  0.00    -0.026 C 
HETATM   15  C9  UNL     1      -7.110  52.319  42.994  1.00  0.00     0.017 C 
HETATM   16  C10 UNL     1      -8.962  50.756  43.365  1.00  0.00     0.017 C 
HETATM   17  C11 UNL     1      -7.894  50.976  41.122  1.00  0.00     0.019 C 
ENDBRANCH   9  10
ENDBRANCH   1   9
BRANCH   4  18
HETATM   18  C13 UNL     1      -9.990  46.794  35.472  1.00  0.00     0.251 C 
HETATM   19  N3  UNL     1     -11.044  46.755  34.471  1.00  0.00    -0.350 N 
HETATM   20  C14 UNL     1     -12.216  46.148  34.908  1.00  0.00     0.082 C 
ATOM     21  H3  UNL     1     -10.933  47.140  33.533  1.00  0.00     0.163 HD
HETATM   22  N4  UNL     1     -13.413  46.529  34.649  1.00  0.00    -0.388 N 
HETATM   23  C15 UNL     1     -11.989  44.935  35.752  1.00  0.00     0.153 C 
ATOM     24  H42 UNL     1     -13.568  47.356  34.073  1.00  0.00     0.157 HD
ATOM     25  H41 UNL     1     -14.273  46.083  34.969  1.00  0.00     0.157 HD
HETATM   26  S1  UNL     1     -10.239  45.122  36.199  1.00  0.00    -0.116 SA
ENDBRANCH   4  18
TORSDOF 4
ENDMDL
MODEL 3
REMARK VINA RESULT: -7.140425555      4.310      5.976
REMARK  4 active torsions:
REMARK  status: ('A' for Active; 'I' for Inactive)
REMARK    1  A    between atoms: C2_2  and  N1_4 
REMARK    2  A    between atoms: N1_4  and  C4_5 
REMARK       I    between atoms: N1_4  and  C12_14 
REMARK    3  A    between atoms: C4_5  and  C5_6 
REMARK       I    between atoms: C12_14  and  N2_16 
REMARK    4  A    between atoms: N2_16  and  C13_18 
ROOT
HETATM    1  N1  UNL     1      -7.891  46.169  38.234  1.00  0.00    -0.330 N 
HETATM    2  C12 UNL     1      -8.595  45.960  37.026  1.00  0.00     0.320 C 
HETATM    3  O2  UNL     1      -8.926  47.012  36.380  1.00  0.00    -0.247 OA
HETATM    4  N2  UNL     1      -8.970  44.725  36.462  1.00  0.00    -0.313 N 
ATOM      5  H2  UNL     1      -8.730  43.857  36.940  1.00  0.00     0.167 HD
ENDROOT
BRANCH   1   6
HETATM    6  C2  UNL     1      -7.460  45.065  39.040  1.00  0.00     0.080 C 
HETATM    7  C1  UNL     1      -5.923  45.032  38.986  1.00  0.00     0.032 C 
HETATM    8  C3  UNL     1      -7.861  45.094  40.470  1.00  0.00     0.032 C 
ENDBRANCH   1   6
BRANCH   1   9
HETATM    9  C4  UNL     1      -7.658  47.514  38.684  1.00  0.00     0.134 C 
BRANCH   9  10
HETATM   10  C5  UNL     1      -8.786  48.145  39.412  1.00  0.00     0.028 C 
HETATM   11  C6  UNL     1      -8.365  48.600  40.805  1.00  0.00     0.173 C 
HETATM   12  O1  UNL     1      -7.967  49.925  40.809  1.00  0.00    -0.390 OA
HETATM   13  C7  UNL     1      -9.067  50.786  40.701  1.00  0.00     0.176 C 
HETATM   14  C8  UNL     1     -10.031  50.264  39.686  1.00  0.00    -0.026 C 
HETATM   15  C9  UNL     1     -10.601  51.402  38.828  1.00  0.00     0.017 C 
HETATM   16  C10 UNL     1     -11.182  49.577  40.358  1.00  0.00     0.017 C 
HETATM   17  C11 UNL     1      -9.336  49.327  38.701  1.00  0.00     0.019 C 
ENDBRANCH   9  10
ENDBRANCH   1   9
BRANCH   4  18
HETATM   18  C13 UNL     1      -9.685  44.678  35.221  1.00  0.00     0.251 C 
HETATM   19  N3  UNL     1     -11.122  44.672  35.443  1.00  0.00    -0.350 N 
HETATM   20  C14 UNL     1     -11.619  43.455  35.897  1.00  0.00     0.082 C 
ATOM     21  H3  UNL     1     -11.713  45.488  35.280  1.00  0.00     0.163 HD
HETATM   22  N4  UNL     1     -12.529  43.288  36.785  1.00  0.00    -0.388 N 
HETATM   23  C15 UNL     1     -10.994  42.265  35.242  1.00  0.00     0.153 C 
ATOM     24  H42 UNL     1     -12.956  44.099  37.231  1.00  0.00     0.157 HD
ATOM     25  H41 UNL     1     -12.894  42.396  37.118  1.00  0.00     0.157 HD
HETATM   26  S1  UNL     1      -9.513  42.998  34.489  1.00  0.00    -0.116 SA
ENDBRANCH   4  18
TORSDOF 4
ENDMDL
MODEL 4
REMARK VINA RESULT: -6.761899352      3.435      5.809
REMARK  4 active torsions:
REMARK  status: ('A' for Active; 'I' for Inactive)
REMARK    1  A    between atoms: C2_2  and  N1_4 
REMARK    2  A    between atoms: N1_4  and  C4_5 
REMARK       I    between atoms: N1_4  and  C12_14 
REMARK    3  A    between atoms: C4_5  and  C5_6 
REMARK       I    between atoms: C12_14  and  N2_16 
REMARK    4  A    between atoms: N2_16  and  C13_18 
ROOT
HETATM    1  N1  UNL     1      -7.351  46.824  39.211  1.00  0.00    -0.330 N 
HETATM    2  C12 UNL     1      -7.818  47.155  37.918  1.00  0.00     0.320 C 
HETATM    3  O2  UNL     1      -7.464  48.297  37.469  1.00  0.00    -0.247 OA
HETATM    4  N2  UNL     1      -8.628  46.367  37.077  1.00  0.00    -0.313 N 
ATOM      5  H2  UNL     1      -8.938  45.448  37.391  1.00  0.00     0.167 HD
ENDROOT
BRANCH   1   6
HETATM    6  C2  UNL     1      -7.677  45.566  39.815  1.00  0.00     0.080 C 
HETATM    7  C1  UNL     1      -6.365  44.776  39.962  1.00  0.00     0.032 C 
HETATM    8  C3  UNL     1      -8.323  45.622  41.152  1.00  0.00     0.032 C 
ENDBRANCH   1   6
BRANCH   1   9
HETATM    9  C4  UNL     1      -6.586  47.792  39.948  1.00  0.00     0.134 C 
BRANCH   9  10
HETATM   10  C5  UNL     1      -7.346  48.564  40.961  1.00  0.00     0.028 C 
HETATM   11  C6  UNL     1      -6.603  48.620  42.291  1.00  0.00     0.173 C 
HETATM   12  O1  UNL     1      -5.826  49.760  42.392  1.00  0.00    -0.390 OA
HETATM   13  C7  UNL     1      -6.615  50.895  42.617  1.00  0.00     0.176 C 
HETATM   14  C8  UNL     1      -7.832  50.856  41.753  1.00  0.00    -0.026 C 
HETATM   15  C9  UNL     1      -8.150  52.245  41.182  1.00  0.00     0.017 C 
HETATM   16  C10 UNL     1      -9.023  50.401  42.542  1.00  0.00     0.017 C 
HETATM   17  C11 UNL     1      -7.610  49.962  40.535  1.00  0.00     0.019 C 
ENDBRANCH   9  10
ENDBRANCH   1   9
BRANCH   4  18
HETATM   18  C13 UNL     1      -9.019  46.846  35.785  1.00  0.00     0.251 C 
HETATM   19  N3  UNL     1      -9.767  48.088  35.888  1.00  0.00    -0.350 N 
HETATM   20  C14 UNL     1     -11.072  47.927  36.340  1.00  0.00     0.082 C 
ATOM     21  H3  UNL     1      -9.369  48.997  35.651  1.00  0.00     0.163 HD
HETATM   22  N4  UNL     1     -11.695  48.696  37.156  1.00  0.00    -0.388 N 
HETATM   23  C15 UNL     1     -11.761  46.726  35.778  1.00  0.00     0.153 C 
ATOM     24  H42 UNL     1     -11.225  49.516  37.539  1.00  0.00     0.157 HD
ATOM     25  H41 UNL     1     -12.653  48.578  37.487  1.00  0.00     0.157 HD
HETATM   26  S1  UNL     1     -10.361  45.772  35.125  1.00  0.00    -0.116 SA
ENDBRANCH   4  18
TORSDOF 4
ENDMDL
MODEL 5
REMARK VINA RESULT: -6.716595066      3.304      4.552
REMARK  4 active torsions:
REMARK  status: ('A' for Active; 'I' for Inactive)
REMARK    1  A    between atoms: C2_2  and  N1_4 
REMARK    2  A    between atoms: N1_4  and  C4_5 
REMARK       I    between atoms: N1_4  and  C12_14 
REMARK    3  A    between atoms: C4_5  and  C5_6 
REMARK       I    between atoms: C12_14  and  N2_16 
REMARK    4  A    between atoms: N2_16  and  C13_18 
ROOT
HETATM    1  N1  UNL     1      -6.719  46.208  39.983  1.00  0.00    -0.330 N 
HETATM    2  C12 UNL     1      -7.155  45.319  38.973  1.00  0.00     0.320 C 
HETATM    3  O2  UNL     1      -7.625  45.859  37.915  1.00  0.00    -0.247 OA
HETATM    4  N2  UNL     1      -7.127  43.912  39.008  1.00  0.00    -0.313 N 
ATOM      5  H2  UNL     1      -6.762  43.434  39.831  1.00  0.00     0.167 HD
ENDROOT
BRANCH   1   6
HETATM    6  C2  UNL     1      -6.165  45.719  41.211  1.00  0.00     0.080 C 
HETATM    7  C1  UNL     1      -5.359  46.869  41.839  1.00  0.00     0.032 C 
HETATM    8  C3  UNL     1      -7.134  45.238  42.228  1.00  0.00     0.032 C 
ENDBRANCH   1   6
BRANCH   1   9
HETATM    9  C4  UNL     1      -6.891  47.622  39.792  1.00  0.00     0.134 C 
BRANCH   9  10
HETATM   10  C5  UNL     1      -8.222  48.157  40.171  1.00  0.00     0.028 C 
HETATM   11  C6  UNL     1      -8.141  49.007  41.434  1.00  0.00     0.173 C 
HETATM   12  O1  UNL     1      -7.981  50.348  41.136  1.00  0.00    -0.390 OA
HETATM   13  C7  UNL     1      -9.173  50.909  40.660  1.00  0.00     0.176 C 
HETATM   14  C8  UNL     1      -9.836  49.971  39.704  1.00  0.00    -0.026 C 
HETATM   15  C9  UNL     1     -10.427  50.728  38.507  1.00  0.00     0.017 C 
HETATM   16  C10 UNL     1     -10.956  49.238  40.380  1.00  0.00     0.017 C 
HETATM   17  C11 UNL     1      -8.827  48.995  39.105  1.00  0.00     0.019 C 
ENDBRANCH   9  10
ENDBRANCH   1   9
BRANCH   4  18
HETATM   18  C13 UNL     1      -7.607  43.145  37.896  1.00  0.00     0.251 C 
HETATM   19  N3  UNL     1      -8.299  41.948  38.343  1.00  0.00    -0.350 N 
HETATM   20  C14 UNL     1      -7.454  40.945  38.805  1.00  0.00     0.082 C 
ATOM     21  H3  UNL     1      -9.315  41.852  38.321  1.00  0.00     0.163 HD
HETATM   22  N4  UNL     1      -7.657  40.183  39.816  1.00  0.00    -0.388 N 
HETATM   23  C15 UNL     1      -6.207  40.787  37.996  1.00  0.00     0.153 C 
ATOM     24  H42 UNL     1      -8.508  40.290  40.368  1.00  0.00     0.157 HD
ATOM     25  H41 UNL     1      -7.038  39.447  40.154  1.00  0.00     0.157 HD
HETATM   26  S1  UNL     1      -6.181  42.341  37.057  1.00  0.00    -0.116 SA
ENDBRANCH   4  18
TORSDOF 4
ENDMDL
