MODEL 1
REMARK VINA RESULT: -7.719270861      0.000      0.000
REMARK  7 active torsions:
REMARK  status: ('A' for Active; 'I' for Inactive)
REMARK    1  A    between atoms: C2_2  and  C4_4 
REMARK    2  A    between atoms: C4_4  and  C5_5 
REMARK    3  A    between atoms: C5_5  and  N1_6 
REMARK    4  A    between atoms: C5_5  and  C6_10 
REMARK    5  A    between atoms: C6_10  and  O1_11 
REMARK    6  A    between atoms: C6_10  and  N2_13 
REMARK    7  A    between atoms: C8_20  and  C9_21 
ROOT
HETATM    1  N2  UNL     1      -8.354  47.376  37.608  1.00  0.00    -0.318 N 
ATOM      2  H2  UNL     1      -7.470  46.866  37.616  1.00  0.00     0.169 HD
HETATM    3  C7  UNL     1      -8.418  48.192  38.576  1.00  0.00     0.166 A 
HETATM    4  N3  UNL     1      -9.334  49.068  38.996  1.00  0.00    -0.279 N 
ATOM      5  H3  UNL     1     -10.197  49.193  38.468  1.00  0.00     0.189 HD
HETATM    6  N4  UNL     1      -9.133  49.744  40.049  1.00  0.00    -0.295 N 
ATOM      7  H4  UNL     1      -9.838  50.411  40.364  1.00  0.00     0.187 HD
HETATM    8  C8  UNL     1      -8.018  49.593  40.743  1.00  0.00     0.079 A 
HETATM    9  S1  UNL     1      -7.209  48.408  39.828  1.00  0.00    -0.037 SA
ENDROOT
BRANCH   1  10
HETATM   10  C6  UNL     1      -9.136  46.987  36.554  1.00  0.00     0.148 C 
BRANCH  10  11
HETATM   11  C5  UNL     1     -10.155  47.689  35.777  1.00  0.00     0.257 C 
BRANCH  11  12
HETATM   12  C4  UNL     1     -11.576  47.458  36.166  1.00  0.00     0.045 C 
BRANCH  12  13
HETATM   13  C2  UNL     1     -12.383  46.578  35.262  1.00  0.00    -0.020 C 
HETATM   14  C1  UNL     1     -12.338  45.118  35.543  1.00  0.00     0.009 C 
HETATM   15  C3  UNL     1     -13.821  47.068  35.141  1.00  0.00     0.009 C 
ENDBRANCH  12  13
ENDBRANCH  11  12
BRANCH  11  16
HETATM   16  N1  UNL     1      -9.841  49.108  35.653  1.00  0.00    -0.068 N 
ATOM     17  H13 UNL     1     -10.254  49.505  34.809  1.00  0.00     0.275 HD
ATOM     18  H12 UNL     1     -10.340  49.658  36.352  1.00  0.00     0.275 HD
ATOM     19  H11 UNL     1      -8.837  49.285  35.692  1.00  0.00     0.275 HD
ENDBRANCH  11  16
ENDBRANCH  10  11
BRANCH  10  20
HETATM   20  O1  UNL     1      -8.934  45.749  36.179  1.00  0.00    -0.348 OA
ATOM     21  H1  UNL     1      -8.040  45.449  36.294  1.00  0.00     0.219 HD
ENDBRANCH  10  20
ENDBRANCH   1  10
BRANCH   8  22
HETATM   22  C9  UNL     1      -7.650  50.279  42.003  1.00  0.00     0.018 C 
HETATM   23  C10 UNL     1      -7.381  49.358  43.166  1.00  0.00     0.050 C 
HETATM   24  C11 UNL     1      -7.624  50.365  44.309  1.00  0.00     0.188 C 
HETATM   25  C12 UNL     1      -9.004  50.872  43.879  1.00  0.00     0.039 C 
HETATM   26  N5  UNL     1      -6.645  51.407  44.241  1.00  0.00    -0.067 N 
HETATM   27  C13 UNL     1      -8.682  51.256  42.428  1.00  0.00     0.005 C 
HETATM   28  C14 UNL     1      -7.957  52.602  42.578  1.00  0.00     0.039 C 
HETATM   29  C15 UNL     1      -6.578  52.083  42.968  1.00  0.00     0.188 C 
HETATM   30  C16 UNL     1      -6.362  51.098  41.824  1.00  0.00     0.050 C 
ATOM     31  H52 UNL     1      -6.789  52.080  44.993  1.00  0.00     0.278 HD
ATOM     32  H51 UNL     1      -5.725  51.048  44.501  1.00  0.00     0.278 HD
ENDBRANCH   8  22
TORSDOF 7
ENDMDL
MODEL 2
REMARK VINA RESULT: -7.669450949      1.453      1.679
REMARK  7 active torsions:
REMARK  status: ('A' for Active; 'I' for Inactive)
REMARK    1  A    between atoms: C2_2  and  C4_4 
REMARK    2  A    between atoms: C4_4  and  C5_5 
REMARK    3  A    between atoms: C5_5  and  N1_6 
REMARK    4  A    between atoms: C5_5  and  C6_10 
REMARK    5  A    between atoms: C6_10  and  O1_11 
REMARK    6  A    between atoms: C6_10  and  N2_13 
REMARK    7  A    between atoms: C8_20  and  C9_21 
ROOT
HETATM    1  N2  UNL     1     -10.150  48.824  37.328  1.00  0.00    -0.318 N 
ATOM      2  H2  UNL     1     -10.943  49.465  37.325  1.00  0.00     0.169 HD
HETATM    3  C7  UNL     1      -9.436  48.988  38.363  1.00  0.00     0.166 A 
HETATM    4  N3  UNL     1      -8.323  48.415  38.826  1.00  0.00    -0.279 N 
ATOM      5  H3  UNL     1      -7.892  47.649  38.308  1.00  0.00     0.189 HD
HETATM    6  N4  UNL     1      -7.800  48.820  39.907  1.00  0.00    -0.295 N 
ATOM      7  H4  UNL     1      -6.948  48.378  40.254  1.00  0.00     0.187 HD
HETATM    8  C8  UNL     1      -8.347  49.811  40.589  1.00  0.00     0.079 A 
HETATM    9  S1  UNL     1      -9.696  50.183  39.620  1.00  0.00    -0.037 SA
ENDROOT
BRANCH   1  10
HETATM   10  C6  UNL     1     -10.154  48.030  36.213  1.00  0.00     0.148 C 
BRANCH  10  11
HETATM   11  C5  UNL     1     -11.239  47.427  35.442  1.00  0.00     0.257 C 
BRANCH  11  12
HETATM   12  C4  UNL     1     -11.411  45.951  35.560  1.00  0.00     0.045 C 
BRANCH  12  13
HETATM   13  C2  UNL     1     -11.431  45.174  34.280  1.00  0.00    -0.020 C 
HETATM   14  C1  UNL     1     -12.746  45.061  33.592  1.00  0.00     0.009 C 
HETATM   15  C3  UNL     1     -10.350  45.652  33.318  1.00  0.00     0.009 C 
ENDBRANCH  12  13
ENDBRANCH  11  12
BRANCH  11  16
HETATM   16  N1  UNL     1     -12.493  48.145  35.644  1.00  0.00    -0.068 N 
ATOM     17  H13 UNL     1     -13.029  48.204  34.777  1.00  0.00     0.275 HD
ATOM     18  H12 UNL     1     -13.147  47.596  36.202  1.00  0.00     0.275 HD
ATOM     19  H11 UNL     1     -12.347  49.069  36.051  1.00  0.00     0.275 HD
ENDBRANCH  11  16
ENDBRANCH  10  11
BRANCH  10  20
HETATM   20  O1  UNL     1      -8.958  47.755  35.759  1.00  0.00    -0.348 OA
ATOM     21  H1  UNL     1      -8.267  47.844  36.405  1.00  0.00     0.219 HD
ENDBRANCH  10  20
ENDBRANCH   1  10
BRANCH   8  22
HETATM   22  C9  UNL     1      -7.845  50.417  41.844  1.00  0.00     0.018 C 
HETATM   23  C10 UNL     1      -7.472  49.425  42.917  1.00  0.00     0.050 C 
HETATM   24  C11 UNL     1      -7.586  50.363  44.136  1.00  0.00     0.188 C 
HETATM   25  C12 UNL     1      -8.997  50.904  43.880  1.00  0.00     0.039 C 
HETATM   26  N5  UNL     1      -6.606  51.402  44.032  1.00  0.00    -0.067 N 
HETATM   27  C13 UNL     1      -8.818  51.373  42.429  1.00  0.00     0.005 C 
HETATM   28  C14 UNL     1      -8.066  52.703  42.585  1.00  0.00     0.039 C 
HETATM   29  C15 UNL     1      -6.660  52.153  42.801  1.00  0.00     0.188 C 
HETATM   30  C16 UNL     1      -6.573  51.238  41.585  1.00  0.00     0.050 C 
ATOM     31  H52 UNL     1      -6.667  52.029  44.833  1.00  0.00     0.278 HD
ATOM     32  H51 UNL     1      -5.670  51.023  44.175  1.00  0.00     0.278 HD
ENDBRANCH   8  22
TORSDOF 7
ENDMDL
MODEL 3
REMARK VINA RESULT: -7.556286077      2.202      8.527
REMARK  7 active torsions:
REMARK  status: ('A' for Active; 'I' for Inactive)
REMARK    1  A    between atoms: C2_2  and  C4_4 
REMARK    2  A    between atoms: C4_4  and  C5_5 
REMARK    3  A    between atoms: C5_5  and  N1_6 
REMARK    4  A    between atoms: C5_5  and  C6_10 
REMARK    5  A    between atoms: C6_10  and  O1_11 
REMARK    6  A    between atoms: C6_10  and  N2_13 
REMARK    7  A    between atoms: C8_20  and  C9_21 
ROOT
HETATM    1  N2  UNL     1      -7.858  49.095  39.479  1.00  0.00    -0.318 N 
ATOM      2  H2  UNL     1      -8.535  49.846  39.607  1.00  0.00     0.169 HD
HETATM    3  C7  UNL     1      -8.221  48.307  38.555  1.00  0.00     0.166 A 
HETATM    4  N3  UNL     1      -7.700  47.202  38.015  1.00  0.00    -0.279 N 
ATOM      5  H3  UNL     1      -6.798  46.854  38.341  1.00  0.00     0.189 HD
HETATM    6  N4  UNL     1      -8.323  46.586  37.100  1.00  0.00    -0.295 N 
ATOM      7  H4  UNL     1      -7.919  45.742  36.693  1.00  0.00     0.187 HD
HETATM    8  C8  UNL     1      -9.492  47.026  36.667  1.00  0.00     0.079 A 
HETATM    9  S1  UNL     1      -9.709  48.409  37.634  1.00  0.00    -0.037 SA
ENDROOT
BRANCH   1  10
HETATM   10  C6  UNL     1      -6.812  49.222  40.353  1.00  0.00     0.148 C 
BRANCH  10  11
HETATM   11  C5  UNL     1      -6.743  49.665  41.744  1.00  0.00     0.257 C 
BRANCH  11  12
HETATM   12  C4  UNL     1      -7.988  50.234  42.332  1.00  0.00     0.045 C 
BRANCH  12  13
HETATM   13  C2  UNL     1      -7.961  51.692  42.676  1.00  0.00    -0.020 C 
HETATM   14  C1  UNL     1      -6.731  52.194  43.345  1.00  0.00     0.009 C 
HETATM   15  C3  UNL     1      -8.323  52.558  41.475  1.00  0.00     0.009 C 
ENDBRANCH  12  13
ENDBRANCH  11  12
BRANCH  11  16
HETATM   16  N1  UNL     1      -6.150  48.639  42.596  1.00  0.00    -0.068 N 
ATOM     17  H13 UNL     1      -5.633  49.056  43.370  1.00  0.00     0.275 HD
ATOM     18  H12 UNL     1      -6.865  48.142  43.127  1.00  0.00     0.275 HD
ATOM     19  H11 UNL     1      -5.566  47.991  42.068  1.00  0.00     0.275 HD
ENDBRANCH  11  16
ENDBRANCH  10  11
BRANCH  10  20
HETATM   20  O1  UNL     1      -5.655  48.888  39.839  1.00  0.00    -0.348 OA
ATOM     21  H1  UNL     1      -5.523  49.192  38.949  1.00  0.00     0.219 HD
ENDBRANCH  10  20
ENDBRANCH   1  10
BRANCH   8  22
HETATM   22  C9  UNL     1     -10.354  46.406  35.634  1.00  0.00     0.018 C 
HETATM   23  C10 UNL     1     -11.734  47.004  35.525  1.00  0.00     0.050 C 
HETATM   24  C11 UNL     1     -12.443  45.808  34.859  1.00  0.00     0.188 C 
HETATM   25  C12 UNL     1     -12.026  44.713  35.847  1.00  0.00     0.039 C 
HETATM   26  N5  UNL     1     -11.877  45.580  33.564  1.00  0.00    -0.067 N 
HETATM   27  C13 UNL     1     -10.508  44.945  35.840  1.00  0.00     0.005 C 
HETATM   28  C14 UNL     1     -10.061  44.281  34.530  1.00  0.00     0.039 C 
HETATM   29  C15 UNL     1     -10.446  45.393  33.561  1.00  0.00     0.188 C 
HETATM   30  C16 UNL     1      -9.731  46.557  34.238  1.00  0.00     0.050 C 
ATOM     31  H52 UNL     1     -12.338  44.793  33.108  1.00  0.00     0.278 HD
ATOM     32  H51 UNL     1     -12.138  46.331  32.924  1.00  0.00     0.278 HD
ENDBRANCH   8  22
TORSDOF 7
ENDMDL
MODEL 4
REMARK VINA RESULT: -7.544703670      1.021      1.382
REMARK  7 active torsions:
REMARK  status: ('A' for Active; 'I' for Inactive)
REMARK    1  A    between atoms: C2_2  and  C4_4 
REMARK    2  A    between atoms: C4_4  and  C5_5 
REMARK    3  A    between atoms: C5_5  and  N1_6 
REMARK    4  A    between atoms: C5_5  and  C6_10 
REMARK    5  A    between atoms: C6_10  and  O1_11 
REMARK    6  A    between atoms: C6_10  and  N2_13 
REMARK    7  A    between atoms: C8_20  and  C9_21 
ROOT
HETATM    1  N2  UNL     1      -8.266  47.264  37.612  1.00  0.00    -0.318 N 
ATOM      2  H2  UNL     1      -7.453  46.658  37.717  1.00  0.00     0.169 HD
HETATM    3  C7  UNL     1      -8.319  48.119  38.547  1.00  0.00     0.166 A 
HETATM    4  N3  UNL     1      -9.160  49.110  38.855  1.00  0.00    -0.279 N 
ATOM      5  H3  UNL     1      -9.952  49.312  38.246  1.00  0.00     0.189 HD
HETATM    6  N4  UNL     1      -8.975  49.799  39.903  1.00  0.00    -0.295 N 
ATOM      7  H4  UNL     1      -9.622  50.554  40.132  1.00  0.00     0.187 HD
HETATM    8  C8  UNL     1      -7.952  49.549  40.701  1.00  0.00     0.079 A 
HETATM    9  S1  UNL     1      -7.209  48.245  39.898  1.00  0.00    -0.037 SA
ENDROOT
BRANCH   1  10
HETATM   10  C6  UNL     1      -8.992  46.927  36.503  1.00  0.00     0.148 C 
BRANCH  10  11
HETATM   11  C5  UNL     1      -9.802  45.754  36.178  1.00  0.00     0.257 C 
BRANCH  11  12
HETATM   12  C4  UNL     1     -10.802  45.909  35.084  1.00  0.00     0.045 C 
BRANCH  12  13
HETATM   13  C2  UNL     1     -12.202  46.244  35.498  1.00  0.00    -0.020 C 
HETATM   14  C1  UNL     1     -12.464  47.661  35.871  1.00  0.00     0.009 C 
HETATM   15  C3  UNL     1     -13.221  45.749  34.479  1.00  0.00     0.009 C 
ENDBRANCH  12  13
ENDBRANCH  11  12
BRANCH  11  16
HETATM   16  N1  UNL     1      -8.969  44.570  36.001  1.00  0.00    -0.068 N 
ATOM     17  H13 UNL     1      -8.999  44.239  35.036  1.00  0.00     0.275 HD
ATOM     18  H12 UNL     1      -7.978  44.803  36.062  1.00  0.00     0.275 HD
ATOM     19  H11 UNL     1      -9.213  43.826  36.654  1.00  0.00     0.275 HD
ENDBRANCH  11  16
ENDBRANCH  10  11
BRANCH  10  20
HETATM   20  O1  UNL     1      -8.943  47.824  35.550  1.00  0.00    -0.348 OA
ATOM     21  H1  UNL     1      -8.253  48.468  35.658  1.00  0.00     0.219 HD
ENDBRANCH  10  20
ENDBRANCH   1  10
BRANCH   8  22
HETATM   22  C9  UNL     1      -7.618  50.238  41.970  1.00  0.00     0.018 C 
HETATM   23  C10 UNL     1      -7.391  49.318  43.144  1.00  0.00     0.050 C 
HETATM   24  C11 UNL     1      -7.663  50.331  44.275  1.00  0.00     0.188 C 
HETATM   25  C12 UNL     1      -9.026  50.845  43.801  1.00  0.00     0.039 C 
HETATM   26  N5  UNL     1      -6.676  51.367  44.234  1.00  0.00    -0.067 N 
HETATM   27  C13 UNL     1      -8.657  51.223  42.359  1.00  0.00     0.005 C 
HETATM   28  C14 UNL     1      -7.929  52.565  42.527  1.00  0.00     0.039 C 
HETATM   29  C15 UNL     1      -6.565  52.038  42.962  1.00  0.00     0.188 C 
HETATM   30  C16 UNL     1      -6.320  51.048  41.828  1.00  0.00     0.050 C 
ATOM     31  H52 UNL     1      -6.840  52.043  44.979  1.00  0.00     0.278 HD
ATOM     32  H51 UNL     1      -5.767  51.004  44.524  1.00  0.00     0.278 HD
ENDBRANCH   8  22
TORSDOF 7
ENDMDL
MODEL 5
REMARK VINA RESULT: -7.456854180      1.353      1.475
REMARK  7 active torsions:
REMARK  status: ('A' for Active; 'I' for Inactive)
REMARK    1  A    between atoms: C2_2  and  C4_4 
REMARK    2  A    between atoms: C4_4  and  C5_5 
REMARK    3  A    between atoms: C5_5  and  N1_6 
REMARK    4  A    between atoms: C5_5  and  C6_10 
REMARK    5  A    between atoms: C6_10  and  O1_11 
REMARK    6  A    between atoms: C6_10  and  N2_13 
REMARK    7  A    between atoms: C8_20  and  C9_21 
ROOT
HETATM    1  N2  UNL     1     -10.249  48.617  37.182  1.00  0.00    -0.318 N 
ATOM      2  H2  UNL     1     -11.052  49.245  37.161  1.00  0.00     0.169 HD
HETATM    3  C7  UNL     1      -9.531  48.830  38.205  1.00  0.00     0.166 A 
HETATM    4  N3  UNL     1      -8.405  48.291  38.680  1.00  0.00    -0.279 N 
ATOM      5  H3  UNL     1      -7.967  47.513  38.188  1.00  0.00     0.189 HD
HETATM    6  N4  UNL     1      -7.881  48.745  39.741  1.00  0.00    -0.295 N 
ATOM      7  H4  UNL     1      -7.020  48.329  40.098  1.00  0.00     0.187 HD
HETATM    8  C8  UNL     1      -8.438  49.752  40.390  1.00  0.00     0.079 A 
HETATM    9  S1  UNL     1      -9.799  50.067  39.418  1.00  0.00    -0.037 SA
ENDROOT
BRANCH   1  10
HETATM   10  C6  UNL     1     -10.250  47.781  36.098  1.00  0.00     0.148 C 
BRANCH  10  11
HETATM   11  C5  UNL     1     -11.282  46.922  35.522  1.00  0.00     0.257 C 
BRANCH  11  12
HETATM   12  C4  UNL     1     -12.694  47.379  35.662  1.00  0.00     0.045 C 
BRANCH  12  13
HETATM   13  C2  UNL     1     -13.715  46.667  34.828  1.00  0.00    -0.020 C 
HETATM   14  C1  UNL     1     -13.958  45.235  35.155  1.00  0.00     0.009 C 
HETATM   15  C3  UNL     1     -15.024  47.444  34.762  1.00  0.00     0.009 C 
ENDBRANCH  12  13
ENDBRANCH  11  12
BRANCH  11  16
HETATM   16  N1  UNL     1     -10.956  46.555  34.148  1.00  0.00    -0.068 N 
ATOM     17  H13 UNL     1     -10.908  47.378  33.547  1.00  0.00     0.275 HD
ATOM     18  H12 UNL     1      -9.990  46.240  34.070  1.00  0.00     0.275 HD
ATOM     19  H11 UNL     1     -11.602  45.861  33.771  1.00  0.00     0.275 HD
ENDBRANCH  11  16
ENDBRANCH  10  11
BRANCH  10  20
HETATM   20  O1  UNL     1      -9.105  47.741  35.465  1.00  0.00    -0.348 OA
ATOM     21  H1  UNL     1      -8.705  46.880  35.439  1.00  0.00     0.219 HD
ENDBRANCH  10  20
ENDBRANCH   1  10
BRANCH   8  22
HETATM   22  C9  UNL     1      -7.936  50.413  41.617  1.00  0.00     0.018 C 
HETATM   23  C10 UNL     1      -7.388  49.472  42.660  1.00  0.00     0.050 C 
HETATM   24  C11 UNL     1      -7.538  50.390  43.889  1.00  0.00     0.188 C 
HETATM   25  C12 UNL     1      -9.014  50.764  43.720  1.00  0.00     0.039 C 
HETATM   26  N5  UNL     1      -6.692  51.535  43.734  1.00  0.00    -0.067 N 
HETATM   27  C13 UNL     1      -8.976  51.250  42.264  1.00  0.00     0.005 C 
HETATM   28  C14 UNL     1      -8.375  52.659  42.384  1.00  0.00     0.039 C 
HETATM   29  C15 UNL     1      -6.905  52.275  42.514  1.00  0.00     0.188 C 
HETATM   30  C16 UNL     1      -6.784  51.375  41.289  1.00  0.00     0.050 C 
ATOM     31  H52 UNL     1      -6.777  52.151  44.542  1.00  0.00     0.278 HD
ATOM     32  H51 UNL     1      -5.711  51.267  43.820  1.00  0.00     0.278 HD
ENDBRANCH   8  22
TORSDOF 7
ENDMDL
