MODEL 1
REMARK VINA RESULT: -7.230069654      0.000      0.000
REMARK  8 active torsions:
REMARK  status: ('A' for Active; 'I' for Inactive)
REMARK    1  A    between atoms: C2_2  and  N1_4 
REMARK    2  A    between atoms: N1_4  and  C4_6 
REMARK    3  A    between atoms: C6_8  and  S1_9 
REMARK    4  A    between atoms: S1_9  and  C7_10 
REMARK    5  A    between atoms: C14_20  and  N4_21 
REMARK    6  A    between atoms: N4_21  and  C15_23 
REMARK    7  A    between atoms: C15_23  and  C16_24 
REMARK    8  A    between atoms: C16_24  and  O1_25 
ROOT
HETATM    1  C4  UNL     1      -8.099  47.169  37.490  1.00  0.00     0.119 A 
HETATM    2  C5  UNL     1      -8.638  48.110  38.329  1.00  0.00     0.086 A 
HETATM    3  C6  UNL     1      -8.187  48.250  39.637  1.00  0.00     0.090 A 
HETATM    4  N3  UNL     1      -7.198  47.430  40.061  1.00  0.00    -0.186 N 
ATOM      5  H3  UNL     1      -6.843  47.506  41.015  1.00  0.00     0.185 HD
HETATM    6  C14 UNL     1      -6.683  46.514  39.220  1.00  0.00     0.680 A 
HETATM    7  N5  UNL     1      -7.118  46.377  37.955  1.00  0.00    -0.177 N 
ATOM      8  H5  UNL     1      -6.704  45.671  37.347  1.00  0.00     0.185 HD
ENDROOT
BRANCH   3   9
HETATM    9  S1  UNL     1      -8.854  49.454  40.762  1.00  0.00    -0.105 SA
BRANCH   9  10
HETATM   10  C7  UNL     1      -7.620  50.728  41.039  1.00  0.00     0.084 C 
HETATM   11  C8  UNL     1      -8.308  52.014  41.431  1.00  0.00     0.288 C 
HETATM   12  N2  UNL     1      -8.454  51.953  42.851  1.00  0.00     0.094 N 
HETATM   13  C9  UNL     1      -9.639  51.257  43.282  1.00  0.00     0.310 C 
HETATM   14  C10 UNL     1      -7.242  51.346  43.319  1.00  0.00     0.153 C 
HETATM   15  C11 UNL     1      -7.448  50.530  44.587  1.00  0.00     0.049 C 
HETATM   16  C12 UNL     1      -6.265  52.455  43.653  1.00  0.00     0.049 C 
HETATM   17  C13 UNL     1      -6.727  50.445  42.220  1.00  0.00     0.058 C 
ENDBRANCH   9  10
ENDBRANCH   3   9
BRANCH   1  18
HETATM   18  N1  UNL     1      -8.542  47.072  36.292  1.00  0.00    -0.372 N 
ATOM     19  H1  UNL     1      -7.925  47.405  35.550  1.00  0.00     0.161 HD
BRANCH  18  20
HETATM   20  C2  UNL     1      -9.804  46.549  35.883  1.00  0.00     0.075 C 
HETATM   21  C1  UNL     1     -10.698  47.739  35.555  1.00  0.00     0.031 C 
HETATM   22  C3  UNL     1      -9.654  45.708  34.635  1.00  0.00     0.031 C 
ENDBRANCH  18  20
ENDBRANCH   1  18
BRANCH   6  23
HETATM   23  N4  UNL     1      -5.742  45.758  39.677  1.00  0.00    -0.224 N 
ATOM     24  H4  UNL     1      -4.909  45.578  39.116  1.00  0.00     0.177 HD
BRANCH  23  25
HETATM   25  C15 UNL     1      -5.878  45.169  40.992  1.00  0.00     0.164 C 
BRANCH  25  26
HETATM   26  C16 UNL     1      -4.767  45.606  41.910  1.00  0.00     0.184 C 
BRANCH  26  27
HETATM   27  O1  UNL     1      -4.805  46.976  42.145  1.00  0.00    -0.399 OA
ATOM     28  H1  UNL     1      -3.982  47.294  42.497  1.00  0.00     0.209 HD
ENDBRANCH  26  27
ENDBRANCH  25  26
ENDBRANCH  23  25
ENDBRANCH   6  23
TORSDOF 8
ENDMDL
MODEL 2
REMARK VINA RESULT: -7.210889431      2.190      4.505
REMARK  8 active torsions:
REMARK  status: ('A' for Active; 'I' for Inactive)
REMARK    1  A    between atoms: C2_2  and  N1_4 
REMARK    2  A    between atoms: N1_4  and  C4_6 
REMARK    3  A    between atoms: C6_8  and  S1_9 
REMARK    4  A    between atoms: S1_9  and  C7_10 
REMARK    5  A    between atoms: C14_20  and  N4_21 
REMARK    6  A    between atoms: N4_21  and  C15_23 
REMARK    7  A    between atoms: C15_23  and  C16_24 
REMARK    8  A    between atoms: C16_24  and  O1_25 
ROOT
HETATM    1  C4  UNL     1      -6.632  46.453  39.200  1.00  0.00     0.119 A 
HETATM    2  C5  UNL     1      -7.142  47.407  40.042  1.00  0.00     0.086 A 
HETATM    3  C6  UNL     1      -8.176  48.245  39.637  1.00  0.00     0.090 A 
HETATM    4  N3  UNL     1      -8.667  48.092  38.385  1.00  0.00    -0.186 N 
ATOM      5  H3  UNL     1      -9.426  48.690  38.056  1.00  0.00     0.185 HD
HETATM    6  C14 UNL     1      -8.151  47.148  37.576  1.00  0.00     0.680 A 
HETATM    7  N5  UNL     1      -7.151  46.337  37.966  1.00  0.00    -0.177 N 
ATOM      8  H5  UNL     1      -6.786  45.633  37.325  1.00  0.00     0.185 HD
ENDROOT
BRANCH   3   9
HETATM    9  S1  UNL     1      -8.870  49.497  40.691  1.00  0.00    -0.105 SA
BRANCH   9  10
HETATM   10  C7  UNL     1      -7.620  50.748  41.000  1.00  0.00     0.084 C 
HETATM   11  C8  UNL     1      -8.293  52.039  41.399  1.00  0.00     0.288 C 
HETATM   12  N2  UNL     1      -8.458  51.963  42.817  1.00  0.00     0.094 N 
HETATM   13  C9  UNL     1      -9.660  51.280  43.223  1.00  0.00     0.310 C 
HETATM   14  C10 UNL     1      -7.263  51.330  43.292  1.00  0.00     0.153 C 
HETATM   15  C11 UNL     1      -7.498  50.502  44.547  1.00  0.00     0.049 C 
HETATM   16  C12 UNL     1      -6.273  52.419  43.653  1.00  0.00     0.049 C 
HETATM   17  C13 UNL     1      -6.748  50.435  42.189  1.00  0.00     0.058 C 
ENDBRANCH   9  10
ENDBRANCH   3   9
BRANCH   1  18
HETATM   18  N1  UNL     1      -5.680  45.700  39.611  1.00  0.00    -0.372 N 
ATOM     19  H1  UNL     1      -4.890  45.578  38.976  1.00  0.00     0.161 HD
BRANCH  18  20
HETATM   20  C2  UNL     1      -5.604  45.016  40.860  1.00  0.00     0.075 C 
HETATM   21  C1  UNL     1      -6.433  43.744  40.725  1.00  0.00     0.031 C 
HETATM   22  C3  UNL     1      -4.176  44.625  41.168  1.00  0.00     0.031 C 
ENDBRANCH  18  20
ENDBRANCH   1  18
BRANCH   6  23
HETATM   23  N4  UNL     1      -8.657  47.046  36.394  1.00  0.00    -0.224 N 
ATOM     24  H4  UNL     1      -8.434  46.242  35.806  1.00  0.00     0.177 HD
BRANCH  23  25
HETATM   25  C15 UNL     1      -9.543  48.081  35.907  1.00  0.00     0.164 C 
BRANCH  25  26
HETATM   26  C16 UNL     1     -10.876  47.517  35.492  1.00  0.00     0.184 C 
BRANCH  26  27
HETATM   27  O1  UNL     1     -11.915  48.400  35.763  1.00  0.00    -0.399 OA
ATOM     28  H1  UNL     1     -12.268  48.782  34.968  1.00  0.00     0.209 HD
ENDBRANCH  26  27
ENDBRANCH  25  26
ENDBRANCH  23  25
ENDBRANCH   6  23
TORSDOF 8
ENDMDL
MODEL 3
REMARK VINA RESULT: -6.894854052      3.670      5.987
REMARK  8 active torsions:
REMARK  status: ('A' for Active; 'I' for Inactive)
REMARK    1  A    between atoms: C2_2  and  N1_4 
REMARK    2  A    between atoms: N1_4  and  C4_6 
REMARK    3  A    between atoms: C6_8  and  S1_9 
REMARK    4  A    between atoms: S1_9  and  C7_10 
REMARK    5  A    between atoms: C14_20  and  N4_21 
REMARK    6  A    between atoms: N4_21  and  C15_23 
REMARK    7  A    between atoms: C15_23  and  C16_24 
REMARK    8  A    between atoms: C16_24  and  O1_25 
ROOT
HETATM    1  C4  UNL     1      -9.782  48.839  37.382  1.00  0.00     0.119 A 
HETATM    2  C5  UNL     1      -8.850  48.151  38.115  1.00  0.00     0.086 A 
HETATM    3  C6  UNL     1      -8.319  46.949  37.656  1.00  0.00     0.090 A 
HETATM    4  N3  UNL     1      -8.750  46.477  36.463  1.00  0.00    -0.186 N 
ATOM      5  H3  UNL     1      -8.381  45.599  36.097  1.00  0.00     0.185 HD
HETATM    6  C14 UNL     1      -9.666  47.170  35.762  1.00  0.00     0.680 A 
HETATM    7  N5  UNL     1     -10.180  48.332  36.204  1.00  0.00    -0.177 N 
ATOM      8  H5  UNL     1     -10.872  48.829  35.644  1.00  0.00     0.185 HD
ENDROOT
BRANCH   3   9
HETATM    9  S1  UNL     1      -7.109  46.020  38.568  1.00  0.00    -0.105 SA
BRANCH   9  10
HETATM   10  C7  UNL     1      -7.109  46.589  40.271  1.00  0.00     0.084 C 
HETATM   11  C8  UNL     1      -7.798  45.565  41.140  1.00  0.00     0.288 C 
HETATM   12  N2  UNL     1      -6.777  44.643  41.528  1.00  0.00     0.094 N 
HETATM   13  C9  UNL     1      -6.553  43.591  40.569  1.00  0.00     0.310 C 
HETATM   14  C10 UNL     1      -5.618  45.454  41.757  1.00  0.00     0.153 C 
HETATM   15  C11 UNL     1      -4.320  44.721  41.448  1.00  0.00     0.049 C 
HETATM   16  C12 UNL     1      -5.588  45.819  43.227  1.00  0.00     0.049 C 
HETATM   17  C13 UNL     1      -5.729  46.673  40.870  1.00  0.00     0.058 C 
ENDBRANCH   9  10
ENDBRANCH   3   9
BRANCH   1  18
HETATM   18  N1  UNL     1     -10.246  49.943  37.840  1.00  0.00    -0.372 N 
ATOM     19  H1  UNL     1     -10.612  50.602  37.153  1.00  0.00     0.161 HD
BRANCH  18  20
HETATM   20  C2  UNL     1     -10.306  50.348  39.205  1.00  0.00     0.075 C 
HETATM   21  C1  UNL     1     -10.637  51.836  39.218  1.00  0.00     0.031 C 
HETATM   22  C3  UNL     1     -11.406  49.609  39.934  1.00  0.00     0.031 C 
ENDBRANCH  18  20
ENDBRANCH   1  18
BRANCH   6  23
HETATM   23  N4  UNL     1     -10.041  46.673  34.631  1.00  0.00    -0.224 N 
ATOM     24  H4  UNL     1      -9.967  47.226  33.777  1.00  0.00     0.177 HD
BRANCH  23  25
HETATM   25  C15 UNL     1     -10.566  45.326  34.585  1.00  0.00     0.164 C 
BRANCH  25  26
HETATM   26  C16 UNL     1      -9.596  44.377  33.931  1.00  0.00     0.184 C 
BRANCH  26  27
HETATM   27  O1  UNL     1      -8.754  43.780  34.862  1.00  0.00    -0.399 OA
ATOM     28  H1  UNL     1      -8.018  44.340  35.080  1.00  0.00     0.209 HD
ENDBRANCH  26  27
ENDBRANCH  25  26
ENDBRANCH  23  25
ENDBRANCH   6  23
TORSDOF 8
ENDMDL
MODEL 4
REMARK VINA RESULT: -6.841945768      2.574      3.185
REMARK  8 active torsions:
REMARK  status: ('A' for Active; 'I' for Inactive)
REMARK    1  A    between atoms: C2_2  and  N1_4 
REMARK    2  A    between atoms: N1_4  and  C4_6 
REMARK    3  A    between atoms: C6_8  and  S1_9 
REMARK    4  A    between atoms: S1_9  and  C7_10 
REMARK    5  A    between atoms: C14_20  and  N4_21 
REMARK    6  A    between atoms: N4_21  and  C15_23 
REMARK    7  A    between atoms: C15_23  and  C16_24 
REMARK    8  A    between atoms: C16_24  and  O1_25 
ROOT
HETATM    1  C4  UNL     1      -6.206  44.532  39.160  1.00  0.00     0.119 A 
HETATM    2  C5  UNL     1      -6.941  45.664  39.402  1.00  0.00     0.086 A 
HETATM    3  C6  UNL     1      -6.828  46.351  40.607  1.00  0.00     0.090 A 
HETATM    4  N3  UNL     1      -5.970  45.870  41.536  1.00  0.00    -0.186 N 
ATOM      5  H3  UNL     1      -5.862  46.350  42.430  1.00  0.00     0.185 HD
HETATM    6  C14 UNL     1      -5.258  44.757  41.276  1.00  0.00     0.680 A 
HETATM    7  N5  UNL     1      -5.367  44.092  40.112  1.00  0.00    -0.177 N 
ATOM      8  H5  UNL     1      -4.811  43.252  39.951  1.00  0.00     0.185 HD
ENDROOT
BRANCH   3   9
HETATM    9  S1  UNL     1      -7.758  47.822  40.968  1.00  0.00    -0.105 SA
BRANCH   9  10
HETATM   10  C7  UNL     1      -6.621  49.106  41.498  1.00  0.00     0.084 C 
HETATM   11  C8  UNL     1      -6.893  50.368  40.716  1.00  0.00     0.288 C 
HETATM   12  N2  UNL     1      -7.902  51.065  41.450  1.00  0.00     0.094 N 
HETATM   13  C9  UNL     1      -9.243  50.648  41.128  1.00  0.00     0.310 C 
HETATM   14  C10 UNL     1      -7.562  50.858  42.827  1.00  0.00     0.153 C 
HETATM   15  C11 UNL     1      -8.784  50.832  43.734  1.00  0.00     0.049 C 
HETATM   16  C12 UNL     1      -6.698  52.021  43.273  1.00  0.00     0.049 C 
HETATM   17  C13 UNL     1      -6.835  49.538  42.927  1.00  0.00     0.058 C 
ENDBRANCH   9  10
ENDBRANCH   3   9
BRANCH   1  18
HETATM   18  N1  UNL     1      -6.339  43.929  38.037  1.00  0.00    -0.372 N 
ATOM     19  H1  UNL     1      -5.981  44.415  37.215  1.00  0.00     0.161 HD
BRANCH  18  20
HETATM   20  C2  UNL     1      -6.934  42.652  37.814  1.00  0.00     0.075 C 
HETATM   21  C1  UNL     1      -8.177  42.879  36.963  1.00  0.00     0.031 C 
HETATM   22  C3  UNL     1      -5.990  41.751  37.049  1.00  0.00     0.031 C 
ENDBRANCH  18  20
ENDBRANCH   1  18
BRANCH   6  23
HETATM   23  N4  UNL     1      -4.456  44.343  42.198  1.00  0.00    -0.224 N 
ATOM     24  H4  UNL     1      -4.776  43.671  42.895  1.00  0.00     0.177 HD
BRANCH  23  25
HETATM   25  C15 UNL     1      -3.097  44.841  42.234  1.00  0.00     0.164 C 
BRANCH  25  26
HETATM   26  C16 UNL     1      -2.738  45.364  43.600  1.00  0.00     0.184 C 
BRANCH  26  27
HETATM   27  O1  UNL     1      -1.874  46.452  43.522  1.00  0.00    -0.399 OA
ATOM     28  H1  UNL     1      -1.787  46.891  44.360  1.00  0.00     0.209 HD
ENDBRANCH  26  27
ENDBRANCH  25  26
ENDBRANCH  23  25
ENDBRANCH   6  23
TORSDOF 8
ENDMDL
MODEL 5
REMARK VINA RESULT: -6.839011237      2.541      6.617
REMARK  8 active torsions:
REMARK  status: ('A' for Active; 'I' for Inactive)
REMARK    1  A    between atoms: C2_2  and  N1_4 
REMARK    2  A    between atoms: N1_4  and  C4_6 
REMARK    3  A    between atoms: C6_8  and  S1_9 
REMARK    4  A    between atoms: S1_9  and  C7_10 
REMARK    5  A    between atoms: C14_20  and  N4_21 
REMARK    6  A    between atoms: N4_21  and  C15_23 
REMARK    7  A    between atoms: C15_23  and  C16_24 
REMARK    8  A    between atoms: C16_24  and  O1_25 
ROOT
HETATM    1  C4  UNL     1      -8.943  50.199  40.505  1.00  0.00     0.119 A 
HETATM    2  C5  UNL     1      -8.085  49.130  40.560  1.00  0.00     0.086 A 
HETATM    3  C6  UNL     1      -8.057  48.179  39.546  1.00  0.00     0.090 A 
HETATM    4  N3  UNL     1      -8.902  48.336  38.501  1.00  0.00    -0.186 N 
ATOM      5  H3  UNL     1      -8.907  47.657  37.740  1.00  0.00     0.185 HD
HETATM    6  C14 UNL     1      -9.735  49.394  38.469  1.00  0.00     0.680 A 
HETATM    7  N5  UNL     1      -9.763  50.314  39.448  1.00  0.00    -0.177 N 
ATOM      8  H5  UNL     1     -10.408  51.102  39.389  1.00  0.00     0.185 HD
ENDROOT
BRANCH   3   9
HETATM    9  S1  UNL     1      -6.965  46.777  39.570  1.00  0.00    -0.105 SA
BRANCH   9  10
HETATM   10  C7  UNL     1      -5.767  47.003  40.889  1.00  0.00     0.084 C 
HETATM   11  C8  UNL     1      -6.312  46.410  42.166  1.00  0.00     0.288 C 
HETATM   12  N2  UNL     1      -5.919  45.035  42.148  1.00  0.00     0.094 N 
HETATM   13  C9  UNL     1      -6.833  44.182  41.432  1.00  0.00     0.310 C 
HETATM   14  C10 UNL     1      -4.598  45.038  41.593  1.00  0.00     0.153 C 
HETATM   15  C11 UNL     1      -4.287  43.768  40.813  1.00  0.00     0.049 C 
HETATM   16  C12 UNL     1      -3.611  45.113  42.740  1.00  0.00     0.049 C 
HETATM   17  C13 UNL     1      -4.490  46.231  40.671  1.00  0.00     0.058 C 
ENDBRANCH   9  10
ENDBRANCH   3   9
BRANCH   1  18
HETATM   18  N1  UNL     1      -8.937  51.054  41.460  1.00  0.00    -0.372 N 
ATOM     19  H1  UNL     1      -9.672  51.762  41.441  1.00  0.00     0.161 HD
BRANCH  18  20
HETATM   20  C2  UNL     1      -8.015  51.123  42.545  1.00  0.00     0.075 C 
HETATM   21  C1  UNL     1      -7.467  52.545  42.579  1.00  0.00     0.031 C 
HETATM   22  C3  UNL     1      -8.716  50.851  43.858  1.00  0.00     0.031 C 
ENDBRANCH  18  20
ENDBRANCH   1  18
BRANCH   6  23
HETATM   23  N4  UNL     1     -10.519  49.494  37.449  1.00  0.00    -0.224 N 
ATOM     24  H4  UNL     1     -10.741  50.411  37.060  1.00  0.00     0.177 HD
BRANCH  23  25
HETATM   25  C15 UNL     1     -11.078  48.297  36.860  1.00  0.00     0.164 C 
BRANCH  25  26
HETATM   26  C16 UNL     1     -10.495  48.026  35.498  1.00  0.00     0.184 C 
BRANCH  26  27
HETATM   27  O1  UNL     1      -9.180  47.580  35.582  1.00  0.00    -0.399 OA
ATOM     28  H1  UNL     1      -9.120  46.640  35.457  1.00  0.00     0.209 HD
ENDBRANCH  26  27
ENDBRANCH  25  26
ENDBRANCH  23  25
ENDBRANCH   6  23
TORSDOF 8
ENDMDL
