MODEL 1
REMARK VINA RESULT: -4.454594635      0.000      0.000
REMARK  5 active torsions:
REMARK  status: ('A' for Active; 'I' for Inactive)
REMARK    1  A    between atoms: O1_2  and  C2_3 
REMARK    2  A    between atoms: C4_5  and  C5_6 
REMARK    3  A    between atoms: C5_6  and  O2_9 
REMARK    4  A    between atoms: C13_16  and  O3_17 
REMARK    5  A    between atoms: C17_22  and  C18_23 
ROOT
HETATM    1  C2  UNL     1      -7.349  41.335  37.117  1.00  0.00     0.100 C 
HETATM    2  C3  UNL     1      -6.534  42.354  37.812  1.00  0.00     0.050 C 
HETATM    3  C4  UNL     1      -6.393  41.975  39.307  1.00  0.00     0.032 C 
HETATM    4  C8  UNL     1      -5.924  40.577  39.296  1.00  0.00    -0.021 C 
HETATM    5  C9  UNL     1      -5.941  39.911  40.599  1.00  0.00     0.012 C 
HETATM    6  C10 UNL     1      -7.455  39.693  40.402  1.00  0.00     0.013 C 
HETATM    7  C11 UNL     1      -7.084  39.626  38.947  1.00  0.00    -0.007 C 
HETATM    8  C12 UNL     1      -6.749  38.213  38.644  1.00  0.00     0.019 C 
HETATM    9  C13 UNL     1      -7.995  40.292  37.970  1.00  0.00     0.162 C 
HETATM   10  C14 UNL     1      -4.793  40.418  38.347  1.00  0.00    -0.008 C 
HETATM   11  C15 UNL     1      -3.710  39.442  38.789  1.00  0.00     0.011 C 
HETATM   12  C16 UNL     1      -5.098  40.135  36.937  1.00  0.00     0.023 C 
HETATM   13  C17 UNL     1      -6.322  40.542  36.268  1.00  0.00     0.124 C 
ENDROOT
BRANCH   3  14
HETATM   14  C5  UNL     1      -5.791  43.032  40.090  1.00  0.00     0.055 C 
HETATM   15  C6  UNL     1      -6.008  44.344  39.280  1.00  0.00     0.045 C 
HETATM   16  C7  UNL     1      -4.362  43.070  40.436  1.00  0.00     0.045 C 
BRANCH  14  17
HETATM   17  O2  UNL     1      -6.519  43.320  41.249  1.00  0.00    -0.390 OA
ATOM     18  H2  UNL     1      -6.539  44.249  41.444  1.00  0.00     0.210 HD
ENDBRANCH  14  17
ENDBRANCH   3  14
BRANCH   1  19
HETATM   19  O1  UNL     1      -8.248  41.801  36.205  1.00  0.00    -0.381 OA
HETATM   20  C1  UNL     1      -8.836  42.988  36.316  1.00  0.00     0.202 C 
ENDBRANCH   1  19
BRANCH   9  21
HETATM   21  O3  UNL     1      -9.227  40.615  38.511  1.00  0.00    -0.392 OA
ATOM     22  H3  UNL     1      -9.760  39.889  38.809  1.00  0.00     0.210 HD
ENDBRANCH   9  21
BRANCH  13  23
HETATM   23  C18 UNL     1      -6.036  41.442  35.099  1.00  0.00     0.180 C 
HETATM   24  O4  UNL     1      -5.234  42.397  35.112  1.00  0.00    -0.648 OA
HETATM   25  O5  UNL     1      -6.726  41.180  33.900  1.00  0.00    -0.648 OA
ENDBRANCH  13  23
TORSDOF 5
ENDMDL
MODEL 2
REMARK VINA RESULT: -4.451878305      2.108      5.420
REMARK  5 active torsions:
REMARK  status: ('A' for Active; 'I' for Inactive)
REMARK    1  A    between atoms: O1_2  and  C2_3 
REMARK    2  A    between atoms: C4_5  and  C5_6 
REMARK    3  A    between atoms: C5_6  and  O2_9 
REMARK    4  A    between atoms: C13_16  and  O3_17 
REMARK    5  A    between atoms: C17_22  and  C18_23 
ROOT
HETATM    1  C2  UNL     1      -6.860  41.531  36.695  1.00  0.00     0.100 C 
HETATM    2  C3  UNL     1      -8.150  42.215  36.463  1.00  0.00     0.050 C 
HETATM    3  C4  UNL     1      -8.334  42.476  34.948  1.00  0.00     0.032 C 
HETATM    4  C8  UNL     1      -8.100  41.167  34.311  1.00  0.00    -0.021 C 
HETATM    5  C9  UNL     1      -7.984  41.204  32.852  1.00  0.00     0.012 C 
HETATM    6  C10 UNL     1      -6.529  41.681  33.039  1.00  0.00     0.013 C 
HETATM    7  C11 UNL     1      -6.594  40.845  34.287  1.00  0.00    -0.007 C 
HETATM    8  C12 UNL     1      -6.190  39.467  33.915  1.00  0.00     0.019 C 
HETATM    9  C13 UNL     1      -5.950  41.390  35.518  1.00  0.00     0.162 C 
HETATM   10  C14 UNL     1      -8.867  40.106  35.012  1.00  0.00    -0.008 C 
HETATM   11  C15 UNL     1      -9.434  39.016  34.112  1.00  0.00     0.011 C 
HETATM   12  C16 UNL     1      -8.248  39.448  36.172  1.00  0.00     0.023 C 
HETATM   13  C17 UNL     1      -7.260  40.072  37.035  1.00  0.00     0.124 C 
ENDROOT
BRANCH   3  14
HETATM   14  C5  UNL     1      -9.468  43.329  34.669  1.00  0.00     0.055 C 
HETATM   15  C6  UNL     1      -9.845  44.000  36.023  1.00  0.00     0.045 C 
HETATM   16  C7  UNL     1     -10.754  42.826  34.161  1.00  0.00     0.045 C 
BRANCH  14  17
HETATM   17  O2  UNL     1      -9.120  44.452  33.911  1.00  0.00    -0.390 OA
ATOM     18  H2  UNL     1      -9.731  45.170  34.024  1.00  0.00     0.210 HD
ENDBRANCH  14  17
ENDBRANCH   3  14
BRANCH   1  19
HETATM   19  O1  UNL     1      -6.145  41.943  37.780  1.00  0.00    -0.381 OA
HETATM   20  C1  UNL     1      -6.219  43.179  38.262  1.00  0.00     0.202 C 
ENDBRANCH   1  19
BRANCH   9  21
HETATM   21  O3  UNL     1      -5.107  42.457  35.262  1.00  0.00    -0.392 OA
ATOM     22  H3  UNL     1      -5.489  43.324  35.334  1.00  0.00     0.210 HD
ENDBRANCH   9  21
BRANCH  13  23
HETATM   23  C18 UNL     1      -7.740  40.142  38.457  1.00  0.00     0.180 C 
HETATM   24  O4  UNL     1      -8.883  40.499  38.809  1.00  0.00    -0.648 OA
HETATM   25  O5  UNL     1      -6.829  39.774  39.465  1.00  0.00    -0.648 OA
ENDBRANCH  13  23
TORSDOF 5
ENDMDL
MODEL 3
REMARK VINA RESULT: -4.435602386      2.948      4.624
REMARK  5 active torsions:
REMARK  status: ('A' for Active; 'I' for Inactive)
REMARK    1  A    between atoms: O1_2  and  C2_3 
REMARK    2  A    between atoms: C4_5  and  C5_6 
REMARK    3  A    between atoms: C5_6  and  O2_9 
REMARK    4  A    between atoms: C13_16  and  O3_17 
REMARK    5  A    between atoms: C17_22  and  C18_23 
ROOT
HETATM    1  C2  UNL     1     -10.399  42.954  35.182  1.00  0.00     0.100 C 
HETATM    2  C3  UNL     1      -9.344  43.397  36.118  1.00  0.00     0.050 C 
HETATM    3  C4  UNL     1      -8.535  42.171  36.607  1.00  0.00     0.032 C 
HETATM    4  C8  UNL     1      -8.139  41.467  35.373  1.00  0.00    -0.021 C 
HETATM    5  C9  UNL     1      -7.562  40.138  35.580  1.00  0.00     0.012 C 
HETATM    6  C10 UNL     1      -8.999  39.605  35.749  1.00  0.00     0.013 C 
HETATM    7  C11 UNL     1      -9.340  40.704  34.783  1.00  0.00    -0.007 C 
HETATM    8  C12 UNL     1      -9.198  40.148  33.415  1.00  0.00     0.019 C 
HETATM    9  C13 UNL     1     -10.591  41.479  35.031  1.00  0.00     0.162 C 
HETATM   10  C14 UNL     1      -7.574  42.426  34.390  1.00  0.00    -0.008 C 
HETATM   11  C15 UNL     1      -6.420  41.889  33.553  1.00  0.00     0.011 C 
HETATM   12  C16 UNL     1      -8.497  43.121  33.480  1.00  0.00     0.023 C 
HETATM   13  C17 UNL     1      -9.887  43.409  33.791  1.00  0.00     0.124 C 
ENDROOT
BRANCH   3  14
HETATM   14  C5  UNL     1      -7.629  42.501  37.685  1.00  0.00     0.055 C 
HETATM   15  C6  UNL     1      -7.900  43.995  38.032  1.00  0.00     0.045 C 
HETATM   16  C7  UNL     1      -6.165  42.433  37.561  1.00  0.00     0.045 C 
BRANCH  14  17
HETATM   17  O2  UNL     1      -7.985  41.887  38.890  1.00  0.00    -0.390 OA
ATOM     18  H2  UNL     1      -7.297  41.327  39.229  1.00  0.00     0.210 HD
ENDBRANCH  14  17
ENDBRANCH   3  14
BRANCH   1  19
HETATM   19  O1  UNL     1     -11.612  43.563  35.307  1.00  0.00    -0.381 OA
HETATM   20  C1  UNL     1     -12.136  43.886  36.485  1.00  0.00     0.202 C 
ENDBRANCH   1  19
BRANCH   9  21
HETATM   21  O3  UNL     1     -11.432  40.872  35.947  1.00  0.00    -0.392 OA
ATOM     22  H3  UNL     1     -11.517  39.929  35.881  1.00  0.00     0.210 HD
ENDBRANCH   9  21
BRANCH  13  23
HETATM   23  C18 UNL     1     -10.161  44.886  33.761  1.00  0.00     0.180 C 
HETATM   24  O4  UNL     1      -9.375  45.767  34.163  1.00  0.00    -0.648 OA
HETATM   25  O5  UNL     1     -11.399  45.301  33.236  1.00  0.00    -0.648 OA
ENDBRANCH  13  23
TORSDOF 5
ENDMDL
MODEL 4
REMARK VINA RESULT: -4.367293461      3.024      6.197
REMARK  5 active torsions:
REMARK  status: ('A' for Active; 'I' for Inactive)
REMARK    1  A    between atoms: O1_2  and  C2_3 
REMARK    2  A    between atoms: C4_5  and  C5_6 
REMARK    3  A    between atoms: C5_6  and  O2_9 
REMARK    4  A    between atoms: C13_16  and  O3_17 
REMARK    5  A    between atoms: C17_22  and  C18_23 
ROOT
HETATM    1  C2  UNL     1      -8.740  42.339  35.510  1.00  0.00     0.100 C 
HETATM    2  C3  UNL     1      -9.475  41.146  35.982  1.00  0.00     0.050 C 
HETATM    3  C4  UNL     1     -10.905  41.554  36.415  1.00  0.00     0.032 C 
HETATM    4  C8  UNL     1     -11.441  42.310  35.268  1.00  0.00    -0.021 C 
HETATM    5  C9  UNL     1     -12.701  43.009  35.526  1.00  0.00     0.012 C 
HETATM    6  C10 UNL     1     -11.878  44.114  36.220  1.00  0.00     0.013 C 
HETATM    7  C11 UNL     1     -10.825  43.722  35.222  1.00  0.00    -0.007 C 
HETATM    8  C12 UNL     1     -11.053  44.532  34.001  1.00  0.00     0.019 C 
HETATM    9  C13 UNL     1      -9.412  43.662  35.696  1.00  0.00     0.162 C 
HETATM   10  C14 UNL     1     -11.196  41.574  34.002  1.00  0.00    -0.008 C 
HETATM   11  C15 UNL     1     -12.306  41.683  32.964  1.00  0.00     0.011 C 
HETATM   12  C16 UNL     1      -9.916  41.783  33.308  1.00  0.00     0.023 C 
HETATM   13  C17 UNL     1      -8.680  42.163  33.971  1.00  0.00     0.124 C 
ENDROOT
BRANCH   3  14
HETATM   14  C5  UNL     1     -11.606  40.482  37.085  1.00  0.00     0.055 C 
HETATM   15  C6  UNL     1     -10.513  39.644  37.814  1.00  0.00     0.045 C 
HETATM   16  C7  UNL     1     -12.405  39.470  36.377  1.00  0.00     0.045 C 
BRANCH  14  17
HETATM   17  O2  UNL     1     -12.356  40.932  38.176  1.00  0.00    -0.390 OA
ATOM     18  H2  UNL     1     -11.823  41.083  38.947  1.00  0.00     0.210 HD
ENDBRANCH  14  17
ENDBRANCH   3  14
BRANCH   1  19
HETATM   19  O1  UNL     1      -7.434  42.432  35.887  1.00  0.00    -0.381 OA
HETATM   20  C1  UNL     1      -6.969  41.893  37.009  1.00  0.00     0.202 C 
ENDBRANCH   1  19
BRANCH   9  21
HETATM   21  O3  UNL     1      -9.223  44.280  36.919  1.00  0.00    -0.392 OA
ATOM     22  H3  UNL     1      -8.569  44.968  36.947  1.00  0.00     0.210 HD
ENDBRANCH   9  21
BRANCH  13  23
HETATM   23  C18 UNL     1      -7.606  41.134  33.758  1.00  0.00     0.180 C 
HETATM   24  O4  UNL     1      -7.740  39.910  33.954  1.00  0.00    -0.648 OA
HETATM   25  O5  UNL     1      -6.356  41.593  33.300  1.00  0.00    -0.648 OA
ENDBRANCH  13  23
TORSDOF 5
ENDMDL
MODEL 5
REMARK VINA RESULT: -4.242700085      3.719      6.997
REMARK  5 active torsions:
REMARK  status: ('A' for Active; 'I' for Inactive)
REMARK    1  A    between atoms: O1_2  and  C2_3 
REMARK    2  A    between atoms: C4_5  and  C5_6 
REMARK    3  A    between atoms: C5_6  and  O2_9 
REMARK    4  A    between atoms: C13_16  and  O3_17 
REMARK    5  A    between atoms: C17_22  and  C18_23 
ROOT
HETATM    1  C2  UNL     1      -9.659  41.802  34.427  1.00  0.00     0.100 C 
HETATM    2  C3  UNL     1      -9.860  43.262  34.549  1.00  0.00     0.050 C 
HETATM    3  C4  UNL     1     -11.232  43.650  33.945  1.00  0.00     0.032 C 
HETATM    4  C8  UNL     1     -12.197  42.744  34.596  1.00  0.00    -0.021 C 
HETATM    5  C9  UNL     1     -13.540  42.755  34.015  1.00  0.00     0.012 C 
HETATM    6  C10 UNL     1     -13.003  41.829  32.904  1.00  0.00     0.013 C 
HETATM    7  C11 UNL     1     -12.094  41.331  33.993  1.00  0.00    -0.007 C 
HETATM    8  C12 UNL     1     -12.806  40.232  34.690  1.00  0.00     0.019 C 
HETATM    9  C13 UNL     1     -10.675  41.047  33.632  1.00  0.00     0.162 C 
HETATM   10  C14 UNL     1     -11.975  42.721  36.064  1.00  0.00    -0.008 C 
HETATM   11  C15 UNL     1     -13.239  42.611  36.907  1.00  0.00     0.011 C 
HETATM   12  C16 UNL     1     -10.994  41.771  36.608  1.00  0.00     0.023 C 
HETATM   13  C17 UNL     1      -9.845  41.273  35.873  1.00  0.00     0.124 C 
ENDROOT
BRANCH   3  14
HETATM   14  C5  UNL     1     -11.402  45.082  33.836  1.00  0.00     0.055 C 
HETATM   15  C6  UNL     1      -9.974  45.670  33.630  1.00  0.00     0.045 C 
HETATM   16  C7  UNL     1     -11.969  45.914  34.908  1.00  0.00     0.045 C 
BRANCH  14  17
HETATM   17  O2  UNL     1     -12.012  45.458  32.635  1.00  0.00    -0.390 OA
ATOM     18  H2  UNL     1     -12.958  45.371  32.665  1.00  0.00     0.210 HD
ENDBRANCH  14  17
ENDBRANCH   3  14
BRANCH   1  19
HETATM   19  O1  UNL     1      -8.407  41.392  34.079  1.00  0.00    -0.381 OA
HETATM   20  C1  UNL     1      -7.535  42.185  33.465  1.00  0.00     0.202 C 
ENDBRANCH   1  19
BRANCH   9  21
HETATM   21  O3  UNL     1     -10.464  40.985  32.266  1.00  0.00    -0.392 OA
ATOM     22  H3  UNL     1     -10.577  41.795  31.785  1.00  0.00     0.210 HD
ENDBRANCH   9  21
BRANCH  13  23
HETATM   23  C18 UNL     1      -8.557  41.623  36.563  1.00  0.00     0.180 C 
HETATM   24  O4  UNL     1      -8.264  42.755  36.996  1.00  0.00    -0.648 OA
HETATM   25  O5  UNL     1      -7.615  40.591  36.733  1.00  0.00    -0.648 OA
ENDBRANCH  13  23
TORSDOF 5
ENDMDL
