MODEL 1
REMARK VINA RESULT: -7.284087083      0.000      0.000
REMARK  6 active torsions:
REMARK  status: ('A' for Active; 'I' for Inactive)
REMARK    1  A    between atoms: C2_2  and  C3_3 
REMARK    2  A    between atoms: C3_3  and  C4_4 
REMARK    3  A    between atoms: C4_4  and  O1_5 
REMARK       I    between atoms: N1_13  and  C11_14 
REMARK    4  A    between atoms: C11_14  and  C12_16 
REMARK    5  A    between atoms: C12_16  and  C13_17 
REMARK    6  A    between atoms: C15_20  and  N2_21 
ROOT
HETATM    1  C3  UNL     1      -7.712  51.041  42.863  1.00  0.00    -0.010 C 
HETATM    2  C5  UNL     1      -8.633  52.200  42.470  1.00  0.00     0.012 C 
HETATM    3  C6  UNL     1      -8.202  52.467  41.057  1.00  0.00     0.002 C 
HETATM    4  C7  UNL     1      -7.612  51.207  40.519  1.00  0.00     0.012 C 
HETATM    5  C8  UNL     1      -7.791  50.185  41.653  1.00  0.00    -0.013 C 
HETATM    6  C9  UNL     1      -9.112  49.530  41.428  1.00  0.00     0.032 C 
HETATM    7  C10 UNL     1      -8.726  48.338  40.561  1.00  0.00     0.126 C 
HETATM    8  N1  UNL     1      -7.492  47.877  41.221  1.00  0.00    -0.351 N 
HETATM    9  C11 UNL     1      -7.102  46.541  41.475  1.00  0.00     0.225 C 
HETATM   10  O2  UNL     1      -6.015  46.322  42.050  1.00  0.00    -0.273 OA
HETATM   11  C16 UNL     1      -6.768  49.093  41.552  1.00  0.00     0.136 C 
ENDROOT
BRANCH   9  12
HETATM   12  C12 UNL     1      -7.964  45.449  41.067  1.00  0.00     0.160 C 
BRANCH  12  13
HETATM   13  C13 UNL     1      -7.191  44.353  40.343  1.00  0.00     0.026 A 
HETATM   14  C14 UNL     1      -7.241  44.311  38.977  1.00  0.00     0.078 A 
HETATM   15  S1  UNL     1      -6.261  42.961  38.610  1.00  0.00    -0.064 SA
HETATM   16  C15 UNL     1      -5.844  42.526  40.202  1.00  0.00     0.142 A 
HETATM   17  N3  UNL     1      -6.468  43.427  40.948  1.00  0.00    -0.340 N 
ATOM     18  H3  UNL     1      -6.392  43.407  41.965  1.00  0.00     0.168 HD
BRANCH  16  19
HETATM   19  N2  UNL     1      -5.083  41.537  40.621  1.00  0.00    -0.380 N 
ATOM     20  H22 UNL     1      -4.221  41.610  41.161  1.00  0.00     0.158 HD
ATOM     21  H21 UNL     1      -5.203  40.532  40.492  1.00  0.00     0.158 HD
ENDBRANCH  16  19
ENDBRANCH  12  13
ENDBRANCH   9  12
BRANCH   1  22
HETATM   22  C2  UNL     1      -6.339  51.581  43.038  1.00  0.00     0.008 C 
HETATM   23  C1  UNL     1      -6.284  53.016  43.514  1.00  0.00     0.006 C 
ENDBRANCH   1  22
BRANCH   1  24
HETATM   24  C4  UNL     1      -8.167  50.411  44.146  1.00  0.00     0.174 C 
BRANCH  24  25
HETATM   25  O1  UNL     1      -7.122  49.933  44.928  1.00  0.00    -0.400 OA
ATOM     26  H1  UNL     1      -6.290  50.352  44.743  1.00  0.00     0.209 HD
ENDBRANCH  24  25
ENDBRANCH   1  24
TORSDOF 6
ENDMDL
MODEL 2
REMARK VINA RESULT: -7.140087879      4.285      5.522
REMARK  6 active torsions:
REMARK  status: ('A' for Active; 'I' for Inactive)
REMARK    1  A    between atoms: C2_2  and  C3_3 
REMARK    2  A    between atoms: C3_3  and  C4_4 
REMARK    3  A    between atoms: C4_4  and  O1_5 
REMARK       I    between atoms: N1_13  and  C11_14 
REMARK    4  A    between atoms: C11_14  and  C12_16 
REMARK    5  A    between atoms: C12_16  and  C13_17 
REMARK    6  A    between atoms: C15_20  and  N2_21 
ROOT
HETATM    1  C3  UNL     1      -7.645  50.502  41.876  1.00  0.00    -0.010 C 
HETATM    2  C5  UNL     1      -6.256  50.227  42.460  1.00  0.00     0.012 C 
HETATM    3  C6  UNL     1      -6.340  48.762  42.769  1.00  0.00     0.002 C 
HETATM    4  C7  UNL     1      -7.368  48.167  41.867  1.00  0.00     0.012 C 
HETATM    5  C8  UNL     1      -7.817  49.335  40.975  1.00  0.00    -0.013 C 
HETATM    6  C9  UNL     1      -6.924  49.324  39.780  1.00  0.00     0.032 C 
HETATM    7  C10 UNL     1      -7.701  48.433  38.818  1.00  0.00     0.126 C 
HETATM    8  N1  UNL     1      -9.080  48.911  39.018  1.00  0.00    -0.351 N 
HETATM    9  C11 UNL     1     -10.065  49.132  38.027  1.00  0.00     0.225 C 
HETATM   10  O2  UNL     1     -11.194  49.542  38.370  1.00  0.00    -0.273 OA
HETATM   11  C16 UNL     1      -9.204  49.106  40.454  1.00  0.00     0.136 C 
ENDROOT
BRANCH   9  12
HETATM   12  C12 UNL     1      -9.753  48.878  36.633  1.00  0.00     0.160 C 
BRANCH  12  13
HETATM   13  C13 UNL     1     -10.728  47.891  36.002  1.00  0.00     0.026 A 
HETATM   14  C14 UNL     1     -10.261  46.663  35.624  1.00  0.00     0.078 A 
HETATM   15  S1  UNL     1     -11.656  45.916  34.984  1.00  0.00    -0.064 SA
HETATM   16  C15 UNL     1     -12.750  47.197  35.228  1.00  0.00     0.142 A 
HETATM   17  N3  UNL     1     -12.007  48.142  35.788  1.00  0.00    -0.340 N 
ATOM     18  H3  UNL     1     -12.414  49.041  36.048  1.00  0.00     0.168 HD
BRANCH  16  19
HETATM   19  N2  UNL     1     -14.033  47.261  34.940  1.00  0.00    -0.380 N 
ATOM     20  H22 UNL     1     -14.628  46.503  34.609  1.00  0.00     0.158 HD
ATOM     21  H21 UNL     1     -14.665  48.061  34.990  1.00  0.00     0.158 HD
ENDBRANCH  16  19
ENDBRANCH  12  13
ENDBRANCH   9  12
BRANCH   1  22
HETATM   22  C2  UNL     1      -8.630  50.460  42.988  1.00  0.00     0.008 C 
HETATM   23  C1  UNL     1      -8.064  50.820  44.343  1.00  0.00     0.006 C 
ENDBRANCH   1  22
BRANCH   1  24
HETATM   24  C4  UNL     1      -7.690  51.852  41.221  1.00  0.00     0.174 C 
BRANCH  24  25
HETATM   25  O1  UNL     1      -8.878  52.536  41.447  1.00  0.00    -0.400 OA
ATOM     26  H1  UNL     1      -8.820  53.172  42.151  1.00  0.00     0.209 HD
ENDBRANCH  24  25
ENDBRANCH   1  24
TORSDOF 6
ENDMDL
MODEL 3
REMARK VINA RESULT: -6.959854997      2.116      3.001
REMARK  6 active torsions:
REMARK  status: ('A' for Active; 'I' for Inactive)
REMARK    1  A    between atoms: C2_2  and  C3_3 
REMARK    2  A    between atoms: C3_3  and  C4_4 
REMARK    3  A    between atoms: C4_4  and  O1_5 
REMARK       I    between atoms: N1_13  and  C11_14 
REMARK    4  A    between atoms: C11_14  and  C12_16 
REMARK    5  A    between atoms: C12_16  and  C13_17 
REMARK    6  A    between atoms: C15_20  and  N2_21 
ROOT
HETATM    1  C3  UNL     1      -8.384  50.739  42.670  1.00  0.00    -0.010 C 
HETATM    2  C5  UNL     1      -8.349  52.182  42.157  1.00  0.00     0.012 C 
HETATM    3  C6  UNL     1      -7.046  52.673  42.716  1.00  0.00     0.002 C 
HETATM    4  C7  UNL     1      -6.169  51.485  42.928  1.00  0.00     0.012 C 
HETATM    5  C8  UNL     1      -6.993  50.301  42.398  1.00  0.00    -0.013 C 
HETATM    6  C9  UNL     1      -6.647  50.157  40.954  1.00  0.00     0.032 C 
HETATM    7  C10 UNL     1      -5.479  49.181  41.008  1.00  0.00     0.126 C 
HETATM    8  N1  UNL     1      -5.947  48.212  42.014  1.00  0.00    -0.351 N 
HETATM    9  C11 UNL     1      -5.820  46.803  41.975  1.00  0.00     0.225 C 
HETATM   10  O2  UNL     1      -6.277  46.124  42.918  1.00  0.00    -0.273 OA
HETATM   11  C16 UNL     1      -6.567  49.020  43.051  1.00  0.00     0.136 C 
ENDROOT
BRANCH   9  12
HETATM   12  C12 UNL     1      -5.164  46.170  40.847  1.00  0.00     0.160 C 
BRANCH  12  13
HETATM   13  C13 UNL     1      -6.163  45.706  39.794  1.00  0.00     0.026 A 
HETATM   14  C14 UNL     1      -6.471  44.375  39.728  1.00  0.00     0.078 A 
HETATM   15  S1  UNL     1      -7.593  44.317  38.441  1.00  0.00    -0.064 SA
HETATM   16  C15 UNL     1      -7.608  45.976  38.059  1.00  0.00     0.142 A 
HETATM   17  N3  UNL     1      -6.759  46.506  38.928  1.00  0.00    -0.340 N 
ATOM     18  H3  UNL     1      -6.569  47.509  38.928  1.00  0.00     0.168 HD
BRANCH  16  19
HETATM   19  N2  UNL     1      -8.292  46.609  37.129  1.00  0.00    -0.380 N 
ATOM     20  H22 UNL     1      -8.246  46.458  36.122  1.00  0.00     0.158 HD
ATOM     21  H21 UNL     1      -8.981  47.354  37.231  1.00  0.00     0.158 HD
ENDBRANCH  16  19
ENDBRANCH  12  13
ENDBRANCH   9  12
BRANCH   1  22
HETATM   22  C2  UNL     1      -8.650  50.775  44.131  1.00  0.00     0.008 C 
HETATM   23  C1  UNL     1     -10.114  50.724  44.505  1.00  0.00     0.006 C 
ENDBRANCH   1  22
BRANCH   1  24
HETATM   24  C4  UNL     1      -9.467  49.957  41.985  1.00  0.00     0.174 C 
BRANCH  24  25
HETATM   25  O1  UNL     1      -9.859  50.506  40.769  1.00  0.00    -0.400 OA
ATOM     26  H1  UNL     1     -10.449  49.948  40.277  1.00  0.00     0.209 HD
ENDBRANCH  24  25
ENDBRANCH   1  24
TORSDOF 6
ENDMDL
MODEL 4
REMARK VINA RESULT: -6.929951124      1.232      1.545
REMARK  6 active torsions:
REMARK  status: ('A' for Active; 'I' for Inactive)
REMARK    1  A    between atoms: C2_2  and  C3_3 
REMARK    2  A    between atoms: C3_3  and  C4_4 
REMARK    3  A    between atoms: C4_4  and  O1_5 
REMARK       I    between atoms: N1_13  and  C11_14 
REMARK    4  A    between atoms: C11_14  and  C12_16 
REMARK    5  A    between atoms: C12_16  and  C13_17 
REMARK    6  A    between atoms: C15_20  and  N2_21 
ROOT
HETATM    1  C3  UNL     1      -7.640  50.886  42.780  1.00  0.00    -0.010 C 
HETATM    2  C5  UNL     1      -8.630  51.898  42.195  1.00  0.00     0.012 C 
HETATM    3  C6  UNL     1      -8.157  52.000  40.774  1.00  0.00     0.002 C 
HETATM    4  C7  UNL     1      -7.447  50.731  40.441  1.00  0.00     0.012 C 
HETATM    5  C8  UNL     1      -7.598  49.866  41.703  1.00  0.00    -0.013 C 
HETATM    6  C9  UNL     1      -8.852  49.078  41.529  1.00  0.00     0.032 C 
HETATM    7  C10 UNL     1      -8.336  47.813  40.854  1.00  0.00     0.126 C 
HETATM    8  N1  UNL     1      -7.102  47.553  41.615  1.00  0.00    -0.351 N 
HETATM    9  C11 UNL     1      -6.621  46.303  42.070  1.00  0.00     0.225 C 
HETATM   10  O2  UNL     1      -5.547  46.258  42.707  1.00  0.00    -0.273 OA
HETATM   11  C16 UNL     1      -6.490  48.860  41.794  1.00  0.00     0.136 C 
ENDROOT
BRANCH   9  12
HETATM   12  C12 UNL     1      -7.376  45.096  41.792  1.00  0.00     0.160 C 
BRANCH  12  13
HETATM   13  C13 UNL     1      -7.108  44.567  40.388  1.00  0.00     0.026 A 
HETATM   14  C14 UNL     1      -5.859  44.094  40.095  1.00  0.00     0.078 A 
HETATM   15  S1  UNL     1      -6.014  43.623  38.461  1.00  0.00    -0.064 SA
HETATM   16  C15 UNL     1      -7.646  44.052  38.240  1.00  0.00     0.142 A 
HETATM   17  N3  UNL     1      -8.007  44.536  39.421  1.00  0.00    -0.340 N 
ATOM     18  H3  UNL     1      -8.956  44.875  39.578  1.00  0.00     0.168 HD
BRANCH  16  19
HETATM   19  N2  UNL     1      -8.397  43.939  37.164  1.00  0.00    -0.380 N 
ATOM     20  H22 UNL     1      -8.154  44.213  36.213  1.00  0.00     0.158 HD
ATOM     21  H21 UNL     1      -9.343  43.568  37.075  1.00  0.00     0.158 HD
ENDBRANCH  16  19
ENDBRANCH  12  13
ENDBRANCH   9  12
BRANCH   1  22
HETATM   22  C2  UNL     1      -6.323  51.558  42.923  1.00  0.00     0.008 C 
HETATM   23  C1  UNL     1      -6.396  52.985  43.419  1.00  0.00     0.006 C 
ENDBRANCH   1  22
BRANCH   1  24
HETATM   24  C4  UNL     1      -8.104  50.405  44.124  1.00  0.00     0.174 C 
BRANCH  24  25
HETATM   25  O1  UNL     1      -7.066  49.986  44.948  1.00  0.00    -0.400 OA
ATOM     26  H1  UNL     1      -7.169  50.260  45.853  1.00  0.00     0.209 HD
ENDBRANCH  24  25
ENDBRANCH   1  24
TORSDOF 6
ENDMDL
MODEL 5
REMARK VINA RESULT: -6.899242913      4.455      6.077
REMARK  6 active torsions:
REMARK  status: ('A' for Active; 'I' for Inactive)
REMARK    1  A    between atoms: C2_2  and  C3_3 
REMARK    2  A    between atoms: C3_3  and  C4_4 
REMARK    3  A    between atoms: C4_4  and  O1_5 
REMARK       I    between atoms: N1_13  and  C11_14 
REMARK    4  A    between atoms: C11_14  and  C12_16 
REMARK    5  A    between atoms: C12_16  and  C13_17 
REMARK    6  A    between atoms: C15_20  and  N2_21 
ROOT
HETATM    1  C3  UNL     1      -6.650  48.388  40.977  1.00  0.00    -0.010 C 
HETATM    2  C5  UNL     1      -5.686  47.309  41.482  1.00  0.00     0.012 C 
HETATM    3  C6  UNL     1      -6.631  46.199  41.839  1.00  0.00     0.002 C 
HETATM    4  C7  UNL     1      -7.864  46.374  41.019  1.00  0.00     0.012 C 
HETATM    5  C8  UNL     1      -7.560  47.585  40.123  1.00  0.00    -0.013 C 
HETATM    6  C9  UNL     1      -6.945  47.046  38.876  1.00  0.00     0.032 C 
HETATM    7  C10 UNL     1      -8.166  46.834  37.991  1.00  0.00     0.126 C 
HETATM    8  N1  UNL     1      -8.945  48.054  38.261  1.00  0.00    -0.351 N 
HETATM    9  C11 UNL     1      -9.651  48.848  37.326  1.00  0.00     0.225 C 
HETATM   10  O2  UNL     1     -10.265  49.860  37.726  1.00  0.00    -0.273 OA
HETATM   11  C16 UNL     1      -8.828  48.263  39.695  1.00  0.00     0.136 C 
ENDROOT
BRANCH   9  12
HETATM   12  C12 UNL     1      -9.654  48.478  35.924  1.00  0.00     0.160 C 
BRANCH  12  13
HETATM   13  C13 UNL     1     -10.847  47.597  35.570  1.00  0.00     0.026 A 
HETATM   14  C14 UNL     1     -10.615  46.304  35.192  1.00  0.00     0.078 A 
HETATM   15  S1  UNL     1     -12.190  45.715  34.896  1.00  0.00    -0.064 SA
HETATM   16  C15 UNL     1     -13.052  47.135  35.267  1.00  0.00     0.142 A 
HETATM   17  N3  UNL     1     -12.105  48.001  35.601  1.00  0.00    -0.340 N 
ATOM     18  H3  UNL     1     -12.341  48.955  35.875  1.00  0.00     0.168 HD
BRANCH  16  19
HETATM   19  N2  UNL     1     -14.351  47.351  35.238  1.00  0.00    -0.380 N 
ATOM     20  H22 UNL     1     -15.031  46.929  34.608  1.00  0.00     0.158 HD
ATOM     21  H21 UNL     1     -14.915  47.967  35.825  1.00  0.00     0.158 HD
ENDBRANCH  16  19
ENDBRANCH  12  13
ENDBRANCH   9  12
BRANCH   1  22
HETATM   22  C2  UNL     1      -7.377  48.942  42.148  1.00  0.00     0.008 C 
HETATM   23  C1  UNL     1      -6.710  50.135  42.795  1.00  0.00     0.006 C 
ENDBRANCH   1  22
BRANCH   1  24
HETATM   24  C4  UNL     1      -5.901  49.490  40.287  1.00  0.00     0.174 C 
BRANCH  24  25
HETATM   25  O1  UNL     1      -4.547  49.220  40.125  1.00  0.00    -0.400 OA
ATOM     26  H1  UNL     1      -4.267  49.225  39.217  1.00  0.00     0.209 HD
ENDBRANCH  24  25
ENDBRANCH   1  24
TORSDOF 6
ENDMDL
