MODEL 1
REMARK VINA RESULT: -7.197918818      0.000      0.000
REMARK  11 active torsions:
REMARK  status: ('A' for Active; 'I' for Inactive)
REMARK    1  A    between atoms: C2_2  and  C4_4 
REMARK    2  A    between atoms: C4_4  and  C5_5 
REMARK    3  A    between atoms: C5_5  and  N1_6 
REMARK    4  A    between atoms: N1_6  and  C6_9 
REMARK    5  A    between atoms: C6_9  and  C7_10 
REMARK    6  A    between atoms: C6_9  and  C8_15 
REMARK    7  A    between atoms: N2_11  and  O1_13 
REMARK    8  A    between atoms: C8_15  and  S1_16 
REMARK    9  A    between atoms: S1_16  and  N3_19 
REMARK   10  A    between atoms: N3_19  and  C9_21 
REMARK   11  A    between atoms: C9_21  and  C10_22 
ROOT
HETATM    1  C8  UNL     1     -23.846  40.433  16.324  1.00  0.00     0.201 C 
ENDROOT
BRANCH   1   2
HETATM    2  C6  UNL     1     -24.716  39.269  15.974  1.00  0.00     0.241 C 
BRANCH   2   3
HETATM    3  N1  UNL     1     -23.995  38.081  15.572  1.00  0.00    -0.065 N 
ATOM      4  H12 UNL     1     -23.724  38.114  14.589  1.00  0.00     0.278 HD
ATOM      5  H11 UNL     1     -24.602  37.262  15.532  1.00  0.00     0.278 HD
BRANCH   3   6
HETATM    6  C5  UNL     1     -22.836  37.863  16.454  1.00  0.00     0.233 C 
BRANCH   6   7
HETATM    7  C4  UNL     1     -22.850  36.414  16.832  1.00  0.00     0.031 C 
BRANCH   7   8
HETATM    8  C2  UNL     1     -21.803  35.612  16.094  1.00  0.00    -0.021 C 
HETATM    9  C1  UNL     1     -20.465  36.268  16.072  1.00  0.00     0.009 C 
HETATM   10  C3  UNL     1     -21.641  34.255  16.754  1.00  0.00     0.009 C 
ENDBRANCH   7   8
ENDBRANCH   6   7
ENDBRANCH   3   6
ENDBRANCH   2   3
BRANCH   2  11
HETATM   11  C7  UNL     1     -25.762  39.609  14.975  1.00  0.00     0.120 C 
HETATM   12  N2  UNL     1     -27.023  39.571  15.235  1.00  0.00    -0.282 N 
ATOM     13  H2  UNL     1     -27.712  39.812  14.523  1.00  0.00     0.192 HD
BRANCH  12  14
HETATM   14  O1  UNL     1     -27.409  39.199  16.490  1.00  0.00    -0.291 OA
ATOM     15  H1  UNL     1     -27.965  39.792  16.982  1.00  0.00     0.244 HD
ENDBRANCH  12  14
ENDBRANCH   2  11
ENDBRANCH   1   2
BRANCH   1  16
HETATM   16  S1  UNL     1     -24.547  41.469  17.580  1.00  0.00     0.228 S 
HETATM   17  O2  UNL     1     -24.618  42.877  16.999  1.00  0.00    -0.206 OA
HETATM   18  O3  UNL     1     -25.926  41.055  17.932  1.00  0.00    -0.206 OA
BRANCH  16  19
HETATM   19  N3  UNL     1     -23.562  41.572  18.967  1.00  0.00    -0.319 N 
ATOM     20  H3  UNL     1     -22.684  41.068  19.086  1.00  0.00     0.172 HD
BRANCH  19  21
HETATM   21  C9  UNL     1     -24.118  42.452  19.942  1.00  0.00     0.145 C 
BRANCH  21  22
HETATM   22  C10 UNL     1     -23.765  42.061  21.359  1.00  0.00     0.096 C 
HETATM   23  C11 UNL     1     -22.295  41.809  21.482  1.00  0.00     0.017 C 
HETATM   24  C12 UNL     1     -21.890  41.040  22.688  1.00  0.00     0.020 C 
HETATM   25  C13 UNL     1     -22.962  40.807  23.698  1.00  0.00     0.122 C 
HETATM   26  N4  UNL     1     -24.171  40.303  23.063  1.00  0.00    -0.361 N 
HETATM   27  C14 UNL     1     -24.551  40.924  21.844  1.00  0.00     0.223 C 
ATOM     28  H4  UNL     1     -24.715  39.544  23.471  1.00  0.00     0.162 HD
HETATM   29  O4  UNL     1     -25.532  40.517  21.195  1.00  0.00    -0.273 OA
ENDBRANCH  21  22
ENDBRANCH  19  21
ENDBRANCH  16  19
ENDBRANCH   1  16
TORSDOF 11
ENDMDL
MODEL 2
REMARK VINA RESULT: -7.161643800      1.038      1.391
REMARK  11 active torsions:
REMARK  status: ('A' for Active; 'I' for Inactive)
REMARK    1  A    between atoms: C2_2  and  C4_4 
REMARK    2  A    between atoms: C4_4  and  C5_5 
REMARK    3  A    between atoms: C5_5  and  N1_6 
REMARK    4  A    between atoms: N1_6  and  C6_9 
REMARK    5  A    between atoms: C6_9  and  C7_10 
REMARK    6  A    between atoms: C6_9  and  C8_15 
REMARK    7  A    between atoms: N2_11  and  O1_13 
REMARK    8  A    between atoms: C8_15  and  S1_16 
REMARK    9  A    between atoms: S1_16  and  N3_19 
REMARK   10  A    between atoms: N3_19  and  C9_21 
REMARK   11  A    between atoms: C9_21  and  C10_22 
ROOT
HETATM    1  C8  UNL     1     -23.895  40.376  16.399  1.00  0.00     0.201 C 
ENDROOT
BRANCH   1   2
HETATM    2  C6  UNL     1     -24.746  39.232  15.949  1.00  0.00     0.241 C 
BRANCH   2   3
HETATM    3  N1  UNL     1     -24.006  38.084  15.473  1.00  0.00    -0.065 N 
ATOM      4  H12 UNL     1     -23.800  38.151  14.476  1.00  0.00     0.278 HD
ATOM      5  H11 UNL     1     -24.581  37.242  15.453  1.00  0.00     0.278 HD
BRANCH   3   6
HETATM    6  C5  UNL     1     -22.785  37.897  16.275  1.00  0.00     0.233 C 
BRANCH   6   7
HETATM    7  C4  UNL     1     -22.806  36.481  16.766  1.00  0.00     0.031 C 
BRANCH   7   8
HETATM    8  C2  UNL     1     -21.770  35.616  16.087  1.00  0.00    -0.021 C 
HETATM    9  C1  UNL     1     -20.409  36.224  16.078  1.00  0.00     0.009 C 
HETATM   10  C3  UNL     1     -21.673  34.281  16.802  1.00  0.00     0.009 C 
ENDBRANCH   7   8
ENDBRANCH   6   7
ENDBRANCH   3   6
ENDBRANCH   2   3
BRANCH   2  11
HETATM   11  C7  UNL     1     -25.781  39.635  14.961  1.00  0.00     0.120 C 
HETATM   12  N2  UNL     1     -27.044  39.585  15.203  1.00  0.00    -0.282 N 
ATOM     13  H2  UNL     1     -27.725  39.869  14.500  1.00  0.00     0.192 HD
BRANCH  12  14
HETATM   14  O1  UNL     1     -27.445  39.140  16.430  1.00  0.00    -0.291 OA
ATOM     15  H1  UNL     1     -28.300  38.729  16.499  1.00  0.00     0.244 HD
ENDBRANCH  12  14
ENDBRANCH   2  11
ENDBRANCH   1   2
BRANCH   1  16
HETATM   16  S1  UNL     1     -24.755  41.502  17.465  1.00  0.00     0.228 S 
HETATM   17  O2  UNL     1     -25.115  42.719  16.619  1.00  0.00    -0.206 OA
HETATM   18  O3  UNL     1     -26.016  40.921  17.981  1.00  0.00    -0.206 OA
BRANCH  16  19
HETATM   19  N3  UNL     1     -23.775  42.075  18.736  1.00  0.00    -0.319 N 
ATOM     20  H3  UNL     1     -22.780  42.282  18.645  1.00  0.00     0.172 HD
BRANCH  19  21
HETATM   21  C9  UNL     1     -24.518  42.231  19.943  1.00  0.00     0.145 C 
BRANCH  21  22
HETATM   22  C10 UNL     1     -24.113  41.244  21.015  1.00  0.00     0.096 C 
HETATM   23  C11 UNL     1     -25.291  40.879  21.863  1.00  0.00     0.017 C 
HETATM   24  C12 UNL     1     -24.954  40.254  23.169  1.00  0.00     0.020 C 
HETATM   25  C13 UNL     1     -23.519  39.895  23.363  1.00  0.00     0.122 C 
HETATM   26  N4  UNL     1     -22.654  41.010  23.008  1.00  0.00    -0.361 N 
HETATM   27  C14 UNL     1     -22.990  41.721  21.826  1.00  0.00     0.223 C 
ATOM     28  H4  UNL     1     -21.848  41.267  23.578  1.00  0.00     0.162 HD
HETATM   29  O4  UNL     1     -22.348  42.729  21.479  1.00  0.00    -0.273 OA
ENDBRANCH  21  22
ENDBRANCH  19  21
ENDBRANCH  16  19
ENDBRANCH   1  16
TORSDOF 11
ENDMDL
MODEL 3
REMARK VINA RESULT: -7.089094601      1.529      1.753
REMARK  11 active torsions:
REMARK  status: ('A' for Active; 'I' for Inactive)
REMARK    1  A    between atoms: C2_2  and  C4_4 
REMARK    2  A    between atoms: C4_4  and  C5_5 
REMARK    3  A    between atoms: C5_5  and  N1_6 
REMARK    4  A    between atoms: N1_6  and  C6_9 
REMARK    5  A    between atoms: C6_9  and  C7_10 
REMARK    6  A    between atoms: C6_9  and  C8_15 
REMARK    7  A    between atoms: N2_11  and  O1_13 
REMARK    8  A    between atoms: C8_15  and  S1_16 
REMARK    9  A    between atoms: S1_16  and  N3_19 
REMARK   10  A    between atoms: N3_19  and  C9_21 
REMARK   11  A    between atoms: C9_21  and  C10_22 
ROOT
HETATM    1  C8  UNL     1     -24.115  40.056  16.274  1.00  0.00     0.201 C 
ENDROOT
BRANCH   1   2
HETATM    2  C6  UNL     1     -24.755  38.902  15.571  1.00  0.00     0.241 C 
BRANCH   2   3
HETATM    3  N1  UNL     1     -23.945  37.704  15.526  1.00  0.00    -0.065 N 
ATOM      4  H12 UNL     1     -23.377  37.660  14.680  1.00  0.00     0.278 HD
ATOM      5  H11 UNL     1     -24.510  36.869  15.371  1.00  0.00     0.278 HD
BRANCH   3   6
HETATM    6  C5  UNL     1     -23.126  37.595  16.745  1.00  0.00     0.233 C 
BRANCH   6   7
HETATM    7  C4  UNL     1     -22.937  36.131  17.006  1.00  0.00     0.031 C 
BRANCH   7   8
HETATM    8  C2  UNL     1     -21.873  35.518  16.126  1.00  0.00    -0.021 C 
HETATM    9  C1  UNL     1     -20.617  36.319  16.074  1.00  0.00     0.009 C 
HETATM   10  C3  UNL     1     -21.517  34.137  16.644  1.00  0.00     0.009 C 
ENDBRANCH   7   8
ENDBRANCH   6   7
ENDBRANCH   3   6
ENDBRANCH   2   3
BRANCH   2  11
HETATM   11  C7  UNL     1     -25.248  39.252  14.214  1.00  0.00     0.120 C 
HETATM   12  N2  UNL     1     -26.497  39.371  13.927  1.00  0.00    -0.282 N 
ATOM     13  H2  UNL     1     -26.798  39.612  12.983  1.00  0.00     0.192 HD
BRANCH  12  14
HETATM   14  O1  UNL     1     -27.408  39.162  14.923  1.00  0.00    -0.291 OA
ATOM     15  H1  UNL     1     -27.808  38.303  14.991  1.00  0.00     0.244 HD
ENDBRANCH  12  14
ENDBRANCH   2  11
ENDBRANCH   1   2
BRANCH   1  16
HETATM   16  S1  UNL     1     -25.217  40.888  17.385  1.00  0.00     0.228 S 
HETATM   17  O2  UNL     1     -25.012  42.384  17.168  1.00  0.00    -0.206 OA
HETATM   18  O3  UNL     1     -26.636  40.579  17.091  1.00  0.00    -0.206 OA
BRANCH  16  19
HETATM   19  N3  UNL     1     -24.846  40.586  19.021  1.00  0.00    -0.319 N 
ATOM     20  H3  UNL     1     -24.762  39.655  19.427  1.00  0.00     0.172 HD
BRANCH  19  21
HETATM   21  C9  UNL     1     -24.667  41.799  19.751  1.00  0.00     0.145 C 
BRANCH  21  22
HETATM   22  C10 UNL     1     -25.235  41.732  21.151  1.00  0.00     0.096 C 
HETATM   23  C11 UNL     1     -24.602  40.615  21.921  1.00  0.00     0.017 C 
HETATM   24  C12 UNL     1     -25.345  40.194  23.138  1.00  0.00     0.020 C 
HETATM   25  C13 UNL     1     -26.490  41.065  23.531  1.00  0.00     0.122 C 
HETATM   26  N4  UNL     1     -27.349  41.338  22.389  1.00  0.00    -0.361 N 
HETATM   27  C14 UNL     1     -26.696  41.639  21.164  1.00  0.00     0.223 C 
ATOM     28  H4  UNL     1     -28.365  41.315  22.464  1.00  0.00     0.162 HD
HETATM   29  O4  UNL     1     -27.347  41.821  20.118  1.00  0.00    -0.273 OA
ENDBRANCH  21  22
ENDBRANCH  19  21
ENDBRANCH  16  19
ENDBRANCH   1  16
TORSDOF 11
ENDMDL
MODEL 4
REMARK VINA RESULT: -7.077932574      1.251      1.406
REMARK  11 active torsions:
REMARK  status: ('A' for Active; 'I' for Inactive)
REMARK    1  A    between atoms: C2_2  and  C4_4 
REMARK    2  A    between atoms: C4_4  and  C5_5 
REMARK    3  A    between atoms: C5_5  and  N1_6 
REMARK    4  A    between atoms: N1_6  and  C6_9 
REMARK    5  A    between atoms: C6_9  and  C7_10 
REMARK    6  A    between atoms: C6_9  and  C8_15 
REMARK    7  A    between atoms: N2_11  and  O1_13 
REMARK    8  A    between atoms: C8_15  and  S1_16 
REMARK    9  A    between atoms: S1_16  and  N3_19 
REMARK   10  A    between atoms: N3_19  and  C9_21 
REMARK   11  A    between atoms: C9_21  and  C10_22 
ROOT
HETATM    1  C8  UNL     1     -24.254  40.852  17.147  1.00  0.00     0.201 C 
ENDROOT
BRANCH   1   2
HETATM    2  C6  UNL     1     -24.583  39.424  16.850  1.00  0.00     0.241 C 
BRANCH   2   3
HETATM    3  N1  UNL     1     -23.464  38.514  16.965  1.00  0.00    -0.065 N 
ATOM      4  H12 UNL     1     -23.164  38.400  17.933  1.00  0.00     0.278 HD
ATOM      5  H11 UNL     1     -22.606  38.916  16.588  1.00  0.00     0.278 HD
BRANCH   3   6
HETATM    6  C5  UNL     1     -23.789  37.223  16.335  1.00  0.00     0.233 C 
BRANCH   6   7
HETATM    7  C4  UNL     1     -22.967  36.184  17.036  1.00  0.00     0.031 C 
BRANCH   7   8
HETATM    8  C2  UNL     1     -21.911  35.579  16.141  1.00  0.00    -0.021 C 
HETATM    9  C1  UNL     1     -20.670  36.399  16.056  1.00  0.00     0.009 C 
HETATM   10  C3  UNL     1     -21.523  34.208  16.666  1.00  0.00     0.009 C 
ENDBRANCH   7   8
ENDBRANCH   6   7
ENDBRANCH   3   6
ENDBRANCH   2   3
BRANCH   2  11
HETATM   11  C7  UNL     1     -25.269  39.248  15.543  1.00  0.00     0.120 C 
HETATM   12  N2  UNL     1     -26.545  39.131  15.427  1.00  0.00    -0.282 N 
ATOM     13  H2  UNL     1     -26.981  39.012  14.513  1.00  0.00     0.192 HD
BRANCH  12  14
HETATM   14  O1  UNL     1     -27.300  39.172  16.565  1.00  0.00    -0.291 OA
ATOM     15  H1  UNL     1     -28.246  39.181  16.474  1.00  0.00     0.244 HD
ENDBRANCH  12  14
ENDBRANCH   2  11
ENDBRANCH   1   2
BRANCH   1  16
HETATM   16  S1  UNL     1     -25.330  41.573  18.357  1.00  0.00     0.228 S 
HETATM   17  O2  UNL     1     -25.018  43.066  18.387  1.00  0.00    -0.206 OA
HETATM   18  O3  UNL     1     -26.757  41.417  17.992  1.00  0.00    -0.206 OA
BRANCH  16  19
HETATM   19  N3  UNL     1     -25.029  40.989  19.929  1.00  0.00    -0.319 N 
ATOM     20  H3  UNL     1     -24.849  40.010  20.153  1.00  0.00     0.172 HD
BRANCH  19  21
HETATM   21  C9  UNL     1     -25.058  42.039  20.894  1.00  0.00     0.145 C 
BRANCH  21  22
HETATM   22  C10 UNL     1     -24.985  41.533  22.318  1.00  0.00     0.096 C 
HETATM   23  C11 UNL     1     -23.712  40.778  22.541  1.00  0.00     0.017 C 
HETATM   24  C12 UNL     1     -23.706  39.903  23.743  1.00  0.00     0.020 C 
HETATM   25  C13 UNL     1     -24.874  40.052  24.659  1.00  0.00     0.122 C 
HETATM   26  N4  UNL     1     -26.123  40.013  23.915  1.00  0.00    -0.361 N 
HETATM   27  C14 UNL     1     -26.158  40.741  22.696  1.00  0.00     0.223 C 
ATOM     28  H4  UNL     1     -26.932  39.490  24.251  1.00  0.00     0.162 HD
HETATM   29  O4  UNL     1     -27.161  40.712  21.959  1.00  0.00    -0.273 OA
ENDBRANCH  21  22
ENDBRANCH  19  21
ENDBRANCH  16  19
ENDBRANCH   1  16
TORSDOF 11
ENDMDL
MODEL 5
REMARK VINA RESULT: -7.041955853      1.907      6.622
REMARK  11 active torsions:
REMARK  status: ('A' for Active; 'I' for Inactive)
REMARK    1  A    between atoms: C2_2  and  C4_4 
REMARK    2  A    between atoms: C4_4  and  C5_5 
REMARK    3  A    between atoms: C5_5  and  N1_6 
REMARK    4  A    between atoms: N1_6  and  C6_9 
REMARK    5  A    between atoms: C6_9  and  C7_10 
REMARK    6  A    between atoms: C6_9  and  C8_15 
REMARK    7  A    between atoms: N2_11  and  O1_13 
REMARK    8  A    between atoms: C8_15  and  S1_16 
REMARK    9  A    between atoms: S1_16  and  N3_19 
REMARK   10  A    between atoms: N3_19  and  C9_21 
REMARK   11  A    between atoms: C9_21  and  C10_22 
ROOT
HETATM    1  C8  UNL     1     -24.731  40.538  18.684  1.00  0.00     0.201 C 
ENDROOT
BRANCH   1   2
HETATM    2  C6  UNL     1     -24.027  41.808  19.043  1.00  0.00     0.241 C 
BRANCH   2   3
HETATM    3  N1  UNL     1     -23.166  41.710  20.201  1.00  0.00    -0.065 N 
ATOM      4  H12 UNL     1     -22.290  42.215  20.068  1.00  0.00     0.278 HD
ATOM      5  H11 UNL     1     -22.783  40.772  20.312  1.00  0.00     0.278 HD
BRANCH   3   6
HETATM    6  C5  UNL     1     -23.881  42.158  21.408  1.00  0.00     0.233 C 
BRANCH   6   7
HETATM    7  C4  UNL     1     -23.478  41.232  22.515  1.00  0.00     0.031 C 
BRANCH   7   8
HETATM    8  C2  UNL     1     -24.665  40.632  23.231  1.00  0.00    -0.021 C 
HETATM    9  C1  UNL     1     -25.924  40.689  22.434  1.00  0.00     0.009 C 
HETATM   10  C3  UNL     1     -24.386  39.174  23.547  1.00  0.00     0.009 C 
ENDBRANCH   7   8
ENDBRANCH   6   7
ENDBRANCH   3   6
ENDBRANCH   2   3
BRANCH   2  11
HETATM   11  C7  UNL     1     -24.952  42.964  19.174  1.00  0.00     0.120 C 
HETATM   12  N2  UNL     1     -24.892  44.003  18.416  1.00  0.00    -0.282 N 
ATOM     13  H2  UNL     1     -25.544  44.778  18.536  1.00  0.00     0.192 HD
BRANCH  12  14
HETATM   14  O1  UNL     1     -23.931  44.037  17.447  1.00  0.00    -0.291 OA
ATOM     15  H1  UNL     1     -23.600  43.211  17.116  1.00  0.00     0.244 HD
ENDBRANCH  12  14
ENDBRANCH   2  11
ENDBRANCH   1   2
BRANCH   1  16
HETATM   16  S1  UNL     1     -25.181  40.456  16.972  1.00  0.00     0.228 S 
HETATM   17  O2  UNL     1     -26.700  40.335  16.923  1.00  0.00    -0.206 OA
HETATM   18  O3  UNL     1     -24.802  41.687  16.240  1.00  0.00    -0.206 OA
BRANCH  16  19
HETATM   19  N3  UNL     1     -24.565  39.066  16.200  1.00  0.00    -0.319 N 
ATOM     20  H3  UNL     1     -24.503  38.952  15.189  1.00  0.00     0.172 HD
BRANCH  19  21
HETATM   21  C9  UNL     1     -24.146  38.084  17.145  1.00  0.00     0.145 C 
BRANCH  21  22
HETATM   22  C10 UNL     1     -23.297  36.996  16.527  1.00  0.00     0.096 C 
HETATM   23  C11 UNL     1     -23.320  35.765  17.378  1.00  0.00     0.017 C 
HETATM   24  C12 UNL     1     -22.230  34.792  17.103  1.00  0.00     0.020 C 
HETATM   25  C13 UNL     1     -21.398  35.076  15.897  1.00  0.00     0.122 C 
HETATM   26  N4  UNL     1     -20.960  36.464  15.886  1.00  0.00    -0.361 N 
HETATM   27  C14 UNL     1     -21.928  37.436  16.249  1.00  0.00     0.223 C 
ATOM     28  H4  UNL     1     -20.008  36.724  15.631  1.00  0.00     0.162 HD
HETATM   29  O4  UNL     1     -21.627  38.641  16.333  1.00  0.00    -0.273 OA
ENDBRANCH  21  22
ENDBRANCH  19  21
ENDBRANCH  16  19
ENDBRANCH   1  16
TORSDOF 11
ENDMDL
