MODEL 1
REMARK VINA RESULT: -6.587190016      0.000      0.000
REMARK  12 active torsions:
REMARK  status: ('A' for Active; 'I' for Inactive)
REMARK    1  A    between atoms: C2_2  and  N1_4 
REMARK    2  A    between atoms: N1_4  and  C4_7 
REMARK    3  A    between atoms: C4_7  and  C5_8 
REMARK    4  A    between atoms: C5_8  and  O1_9 
REMARK    5  A    between atoms: C5_8  and  C6_11 
REMARK    6  A    between atoms: C6_11  and  N2_12 
REMARK       I    between atoms: N2_12  and  C7_14 
REMARK       I    between atoms: C7_14  and  N3_16 
REMARK    7  A    between atoms: N3_16  and  C8_18 
REMARK    8  A    between atoms: C8_18  and  C9_19 
REMARK    9  A    between atoms: C8_18  and  C14_26 
REMARK   10  A    between atoms: C9_19  and  O4_21 
REMARK   11  A    between atoms: O4_21  and  C10_22 
REMARK   12  A    between atoms: C10_22  and  C11_23 
ROOT
HETATM    1  N2  UNL     1     -23.872  42.628  19.586  1.00  0.00    -0.341 N 
ATOM      2  H2  UNL     1     -23.304  43.218  18.977  1.00  0.00     0.164 HD
HETATM    3  C7  UNL     1     -24.316  41.428  19.009  1.00  0.00     0.316 C 
HETATM    4  O2  UNL     1     -25.004  40.630  19.671  1.00  0.00    -0.247 OA
HETATM    5  N3  UNL     1     -24.013  41.054  17.657  1.00  0.00    -0.327 N 
ATOM      6  H3  UNL     1     -23.449  41.685  17.089  1.00  0.00     0.165 HD
ENDROOT
BRANCH   5   7
HETATM    7  C8  UNL     1     -24.474  39.826  17.075  1.00  0.00     0.216 C 
BRANCH   7   8
HETATM    8  C9  UNL     1     -23.331  38.978  16.643  1.00  0.00     0.283 C 
HETATM    9  O3  UNL     1     -22.156  39.412  16.551  1.00  0.00    -0.263 OA
BRANCH   8  10
HETATM   10  O4  UNL     1     -23.526  37.644  16.316  1.00  0.00    -0.319 OA
BRANCH  10  11
HETATM   11  C10 UNL     1     -23.039  36.557  17.081  1.00  0.00     0.183 C 
BRANCH  11  12
HETATM   12  C11 UNL     1     -22.283  35.664  16.098  1.00  0.00     0.010 A 
HETATM   13  C12 UNL     1     -21.538  34.498  16.590  1.00  0.00     0.007 A 
HETATM   14  C13 UNL     1     -20.766  35.718  16.185  1.00  0.00     0.007 A 
ENDBRANCH  11  12
ENDBRANCH  10  11
ENDBRANCH   8  10
ENDBRANCH   7   8
BRANCH   7  15
HETATM   15  C14 UNL     1     -25.352  40.052  15.863  1.00  0.00     0.218 C 
HETATM   16  C15 UNL     1     -26.417  39.029  15.693  1.00  0.00     0.037 C 
HETATM   17  C16 UNL     1     -26.496  38.831  14.172  1.00  0.00     0.029 C 
HETATM   18  C17 UNL     1     -25.582  39.894  13.602  1.00  0.00     0.233 C 
HETATM   19  N4  UNL     1     -24.592  40.047  14.632  1.00  0.00    -0.068 N 
ATOM     20  H42 UNL     1     -23.988  40.861  14.512  1.00  0.00     0.277 HD
ATOM     21  H41 UNL     1     -23.849  39.350  14.603  1.00  0.00     0.277 HD
ENDBRANCH   7  15
ENDBRANCH   5   7
BRANCH   1  22
HETATM   22  C6  UNL     1     -24.093  43.142  20.885  1.00  0.00     0.157 C 
BRANCH  22  23
HETATM   23  C5  UNL     1     -23.096  42.848  21.945  1.00  0.00     0.161 C 
BRANCH  23  24
HETATM   24  C4  UNL     1     -23.692  42.057  23.099  1.00  0.00     0.265 C 
BRANCH  24  25
HETATM   25  N1  UNL     1     -23.948  40.720  22.658  1.00  0.00    -0.069 N 
ATOM     26  H12 UNL     1     -23.597  40.576  21.711  1.00  0.00     0.277 HD
ATOM     27  H11 UNL     1     -24.944  40.576  22.490  1.00  0.00     0.277 HD
BRANCH  25  28
HETATM   28  C2  UNL     1     -23.427  39.717  23.559  1.00  0.00     0.178 C 
HETATM   29  C1  UNL     1     -22.984  40.454  24.821  1.00  0.00     0.039 C 
HETATM   30  C3  UNL     1     -24.470  38.691  23.944  1.00  0.00     0.039 C 
ENDBRANCH  25  28
ENDBRANCH  24  25
ENDBRANCH  23  24
BRANCH  23  31
HETATM   31  O1  UNL     1     -21.886  42.336  21.538  1.00  0.00    -0.392 OA
ATOM     32  H1  UNL     1     -21.193  42.986  21.575  1.00  0.00     0.210 HD
ENDBRANCH  23  31
ENDBRANCH  22  23
ENDBRANCH   1  22
TORSDOF 12
ENDMDL
MODEL 2
REMARK VINA RESULT: -6.523064155      3.604      8.305
REMARK  12 active torsions:
REMARK  status: ('A' for Active; 'I' for Inactive)
REMARK    1  A    between atoms: C2_2  and  N1_4 
REMARK    2  A    between atoms: N1_4  and  C4_7 
REMARK    3  A    between atoms: C4_7  and  C5_8 
REMARK    4  A    between atoms: C5_8  and  O1_9 
REMARK    5  A    between atoms: C5_8  and  C6_11 
REMARK    6  A    between atoms: C6_11  and  N2_12 
REMARK       I    between atoms: N2_12  and  C7_14 
REMARK       I    between atoms: C7_14  and  N3_16 
REMARK    7  A    between atoms: N3_16  and  C8_18 
REMARK    8  A    between atoms: C8_18  and  C9_19 
REMARK    9  A    between atoms: C8_18  and  C14_26 
REMARK   10  A    between atoms: C9_19  and  O4_21 
REMARK   11  A    between atoms: O4_21  and  C10_22 
REMARK   12  A    between atoms: C10_22  and  C11_23 
ROOT
HETATM    1  N2  UNL     1     -27.979  40.993  12.304  1.00  0.00    -0.341 N 
ATOM      2  H2  UNL     1     -28.442  41.831  12.656  1.00  0.00     0.164 HD
HETATM    3  C7  UNL     1     -27.045  40.415  13.178  1.00  0.00     0.316 C 
HETATM    4  O2  UNL     1     -26.434  39.382  12.850  1.00  0.00    -0.247 OA
HETATM    5  N3  UNL     1     -26.742  40.964  14.468  1.00  0.00    -0.327 N 
ATOM      6  H3  UNL     1     -27.226  41.810  14.768  1.00  0.00     0.165 HD
ENDROOT
BRANCH   5   7
HETATM    7  C8  UNL     1     -25.782  40.368  15.354  1.00  0.00     0.216 C 
BRANCH   7   8
HETATM    8  C9  UNL     1     -26.344  39.159  16.014  1.00  0.00     0.283 C 
HETATM    9  O3  UNL     1     -27.553  39.060  16.340  1.00  0.00    -0.263 OA
BRANCH   8  10
HETATM   10  O4  UNL     1     -25.532  38.072  16.302  1.00  0.00    -0.319 OA
BRANCH  10  11
HETATM   11  C10 UNL     1     -24.334  37.768  15.613  1.00  0.00     0.183 C 
BRANCH  11  12
HETATM   12  C11 UNL     1     -23.289  37.501  16.695  1.00  0.00     0.010 A 
HETATM   13  C12 UNL     1     -22.037  36.813  16.353  1.00  0.00     0.007 A 
HETATM   14  C13 UNL     1     -23.096  36.044  17.085  1.00  0.00     0.007 A 
ENDBRANCH  11  12
ENDBRANCH  10  11
ENDBRANCH   8  10
ENDBRANCH   7   8
BRANCH   7  15
HETATM   15  C14 UNL     1     -25.337  41.314  16.448  1.00  0.00     0.218 C 
HETATM   16  C15 UNL     1     -23.883  41.238  16.754  1.00  0.00     0.037 C 
HETATM   17  C16 UNL     1     -23.820  41.420  18.277  1.00  0.00     0.029 C 
HETATM   18  C17 UNL     1     -25.239  41.759  18.680  1.00  0.00     0.233 C 
HETATM   19  N4  UNL     1     -26.023  41.064  17.697  1.00  0.00    -0.068 N 
ATOM     20  H42 UNL     1     -27.009  41.323  17.690  1.00  0.00     0.277 HD
ATOM     21  H41 UNL     1     -26.168  40.075  17.902  1.00  0.00     0.277 HD
ENDBRANCH   7  15
ENDBRANCH   5   7
BRANCH   1  22
HETATM   22  C6  UNL     1     -28.376  40.586  11.009  1.00  0.00     0.157 C 
BRANCH  22  23
HETATM   23  C5  UNL     1     -27.404  40.715   9.894  1.00  0.00     0.161 C 
BRANCH  23  24
HETATM   24  C4  UNL     1     -26.914  42.143   9.714  1.00  0.00     0.265 C 
BRANCH  24  25
HETATM   25  N1  UNL     1     -25.526  42.202  10.058  1.00  0.00    -0.069 N 
ATOM     26  H12 UNL     1     -24.954  42.377   9.232  1.00  0.00     0.277 HD
ATOM     27  H11 UNL     1     -25.175  41.279  10.313  1.00  0.00     0.277 HD
BRANCH  25  28
HETATM   28  C2  UNL     1     -25.242  43.167  11.096  1.00  0.00     0.178 C 
HETATM   29  C1  UNL     1     -24.060  43.999  10.605  1.00  0.00     0.039 C 
HETATM   30  C3  UNL     1     -26.407  44.096  11.353  1.00  0.00     0.039 C 
ENDBRANCH  25  28
ENDBRANCH  24  25
ENDBRANCH  23  24
BRANCH  23  31
HETATM   31  O1  UNL     1     -26.372  39.807   9.860  1.00  0.00    -0.392 OA
ATOM     32  H1  UNL     1     -26.258  39.365  10.694  1.00  0.00     0.210 HD
ENDBRANCH  23  31
ENDBRANCH  22  23
ENDBRANCH   1  22
TORSDOF 12
ENDMDL
MODEL 3
REMARK VINA RESULT: -6.464840035      2.102      2.666
REMARK  12 active torsions:
REMARK  status: ('A' for Active; 'I' for Inactive)
REMARK    1  A    between atoms: C2_2  and  N1_4 
REMARK    2  A    between atoms: N1_4  and  C4_7 
REMARK    3  A    between atoms: C4_7  and  C5_8 
REMARK    4  A    between atoms: C5_8  and  O1_9 
REMARK    5  A    between atoms: C5_8  and  C6_11 
REMARK    6  A    between atoms: C6_11  and  N2_12 
REMARK       I    between atoms: N2_12  and  C7_14 
REMARK       I    between atoms: C7_14  and  N3_16 
REMARK    7  A    between atoms: N3_16  and  C8_18 
REMARK    8  A    between atoms: C8_18  and  C9_19 
REMARK    9  A    between atoms: C8_18  and  C14_26 
REMARK   10  A    between atoms: C9_19  and  O4_21 
REMARK   11  A    between atoms: O4_21  and  C10_22 
REMARK   12  A    between atoms: C10_22  and  C11_23 
ROOT
HETATM    1  N2  UNL     1     -25.232  42.104  19.954  1.00  0.00    -0.341 N 
ATOM      2  H2  UNL     1     -24.239  42.212  19.747  1.00  0.00     0.164 HD
HETATM    3  C7  UNL     1     -26.032  41.730  18.863  1.00  0.00     0.316 C 
HETATM    4  O2  UNL     1     -27.256  41.559  19.011  1.00  0.00    -0.247 OA
HETATM    5  N3  UNL     1     -25.506  41.528  17.544  1.00  0.00    -0.327 N 
ATOM      6  H3  UNL     1     -24.506  41.658  17.389  1.00  0.00     0.165 HD
ENDROOT
BRANCH   5   7
HETATM    7  C8  UNL     1     -26.332  41.149  16.433  1.00  0.00     0.216 C 
BRANCH   7   8
HETATM    8  C9  UNL     1     -26.263  39.683  16.193  1.00  0.00     0.283 C 
HETATM    9  O3  UNL     1     -27.132  39.057  15.535  1.00  0.00    -0.263 OA
BRANCH   8  10
HETATM   10  O4  UNL     1     -25.211  38.934  16.699  1.00  0.00    -0.319 OA
BRANCH  10  11
HETATM   11  C10 UNL     1     -24.586  37.869  16.008  1.00  0.00     0.183 C 
BRANCH  11  12
HETATM   12  C11 UNL     1     -23.403  37.447  16.878  1.00  0.00     0.010 A 
HETATM   13  C12 UNL     1     -22.345  36.597  16.315  1.00  0.00     0.007 A 
HETATM   14  C13 UNL     1     -23.342  35.972  17.244  1.00  0.00     0.007 A 
ENDBRANCH  11  12
ENDBRANCH  10  11
ENDBRANCH   8  10
ENDBRANCH   7   8
BRANCH   7  15
HETATM   15  C14 UNL     1     -25.927  41.837  15.147  1.00  0.00     0.218 C 
HETATM   16  C15 UNL     1     -27.075  42.334  14.344  1.00  0.00     0.037 C 
HETATM   17  C16 UNL     1     -26.644  42.081  12.893  1.00  0.00     0.029 C 
HETATM   18  C17 UNL     1     -25.206  41.619  12.998  1.00  0.00     0.233 C 
HETATM   19  N4  UNL     1     -25.176  40.961  14.274  1.00  0.00    -0.068 N 
ATOM     20  H42 UNL     1     -24.238  40.742  14.609  1.00  0.00     0.277 HD
ATOM     21  H41 UNL     1     -25.516  40.000  14.255  1.00  0.00     0.277 HD
ENDBRANCH   7  15
ENDBRANCH   5   7
BRANCH   1  22
HETATM   22  C6  UNL     1     -25.597  42.352  21.298  1.00  0.00     0.157 C 
BRANCH  22  23
HETATM   23  C5  UNL     1     -26.054  41.213  22.133  1.00  0.00     0.161 C 
BRANCH  23  24
HETATM   24  C4  UNL     1     -25.685  41.384  23.599  1.00  0.00     0.265 C 
BRANCH  24  25
HETATM   25  N1  UNL     1     -25.630  40.092  24.214  1.00  0.00    -0.069 N 
ATOM     26  H12 UNL     1     -26.531  39.619  24.147  1.00  0.00     0.277 HD
ATOM     27  H11 UNL     1     -25.560  40.175  25.229  1.00  0.00     0.277 HD
BRANCH  25  28
HETATM   28  C2  UNL     1     -24.571  39.261  23.689  1.00  0.00     0.178 C 
HETATM   29  C1  UNL     1     -23.257  39.944  24.060  1.00  0.00     0.039 C 
HETATM   30  C3  UNL     1     -24.576  37.873  24.291  1.00  0.00     0.039 C 
ENDBRANCH  25  28
ENDBRANCH  24  25
ENDBRANCH  23  24
BRANCH  23  31
HETATM   31  O1  UNL     1     -27.357  40.806  21.973  1.00  0.00    -0.392 OA
ATOM     32  H1  UNL     1     -27.917  41.118  22.675  1.00  0.00     0.210 HD
ENDBRANCH  23  31
ENDBRANCH  22  23
ENDBRANCH   1  22
TORSDOF 12
ENDMDL
MODEL 4
REMARK VINA RESULT: -6.463046954      1.416      1.837
REMARK  12 active torsions:
REMARK  status: ('A' for Active; 'I' for Inactive)
REMARK    1  A    between atoms: C2_2  and  N1_4 
REMARK    2  A    between atoms: N1_4  and  C4_7 
REMARK    3  A    between atoms: C4_7  and  C5_8 
REMARK    4  A    between atoms: C5_8  and  O1_9 
REMARK    5  A    between atoms: C5_8  and  C6_11 
REMARK    6  A    between atoms: C6_11  and  N2_12 
REMARK       I    between atoms: N2_12  and  C7_14 
REMARK       I    between atoms: C7_14  and  N3_16 
REMARK    7  A    between atoms: N3_16  and  C8_18 
REMARK    8  A    between atoms: C8_18  and  C9_19 
REMARK    9  A    between atoms: C8_18  and  C14_26 
REMARK   10  A    between atoms: C9_19  and  O4_21 
REMARK   11  A    between atoms: O4_21  and  C10_22 
REMARK   12  A    between atoms: C10_22  and  C11_23 
ROOT
HETATM    1  N2  UNL     1     -24.034  42.888  19.238  1.00  0.00    -0.341 N 
ATOM      2  H2  UNL     1     -23.094  43.153  18.941  1.00  0.00     0.164 HD
HETATM    3  C7  UNL     1     -24.553  41.740  18.620  1.00  0.00     0.316 C 
HETATM    4  O2  UNL     1     -25.687  41.322  18.921  1.00  0.00    -0.247 OA
HETATM    5  N3  UNL     1     -23.832  40.994  17.629  1.00  0.00    -0.327 N 
ATOM      6  H3  UNL     1     -22.900  41.308  17.361  1.00  0.00     0.165 HD
ENDROOT
BRANCH   5   7
HETATM    7  C8  UNL     1     -24.373  39.822  17.000  1.00  0.00     0.216 C 
BRANCH   7   8
HETATM    8  C9  UNL     1     -23.289  38.905  16.558  1.00  0.00     0.283 C 
HETATM    9  O3  UNL     1     -22.102  39.282  16.390  1.00  0.00    -0.263 OA
BRANCH   8  10
HETATM   10  O4  UNL     1     -23.556  37.567  16.309  1.00  0.00    -0.319 OA
BRANCH  10  11
HETATM   11  C10 UNL     1     -23.040  36.496  17.077  1.00  0.00     0.183 C 
BRANCH  11  12
HETATM   12  C11 UNL     1     -22.260  35.620  16.097  1.00  0.00     0.010 A 
HETATM   13  C12 UNL     1     -21.501  34.463  16.591  1.00  0.00     0.007 A 
HETATM   14  C13 UNL     1     -20.745  35.698  16.202  1.00  0.00     0.007 A 
ENDBRANCH  11  12
ENDBRANCH  10  11
ENDBRANCH   8  10
ENDBRANCH   7   8
BRANCH   7  15
HETATM   15  C14 UNL     1     -25.210  40.152  15.782  1.00  0.00     0.218 C 
HETATM   16  C15 UNL     1     -26.431  39.313  15.647  1.00  0.00     0.037 C 
HETATM   17  C16 UNL     1     -26.551  39.082  14.134  1.00  0.00     0.029 C 
HETATM   18  C17 UNL     1     -25.478  39.962  13.528  1.00  0.00     0.233 C 
HETATM   19  N4  UNL     1     -24.470  39.982  14.551  1.00  0.00    -0.068 N 
ATOM     20  H42 UNL     1     -23.740  40.680  14.403  1.00  0.00     0.277 HD
ATOM     21  H41 UNL     1     -23.852  39.171  14.544  1.00  0.00     0.277 HD
ENDBRANCH   7  15
ENDBRANCH   5   7
BRANCH   1  22
HETATM   22  C6  UNL     1     -24.617  43.732  20.211  1.00  0.00     0.157 C 
BRANCH  22  23
HETATM   23  C5  UNL     1     -23.784  44.176  21.357  1.00  0.00     0.161 C 
BRANCH  23  24
HETATM   24  C4  UNL     1     -23.131  43.012  22.086  1.00  0.00     0.265 C 
BRANCH  24  25
HETATM   25  N1  UNL     1     -21.710  43.130  21.965  1.00  0.00    -0.069 N 
ATOM     26  H12 UNL     1     -21.412  44.096  22.108  1.00  0.00     0.277 HD
ATOM     27  H11 UNL     1     -21.415  43.006  20.996  1.00  0.00     0.277 HD
BRANCH  25  28
HETATM   28  C2  UNL     1     -20.991  42.234  22.843  1.00  0.00     0.178 C 
HETATM   29  C1  UNL     1     -21.771  40.922  22.859  1.00  0.00     0.039 C 
HETATM   30  C3  UNL     1     -19.588  41.953  22.354  1.00  0.00     0.039 C 
ENDBRANCH  25  28
ENDBRANCH  24  25
ENDBRANCH  23  24
BRANCH  23  31
HETATM   31  O1  UNL     1     -22.897  45.201  21.123  1.00  0.00    -0.392 OA
ATOM     32  H1  UNL     1     -22.702  45.299  20.198  1.00  0.00     0.210 HD
ENDBRANCH  23  31
ENDBRANCH  22  23
ENDBRANCH   1  22
TORSDOF 12
ENDMDL
MODEL 5
REMARK VINA RESULT: -6.458752729      2.114      4.439
REMARK  12 active torsions:
REMARK  status: ('A' for Active; 'I' for Inactive)
REMARK    1  A    between atoms: C2_2  and  N1_4 
REMARK    2  A    between atoms: N1_4  and  C4_7 
REMARK    3  A    between atoms: C4_7  and  C5_8 
REMARK    4  A    between atoms: C5_8  and  O1_9 
REMARK    5  A    between atoms: C5_8  and  C6_11 
REMARK    6  A    between atoms: C6_11  and  N2_12 
REMARK       I    between atoms: N2_12  and  C7_14 
REMARK       I    between atoms: C7_14  and  N3_16 
REMARK    7  A    between atoms: N3_16  and  C8_18 
REMARK    8  A    between atoms: C8_18  and  C9_19 
REMARK    9  A    between atoms: C8_18  and  C14_26 
REMARK   10  A    between atoms: C9_19  and  O4_21 
REMARK   11  A    between atoms: O4_21  and  C10_22 
REMARK   12  A    between atoms: C10_22  and  C11_23 
ROOT
HETATM    1  N2  UNL     1     -26.177  41.786  19.092  1.00  0.00    -0.341 N 
ATOM      2  H2  UNL     1     -26.899  41.150  19.430  1.00  0.00     0.164 HD
HETATM    3  C7  UNL     1     -25.454  41.331  17.979  1.00  0.00     0.316 C 
HETATM    4  O2  UNL     1     -24.559  42.037  17.480  1.00  0.00    -0.247 OA
HETATM    5  N3  UNL     1     -25.692  40.058  17.362  1.00  0.00    -0.327 N 
ATOM      6  H3  UNL     1     -26.420  39.456  17.745  1.00  0.00     0.165 HD
ENDROOT
BRANCH   5   7
HETATM    7  C8  UNL     1     -24.945  39.600  16.225  1.00  0.00     0.216 C 
BRANCH   7   8
HETATM    8  C9  UNL     1     -25.802  38.796  15.313  1.00  0.00     0.283 C 
HETATM    9  O3  UNL     1     -26.730  38.056  15.724  1.00  0.00    -0.263 OA
BRANCH   8  10
HETATM   10  O4  UNL     1     -25.601  38.834  13.940  1.00  0.00    -0.319 OA
BRANCH  10  11
HETATM   11  C10 UNL     1     -25.674  40.010  13.158  1.00  0.00     0.183 C 
BRANCH  11  12
HETATM   12  C11 UNL     1     -27.038  39.968  12.470  1.00  0.00     0.010 A 
HETATM   13  C12 UNL     1     -27.197  40.522  11.120  1.00  0.00     0.007 A 
HETATM   14  C13 UNL     1     -27.727  41.310  12.280  1.00  0.00     0.007 A 
ENDBRANCH  11  12
ENDBRANCH  10  11
ENDBRANCH   8  10
ENDBRANCH   7   8
BRANCH   7  15
HETATM   15  C14 UNL     1     -23.766  38.735  16.616  1.00  0.00     0.218 C 
HETATM   16  C15 UNL     1     -22.445  39.364  16.349  1.00  0.00     0.037 C 
HETATM   17  C16 UNL     1     -21.568  38.192  15.887  1.00  0.00     0.029 C 
HETATM   18  C17 UNL     1     -22.429  36.965  16.100  1.00  0.00     0.233 C 
HETATM   19  N4  UNL     1     -23.758  37.473  15.909  1.00  0.00    -0.068 N 
ATOM     20  H42 UNL     1     -24.496  36.829  16.197  1.00  0.00     0.277 HD
ATOM     21  H41 UNL     1     -24.043  37.540  14.932  1.00  0.00     0.277 HD
ENDBRANCH   7  15
ENDBRANCH   5   7
BRANCH   1  22
HETATM   22  C6  UNL     1     -26.055  42.996  19.816  1.00  0.00     0.157 C 
BRANCH  22  23
HETATM   23  C5  UNL     1     -24.774  43.283  20.510  1.00  0.00     0.161 C 
BRANCH  23  24
HETATM   24  C4  UNL     1     -24.215  42.061  21.223  1.00  0.00     0.265 C 
BRANCH  24  25
HETATM   25  N1  UNL     1     -22.790  42.055  21.079  1.00  0.00    -0.069 N 
ATOM     26  H12 UNL     1     -22.467  42.910  20.627  1.00  0.00     0.277 HD
ATOM     27  H11 UNL     1     -22.498  41.374  20.377  1.00  0.00     0.277 HD
BRANCH  25  28
HETATM   28  C2  UNL     1     -22.097  41.839  22.328  1.00  0.00     0.178 C 
HETATM   29  C1  UNL     1     -22.833  40.710  23.046  1.00  0.00     0.039 C 
HETATM   30  C3  UNL     1     -20.659  41.418  22.123  1.00  0.00     0.039 C 
ENDBRANCH  25  28
ENDBRANCH  24  25
ENDBRANCH  23  24
BRANCH  23  31
HETATM   31  O1  UNL     1     -23.810  43.946  19.789  1.00  0.00    -0.392 OA
ATOM     32  H1  UNL     1     -23.711  44.848  20.071  1.00  0.00     0.210 HD
ENDBRANCH  23  31
ENDBRANCH  22  23
ENDBRANCH   1  22
TORSDOF 12
ENDMDL
