MODEL 1
REMARK VINA RESULT: -8.034719280      0.000      0.000
REMARK  11 active torsions:
REMARK  status: ('A' for Active; 'I' for Inactive)
REMARK    1  A    between atoms: O1_2  and  C2_3 
REMARK    2  A    between atoms: C2_3  and  O2_4 
REMARK    3  A    between atoms: C2_3  and  C3_6 
REMARK    4  A    between atoms: C4_7  and  C5_8 
REMARK    5  A    between atoms: C6_9  and  C7_10 
REMARK    6  A    between atoms: C9_13  and  C10_14 
REMARK    7  A    between atoms: C11_15  and  C12_16 
REMARK    8  A    between atoms: C13_17  and  C15_19 
REMARK       I    between atoms: C15_19  and  N1_21 
REMARK    9  A    between atoms: N1_21  and  C16_23 
REMARK   10  A    between atoms: C16_23  and  C17_24 
REMARK       I    between atoms: C17_24  and  N2_26 
REMARK   11  A    between atoms: N2_26  and  N3_28 
ROOT
HETATM    1  C10 UNL     1     -24.272  41.019  19.407  1.00  0.00    -0.017 C 
HETATM    2  C11 UNL     1     -23.740  41.705  20.376  1.00  0.00    -0.003 C 
ENDROOT
BRANCH   2   3
HETATM    3  C12 UNL     1     -23.806  41.242  21.780  1.00  0.00     0.012 C 
HETATM    4  C13 UNL     1     -22.722  41.210  22.515  1.00  0.00     0.006 C 
HETATM    5  C14 UNL     1     -21.441  41.652  21.891  1.00  0.00     0.054 C 
BRANCH   4   6
HETATM    6  C15 UNL     1     -22.692  40.771  23.900  1.00  0.00     0.247 C 
HETATM    7  O4  UNL     1     -21.880  41.316  24.724  1.00  0.00    -0.268 OA
HETATM    8  N1  UNL     1     -23.520  39.755  24.423  1.00  0.00    -0.348 N 
ATOM      9  H1  UNL     1     -24.180  39.310  23.785  1.00  0.00     0.163 HD
BRANCH   8  10
HETATM   10  C16 UNL     1     -23.503  39.299  25.793  1.00  0.00     0.227 C 
BRANCH  10  11
HETATM   11  C17 UNL     1     -24.705  39.678  26.563  1.00  0.00     0.253 C 
HETATM   12  O5  UNL     1     -24.655  40.646  27.351  1.00  0.00    -0.270 OA
HETATM   13  N2  UNL     1     -25.902  38.956  26.415  1.00  0.00    -0.275 N 
ATOM     14  H2  UNL     1     -25.936  38.167  25.768  1.00  0.00     0.189 HD
BRANCH  13  15
HETATM   15  N3  UNL     1     -27.047  39.303  27.138  1.00  0.00    -0.343 N 
ATOM     16  H32 UNL     1     -27.215  40.288  27.340  1.00  0.00     0.176 HD
ATOM     17  H31 UNL     1     -27.703  38.590  27.458  1.00  0.00     0.176 HD
ENDBRANCH  13  15
ENDBRANCH  10  11
ENDBRANCH   8  10
ENDBRANCH   4   6
ENDBRANCH   2   3
BRANCH   1  18
HETATM   18  C9  UNL     1     -24.259  41.385  18.016  1.00  0.00     0.065 C 
HETATM   19  C7  UNL     1     -24.490  40.417  16.925  1.00  0.00     0.153 C 
HETATM   20  O3  UNL     1     -25.799  40.261  17.438  1.00  0.00    -0.381 OA
HETATM   21  C8  UNL     1     -25.735  41.674  17.596  1.00  0.00     0.179 C 
BRANCH  19  22
HETATM   22  C6  UNL     1     -23.686  39.230  16.764  1.00  0.00     0.005 C 
HETATM   23  C5  UNL     1     -24.172  38.051  17.160  1.00  0.00    -0.002 C 
BRANCH  23  24
HETATM   24  C4  UNL     1     -23.437  36.819  17.036  1.00  0.00     0.001 C 
HETATM   25  C3  UNL     1     -22.368  36.742  16.287  1.00  0.00     0.033 C 
BRANCH  25  26
HETATM   26  C2  UNL     1     -21.591  35.466  16.147  1.00  0.00     0.280 C 
BRANCH  26  27
HETATM   27  O1  UNL     1     -20.233  35.685  16.264  1.00  0.00    -0.363 OA
HETATM   28  C1  UNL     1     -19.935  36.968  15.883  1.00  0.00     0.205 C 
ENDBRANCH  26  27
BRANCH  26  29
HETATM   29  O2  UNL     1     -22.057  34.517  17.057  1.00  0.00    -0.368 OA
ATOM     30  H2  UNL     1     -22.297  34.903  17.891  1.00  0.00     0.213 HD
ENDBRANCH  26  29
ENDBRANCH  25  26
ENDBRANCH  23  24
ENDBRANCH  19  22
ENDBRANCH   1  18
TORSDOF 11
ENDMDL
MODEL 2
REMARK VINA RESULT: -7.977806874      1.054      1.214
REMARK  11 active torsions:
REMARK  status: ('A' for Active; 'I' for Inactive)
REMARK    1  A    between atoms: O1_2  and  C2_3 
REMARK    2  A    between atoms: C2_3  and  O2_4 
REMARK    3  A    between atoms: C2_3  and  C3_6 
REMARK    4  A    between atoms: C4_7  and  C5_8 
REMARK    5  A    between atoms: C6_9  and  C7_10 
REMARK    6  A    between atoms: C9_13  and  C10_14 
REMARK    7  A    between atoms: C11_15  and  C12_16 
REMARK    8  A    between atoms: C13_17  and  C15_19 
REMARK       I    between atoms: C15_19  and  N1_21 
REMARK    9  A    between atoms: N1_21  and  C16_23 
REMARK   10  A    between atoms: C16_23  and  C17_24 
REMARK       I    between atoms: C17_24  and  N2_26 
REMARK   11  A    between atoms: N2_26  and  N3_28 
ROOT
HETATM    1  C10 UNL     1     -24.379  41.077  19.247  1.00  0.00    -0.017 C 
HETATM    2  C11 UNL     1     -23.742  41.734  20.172  1.00  0.00    -0.003 C 
ENDROOT
BRANCH   2   3
HETATM    3  C12 UNL     1     -23.855  41.364  21.601  1.00  0.00     0.012 C 
HETATM    4  C13 UNL     1     -22.815  41.470  22.392  1.00  0.00     0.006 C 
HETATM    5  C14 UNL     1     -21.537  41.968  21.806  1.00  0.00     0.054 C 
BRANCH   4   6
HETATM    6  C15 UNL     1     -22.833  41.130  23.806  1.00  0.00     0.247 C 
HETATM    7  O4  UNL     1     -21.764  41.239  24.500  1.00  0.00    -0.268 OA
HETATM    8  N1  UNL     1     -23.978  40.676  24.493  1.00  0.00    -0.348 N 
ATOM      9  H1  UNL     1     -24.844  40.587  23.960  1.00  0.00     0.163 HD
BRANCH   8  10
HETATM   10  C16 UNL     1     -24.017  40.327  25.893  1.00  0.00     0.227 C 
BRANCH  10  11
HETATM   11  C17 UNL     1     -23.549  38.955  26.181  1.00  0.00     0.253 C 
HETATM   12  O5  UNL     1     -22.475  38.784  26.794  1.00  0.00    -0.270 OA
HETATM   13  N2  UNL     1     -24.306  37.845  25.768  1.00  0.00    -0.275 N 
ATOM     14  H2  UNL     1     -25.183  37.993  25.268  1.00  0.00     0.189 HD
BRANCH  13  15
HETATM   15  N3  UNL     1     -23.876  36.541  26.033  1.00  0.00    -0.343 N 
ATOM     16  H32 UNL     1     -23.558  35.966  25.253  1.00  0.00     0.176 HD
ATOM     17  H31 UNL     1     -23.878  36.170  26.983  1.00  0.00     0.176 HD
ENDBRANCH  13  15
ENDBRANCH  10  11
ENDBRANCH   8  10
ENDBRANCH   4   6
ENDBRANCH   2   3
BRANCH   1  18
HETATM   18  C9  UNL     1     -24.332  41.359  17.838  1.00  0.00     0.065 C 
HETATM   19  C7  UNL     1     -24.512  40.322  16.802  1.00  0.00     0.153 C 
HETATM   20  O3  UNL     1     -25.831  40.168  17.286  1.00  0.00    -0.381 OA
HETATM   21  C8  UNL     1     -25.801  41.589  17.360  1.00  0.00     0.179 C 
BRANCH  19  22
HETATM   22  C6  UNL     1     -23.679  39.145  16.736  1.00  0.00     0.005 C 
HETATM   23  C5  UNL     1     -24.199  37.957  17.051  1.00  0.00    -0.002 C 
BRANCH  23  24
HETATM   24  C4  UNL     1     -23.439  36.733  17.013  1.00  0.00     0.001 C 
HETATM   25  C3  UNL     1     -22.397  36.610  16.233  1.00  0.00     0.033 C 
BRANCH  25  26
HETATM   26  C2  UNL     1     -21.596  35.343  16.181  1.00  0.00     0.280 C 
BRANCH  26  27
HETATM   27  O1  UNL     1     -20.242  35.596  16.285  1.00  0.00    -0.363 OA
HETATM   28  C1  UNL     1     -19.981  36.888  15.912  1.00  0.00     0.205 C 
ENDBRANCH  26  27
BRANCH  26  29
HETATM   29  O2  UNL     1     -22.046  34.449  17.152  1.00  0.00    -0.368 OA
ATOM     30  H2  UNL     1     -22.991  34.459  17.243  1.00  0.00     0.213 HD
ENDBRANCH  26  29
ENDBRANCH  25  26
ENDBRANCH  23  24
ENDBRANCH  19  22
ENDBRANCH   1  18
TORSDOF 11
ENDMDL
MODEL 3
REMARK VINA RESULT: -7.771130768      1.537      1.963
REMARK  11 active torsions:
REMARK  status: ('A' for Active; 'I' for Inactive)
REMARK    1  A    between atoms: O1_2  and  C2_3 
REMARK    2  A    between atoms: C2_3  and  O2_4 
REMARK    3  A    between atoms: C2_3  and  C3_6 
REMARK    4  A    between atoms: C4_7  and  C5_8 
REMARK    5  A    between atoms: C6_9  and  C7_10 
REMARK    6  A    between atoms: C9_13  and  C10_14 
REMARK    7  A    between atoms: C11_15  and  C12_16 
REMARK    8  A    between atoms: C13_17  and  C15_19 
REMARK       I    between atoms: C15_19  and  N1_21 
REMARK    9  A    between atoms: N1_21  and  C16_23 
REMARK   10  A    between atoms: C16_23  and  C17_24 
REMARK       I    between atoms: C17_24  and  N2_26 
REMARK   11  A    between atoms: N2_26  and  N3_28 
ROOT
HETATM    1  C10 UNL     1     -24.941  41.145  19.240  1.00  0.00    -0.017 C 
HETATM    2  C11 UNL     1     -24.151  41.416  20.237  1.00  0.00    -0.003 C 
ENDROOT
BRANCH   2   3
HETATM    3  C12 UNL     1     -24.494  41.028  21.624  1.00  0.00     0.012 C 
HETATM    4  C13 UNL     1     -23.593  41.110  22.572  1.00  0.00     0.006 C 
HETATM    5  C14 UNL     1     -22.234  41.602  22.205  1.00  0.00     0.054 C 
BRANCH   4   6
HETATM    6  C15 UNL     1     -23.840  40.752  23.959  1.00  0.00     0.247 C 
HETATM    7  O4  UNL     1     -24.991  40.318  24.310  1.00  0.00    -0.268 OA
HETATM    8  N1  UNL     1     -22.873  40.848  24.982  1.00  0.00    -0.348 N 
ATOM      9  H1  UNL     1     -21.945  41.186  24.724  1.00  0.00     0.163 HD
BRANCH   8  10
HETATM   10  C16 UNL     1     -23.097  40.504  26.366  1.00  0.00     0.227 C 
BRANCH  10  11
HETATM   11  C17 UNL     1     -22.917  39.068  26.661  1.00  0.00     0.253 C 
HETATM   12  O5  UNL     1     -21.834  38.665  27.135  1.00  0.00    -0.270 OA
HETATM   13  N2  UNL     1     -23.956  38.155  26.412  1.00  0.00    -0.275 N 
ATOM     14  H2  UNL     1     -24.838  38.491  26.025  1.00  0.00     0.189 HD
BRANCH  13  15
HETATM   15  N3  UNL     1     -23.799  36.792  26.686  1.00  0.00    -0.343 N 
ATOM     16  H32 UNL     1     -23.124  36.514  27.397  1.00  0.00     0.176 HD
ATOM     17  H31 UNL     1     -24.347  36.090  26.188  1.00  0.00     0.176 HD
ENDBRANCH  13  15
ENDBRANCH  10  11
ENDBRANCH   8  10
ENDBRANCH   4   6
ENDBRANCH   2   3
BRANCH   1  18
HETATM   18  C9  UNL     1     -24.696  41.479  17.863  1.00  0.00     0.065 C 
HETATM   19  C7  UNL     1     -24.598  40.466  16.792  1.00  0.00     0.153 C 
HETATM   20  O3  UNL     1     -25.956  40.167  17.049  1.00  0.00    -0.381 OA
HETATM   21  C8  UNL     1     -26.083  41.581  17.153  1.00  0.00     0.179 C 
BRANCH  19  22
HETATM   22  C6  UNL     1     -23.650  39.379  16.843  1.00  0.00     0.005 C 
HETATM   23  C5  UNL     1     -22.595  39.393  16.025  1.00  0.00    -0.002 C 
BRANCH  23  24
HETATM   24  C4  UNL     1     -21.601  38.349  16.010  1.00  0.00     0.001 C 
HETATM   25  C3  UNL     1     -21.921  37.108  16.271  1.00  0.00     0.033 C 
BRANCH  25  26
HETATM   26  C2  UNL     1     -20.899  36.010  16.259  1.00  0.00     0.280 C 
BRANCH  26  27
HETATM   27  O1  UNL     1     -21.393  34.865  15.669  1.00  0.00    -0.363 OA
HETATM   28  C1  UNL     1     -21.560  33.889  16.616  1.00  0.00     0.205 C 
ENDBRANCH  26  27
BRANCH  26  29
HETATM   29  O2  UNL     1     -19.723  36.454  15.656  1.00  0.00    -0.368 OA
ATOM     30  H2  UNL     1     -19.765  36.415  14.708  1.00  0.00     0.213 HD
ENDBRANCH  26  29
ENDBRANCH  25  26
ENDBRANCH  23  24
ENDBRANCH  19  22
ENDBRANCH   1  18
TORSDOF 11
ENDMDL
MODEL 4
REMARK VINA RESULT: -7.755780645      0.797      1.120
REMARK  11 active torsions:
REMARK  status: ('A' for Active; 'I' for Inactive)
REMARK    1  A    between atoms: O1_2  and  C2_3 
REMARK    2  A    between atoms: C2_3  and  O2_4 
REMARK    3  A    between atoms: C2_3  and  C3_6 
REMARK    4  A    between atoms: C4_7  and  C5_8 
REMARK    5  A    between atoms: C6_9  and  C7_10 
REMARK    6  A    between atoms: C9_13  and  C10_14 
REMARK    7  A    between atoms: C11_15  and  C12_16 
REMARK    8  A    between atoms: C13_17  and  C15_19 
REMARK       I    between atoms: C15_19  and  N1_21 
REMARK    9  A    between atoms: N1_21  and  C16_23 
REMARK   10  A    between atoms: C16_23  and  C17_24 
REMARK       I    between atoms: C17_24  and  N2_26 
REMARK   11  A    between atoms: N2_26  and  N3_28 
ROOT
HETATM    1  C10 UNL     1     -23.726  41.270  18.603  1.00  0.00    -0.017 C 
HETATM    2  C11 UNL     1     -24.102  42.006  19.607  1.00  0.00    -0.003 C 
ENDROOT
BRANCH   2   3
HETATM    3  C12 UNL     1     -23.525  41.826  20.958  1.00  0.00     0.012 C 
HETATM    4  C13 UNL     1     -24.258  41.334  21.927  1.00  0.00     0.006 C 
HETATM    5  C14 UNL     1     -25.671  40.968  21.618  1.00  0.00     0.054 C 
BRANCH   4   6
HETATM    6  C15 UNL     1     -23.776  41.123  23.282  1.00  0.00     0.247 C 
HETATM    7  O4  UNL     1     -23.188  42.073  23.904  1.00  0.00    -0.268 OA
HETATM    8  N1  UNL     1     -23.914  39.909  23.987  1.00  0.00    -0.348 N 
ATOM      9  H1  UNL     1     -24.385  39.138  23.513  1.00  0.00     0.163 HD
BRANCH   8  10
HETATM   10  C16 UNL     1     -23.438  39.675  25.330  1.00  0.00     0.227 C 
BRANCH  10  11
HETATM   11  C17 UNL     1     -24.497  39.739  26.359  1.00  0.00     0.253 C 
HETATM   12  O5  UNL     1     -24.308  40.400  27.401  1.00  0.00    -0.270 OA
HETATM   13  N2  UNL     1     -25.713  39.060  26.170  1.00  0.00    -0.275 N 
ATOM     14  H2  UNL     1     -25.860  38.522  25.315  1.00  0.00     0.189 HD
BRANCH  13  15
HETATM   15  N3  UNL     1     -26.723  39.110  27.135  1.00  0.00    -0.343 N 
ATOM     16  H32 UNL     1     -27.463  38.410  27.102  1.00  0.00     0.176 HD
ATOM     17  H31 UNL     1     -26.724  39.830  27.858  1.00  0.00     0.176 HD
ENDBRANCH  13  15
ENDBRANCH  10  11
ENDBRANCH   8  10
ENDBRANCH   4   6
ENDBRANCH   2   3
BRANCH   1  18
HETATM   18  C9  UNL     1     -24.226  41.370  17.258  1.00  0.00     0.065 C 
HETATM   19  C7  UNL     1     -24.786  40.220  16.519  1.00  0.00     0.153 C 
HETATM   20  O3  UNL     1     -25.817  40.191  17.486  1.00  0.00    -0.381 OA
HETATM   21  C8  UNL     1     -25.767  41.608  17.350  1.00  0.00     0.179 C 
BRANCH  19  22
HETATM   22  C6  UNL     1     -24.037  39.007  16.299  1.00  0.00     0.005 C 
HETATM   23  C5  UNL     1     -24.160  37.996  17.163  1.00  0.00    -0.002 C 
BRANCH  23  24
HETATM   24  C4  UNL     1     -23.449  36.751  17.019  1.00  0.00     0.001 C 
HETATM   25  C3  UNL     1     -22.344  36.680  16.324  1.00  0.00     0.033 C 
BRANCH  25  26
HETATM   26  C2  UNL     1     -21.593  35.392  16.164  1.00  0.00     0.280 C 
BRANCH  26  27
HETATM   27  O1  UNL     1     -20.230  35.584  16.270  1.00  0.00    -0.363 OA
HETATM   28  C1  UNL     1     -19.909  36.859  15.882  1.00  0.00     0.205 C 
ENDBRANCH  26  27
BRANCH  26  29
HETATM   29  O2  UNL     1     -22.067  34.443  17.069  1.00  0.00    -0.368 OA
ATOM     30  H2  UNL     1     -22.988  34.247  16.939  1.00  0.00     0.213 HD
ENDBRANCH  26  29
ENDBRANCH  25  26
ENDBRANCH  23  24
ENDBRANCH  19  22
ENDBRANCH   1  18
TORSDOF 11
ENDMDL
MODEL 5
REMARK VINA RESULT: -7.721509732      1.486      1.837
REMARK  11 active torsions:
REMARK  status: ('A' for Active; 'I' for Inactive)
REMARK    1  A    between atoms: O1_2  and  C2_3 
REMARK    2  A    between atoms: C2_3  and  O2_4 
REMARK    3  A    between atoms: C2_3  and  C3_6 
REMARK    4  A    between atoms: C4_7  and  C5_8 
REMARK    5  A    between atoms: C6_9  and  C7_10 
REMARK    6  A    between atoms: C9_13  and  C10_14 
REMARK    7  A    between atoms: C11_15  and  C12_16 
REMARK    8  A    between atoms: C13_17  and  C15_19 
REMARK       I    between atoms: C15_19  and  N1_21 
REMARK    9  A    between atoms: N1_21  and  C16_23 
REMARK   10  A    between atoms: C16_23  and  C17_24 
REMARK       I    between atoms: C17_24  and  N2_26 
REMARK   11  A    between atoms: N2_26  and  N3_28 
ROOT
HETATM    1  C10 UNL     1     -24.121  40.978  18.382  1.00  0.00    -0.017 C 
HETATM    2  C11 UNL     1     -24.156  41.942  19.255  1.00  0.00    -0.003 C 
ENDROOT
BRANCH   2   3
HETATM    3  C12 UNL     1     -23.828  41.709  20.679  1.00  0.00     0.012 C 
HETATM    4  C13 UNL     1     -24.786  41.621  21.570  1.00  0.00     0.006 C 
HETATM    5  C14 UNL     1     -26.194  41.761  21.098  1.00  0.00     0.054 C 
BRANCH   4   6
HETATM    6  C15 UNL     1     -24.558  41.394  22.987  1.00  0.00     0.247 C 
HETATM    7  O4  UNL     1     -23.503  41.855  23.545  1.00  0.00    -0.268 OA
HETATM    8  N1  UNL     1     -25.443  40.682  23.824  1.00  0.00    -0.348 N 
ATOM      9  H1  UNL     1     -26.294  40.310  23.402  1.00  0.00     0.163 HD
BRANCH   8  10
HETATM   10  C16 UNL     1     -25.234  40.439  25.231  1.00  0.00     0.227 C 
BRANCH  10  11
HETATM   11  C17 UNL     1     -24.815  39.057  25.544  1.00  0.00     0.253 C 
HETATM   12  O5  UNL     1     -24.358  38.790  26.675  1.00  0.00    -0.270 OA
HETATM   13  N2  UNL     1     -24.929  38.044  24.577  1.00  0.00    -0.275 N 
ATOM     14  H2  UNL     1     -25.304  38.269  23.655  1.00  0.00     0.189 HD
BRANCH  13  15
HETATM   15  N3  UNL     1     -24.537  36.731  24.859  1.00  0.00    -0.343 N 
ATOM     16  H32 UNL     1     -23.598  36.437  24.592  1.00  0.00     0.176 HD
ATOM     17  H31 UNL     1     -25.172  36.081  25.320  1.00  0.00     0.176 HD
ENDBRANCH  13  15
ENDBRANCH  10  11
ENDBRANCH   8  10
ENDBRANCH   4   6
ENDBRANCH   2   3
BRANCH   1  18
HETATM   18  C9  UNL     1     -24.422  41.105  16.982  1.00  0.00     0.065 C 
HETATM   19  C7  UNL     1     -24.874  39.974  16.147  1.00  0.00     0.153 C 
HETATM   20  O3  UNL     1     -26.034  39.935  16.955  1.00  0.00    -0.381 OA
HETATM   21  C8  UNL     1     -25.959  41.353  16.855  1.00  0.00     0.179 C 
BRANCH  19  22
HETATM   22  C6  UNL     1     -24.107  38.759  16.015  1.00  0.00     0.005 C 
HETATM   23  C5  UNL     1     -24.162  37.841  16.984  1.00  0.00    -0.002 C 
BRANCH  23  24
HETATM   24  C4  UNL     1     -23.429  36.602  16.932  1.00  0.00     0.001 C 
HETATM   25  C3  UNL     1     -22.321  36.501  16.244  1.00  0.00     0.033 C 
BRANCH  25  26
HETATM   26  C2  UNL     1     -21.546  35.218  16.180  1.00  0.00     0.280 C 
BRANCH  26  27
HETATM   27  O1  UNL     1     -20.188  35.441  16.291  1.00  0.00    -0.363 OA
HETATM   28  C1  UNL     1     -19.899  36.732  15.933  1.00  0.00     0.205 C 
ENDBRANCH  26  27
BRANCH  26  29
HETATM   29  O2  UNL     1     -22.018  34.323  17.140  1.00  0.00    -0.368 OA
ATOM     30  H2  UNL     1     -22.922  34.490  17.377  1.00  0.00     0.213 HD
ENDBRANCH  26  29
ENDBRANCH  25  26
ENDBRANCH  23  24
ENDBRANCH  19  22
ENDBRANCH   1  18
TORSDOF 11
ENDMDL
