MODEL 1
REMARK VINA RESULT: -6.675083022      0.000      0.000
REMARK  13 active torsions:
REMARK  status: ('A' for Active; 'I' for Inactive)
REMARK    1  A    between atoms: C2_2  and  C3_3 
REMARK       I    between atoms: C3_3  and  N1_5 
REMARK    2  A    between atoms: N1_5  and  C4_7 
REMARK    3  A    between atoms: C4_7  and  C5_8 
REMARK    4  A    between atoms: C4_7  and  C9_17 
REMARK    5  A    between atoms: C5_8  and  C6_9 
REMARK    6  A    between atoms: C6_9  and  O2_11 
REMARK    7  A    between atoms: C6_9  and  C8_13 
REMARK       I    between atoms: C9_17  and  N3_19 
REMARK    8  A    between atoms: N3_19  and  C10_21 
REMARK    9  A    between atoms: C10_21  and  C11_22 
REMARK   10  A    between atoms: C10_21  and  C15_26 
REMARK   11  A    between atoms: C15_26  and  O4_27 
REMARK   12  A    between atoms: C15_26  and  C16_29 
REMARK   13  A    between atoms: C16_29  and  O5_31 
ROOT
HETATM    1  C4  UNL     1     -24.442  38.779  16.526  1.00  0.00     0.083 C 
ENDROOT
BRANCH   1   2
HETATM    2  N1  UNL     1     -23.214  38.154  16.109  1.00  0.00    -0.322 N 
HETATM    3  C3  UNL     1     -22.804  36.902  16.579  1.00  0.00     0.244 C 
HETATM    4  O1  UNL     1     -23.518  36.263  17.405  1.00  0.00    -0.268 OA
ATOM      5  H1  UNL     1     -22.617  38.645  15.443  1.00  0.00     0.169 HD
BRANCH   3   6
HETATM    6  C2  UNL     1     -21.557  36.264  16.157  1.00  0.00     0.064 C 
HETATM    7  C1  UNL     1     -21.350  34.973  16.283  1.00  0.00     0.017 C 
ENDBRANCH   3   6
ENDBRANCH   1   2
BRANCH   1   8
HETATM    8  C5  UNL     1     -25.457  38.867  15.460  1.00  0.00     0.106 C 
BRANCH   8   9
HETATM    9  C6  UNL     1     -25.523  40.086  14.631  1.00  0.00     0.091 C 
HETATM   10  C7  UNL     1     -26.582  41.041  15.098  1.00  0.00     0.052 C 
BRANCH   9  11
HETATM   11  O2  UNL     1     -24.291  40.726  14.478  1.00  0.00    -0.384 OA
ATOM     12  H2  UNL     1     -24.354  41.578  14.062  1.00  0.00     0.211 HD
ENDBRANCH   9  11
BRANCH   9  13
HETATM   13  C8  UNL     1     -25.918  39.695  13.221  1.00  0.00     0.090 C 
HETATM   14  N2  UNL     1     -25.999  40.527  12.279  1.00  0.00    -0.409 N 
ATOM     15  H22 UNL     1     -25.787  41.502  12.491  1.00  0.00     0.155 HD
ATOM     16  H21 UNL     1     -26.265  40.264  11.330  1.00  0.00     0.155 HD
ENDBRANCH   9  13
ENDBRANCH   8   9
ENDBRANCH   1   8
BRANCH   1  17
HETATM   17  C9  UNL     1     -24.264  39.921  17.434  1.00  0.00     0.264 C 
HETATM   18  O3  UNL     1     -23.191  40.595  17.304  1.00  0.00    -0.266 OA
HETATM   19  N3  UNL     1     -25.159  40.334  18.438  1.00  0.00    -0.348 N 
ATOM     20  H3  UNL     1     -26.038  39.829  18.557  1.00  0.00     0.163 HD
BRANCH  19  21
HETATM   21  C10 UNL     1     -24.861  41.496  19.337  1.00  0.00     0.120 C 
BRANCH  21  22
HETATM   22  C11 UNL     1     -24.670  40.854  20.656  1.00  0.00     0.011 C 
HETATM   23  C12 UNL     1     -25.531  41.112  21.823  1.00  0.00     0.007 C 
HETATM   24  C13 UNL     1     -24.236  41.035  22.683  1.00  0.00     0.001 C 
HETATM   25  C14 UNL     1     -23.539  41.568  21.429  1.00  0.00     0.007 C 
ENDBRANCH  21  22
BRANCH  21  26
HETATM   26  C15 UNL     1     -25.931  42.510  19.164  1.00  0.00     0.169 C 
BRANCH  26  27
HETATM   27  O4  UNL     1     -27.081  41.692  18.786  1.00  0.00    -0.391 OA
ATOM     28  H4  UNL     1     -27.706  42.343  18.490  1.00  0.00     0.210 HD
ENDBRANCH  26  27
BRANCH  26  29
HETATM   29  C16 UNL     1     -25.799  43.399  17.969  1.00  0.00     0.145 C 
HETATM   30  C17 UNL     1     -26.017  44.872  18.383  1.00  0.00     0.042 C 
BRANCH  29  31
HETATM   31  O5  UNL     1     -24.628  43.379  17.281  1.00  0.00    -0.393 OA
ATOM     32  H5  UNL     1     -24.038  44.116  17.379  1.00  0.00     0.210 HD
ENDBRANCH  29  31
ENDBRANCH  26  29
ENDBRANCH  21  26
ENDBRANCH  19  21
ENDBRANCH   1  17
TORSDOF 13
ENDMDL
MODEL 2
REMARK VINA RESULT: -6.372312098      1.203      1.347
REMARK  13 active torsions:
REMARK  status: ('A' for Active; 'I' for Inactive)
REMARK    1  A    between atoms: C2_2  and  C3_3 
REMARK       I    between atoms: C3_3  and  N1_5 
REMARK    2  A    between atoms: N1_5  and  C4_7 
REMARK    3  A    between atoms: C4_7  and  C5_8 
REMARK    4  A    between atoms: C4_7  and  C9_17 
REMARK    5  A    between atoms: C5_8  and  C6_9 
REMARK    6  A    between atoms: C6_9  and  O2_11 
REMARK    7  A    between atoms: C6_9  and  C8_13 
REMARK       I    between atoms: C9_17  and  N3_19 
REMARK    8  A    between atoms: N3_19  and  C10_21 
REMARK    9  A    between atoms: C10_21  and  C11_22 
REMARK   10  A    between atoms: C10_21  and  C15_26 
REMARK   11  A    between atoms: C15_26  and  O4_27 
REMARK   12  A    between atoms: C15_26  and  C16_29 
REMARK   13  A    between atoms: C16_29  and  O5_31 
ROOT
HETATM    1  C4  UNL     1     -24.405  39.177  15.981  1.00  0.00     0.083 C 
ENDROOT
BRANCH   1   2
HETATM    2  N1  UNL     1     -23.163  38.477  15.784  1.00  0.00    -0.322 N 
HETATM    3  C3  UNL     1     -22.872  37.260  16.409  1.00  0.00     0.244 C 
HETATM    4  O1  UNL     1     -23.713  36.723  17.187  1.00  0.00    -0.268 OA
ATOM      5  H1  UNL     1     -22.465  38.886  15.162  1.00  0.00     0.169 HD
BRANCH   3   6
HETATM    6  C2  UNL     1     -21.610  36.546  16.211  1.00  0.00     0.064 C 
HETATM    7  C1  UNL     1     -21.501  35.250  16.389  1.00  0.00     0.017 C 
ENDBRANCH   3   6
ENDBRANCH   1   2
BRANCH   1   8
HETATM    8  C5  UNL     1     -25.171  39.391  14.739  1.00  0.00     0.106 C 
BRANCH   8   9
HETATM    9  C6  UNL     1     -26.570  39.854  14.830  1.00  0.00     0.091 C 
HETATM   10  C7  UNL     1     -27.364  39.524  13.600  1.00  0.00     0.052 C 
BRANCH   9  11
HETATM   11  O2  UNL     1     -27.225  39.431  15.988  1.00  0.00    -0.384 OA
ATOM     12  H2  UNL     1     -28.171  39.403  15.902  1.00  0.00     0.211 HD
ENDBRANCH   9  11
BRANCH   9  13
HETATM   13  C8  UNL     1     -26.577  41.366  14.928  1.00  0.00     0.090 C 
HETATM   14  N2  UNL     1     -27.523  42.012  15.452  1.00  0.00    -0.409 N 
ATOM     15  H22 UNL     1     -28.311  41.479  15.821  1.00  0.00     0.155 HD
ATOM     16  H21 UNL     1     -27.528  43.030  15.518  1.00  0.00     0.155 HD
ENDBRANCH   9  13
ENDBRANCH   8   9
ENDBRANCH   1   8
BRANCH   1  17
HETATM   17  C9  UNL     1     -24.341  40.260  16.972  1.00  0.00     0.264 C 
HETATM   18  O3  UNL     1     -23.463  41.162  16.779  1.00  0.00    -0.266 OA
HETATM   19  N3  UNL     1     -25.149  40.390  18.117  1.00  0.00    -0.348 N 
ATOM     20  H3  UNL     1     -25.875  39.696  18.292  1.00  0.00     0.163 HD
BRANCH  19  21
HETATM   21  C10 UNL     1     -24.973  41.520  19.087  1.00  0.00     0.120 C 
BRANCH  21  22
HETATM   22  C11 UNL     1     -24.546  40.831  20.324  1.00  0.00     0.011 C 
HETATM   23  C12 UNL     1     -25.325  40.837  21.575  1.00  0.00     0.007 C 
HETATM   24  C13 UNL     1     -23.961  40.942  22.319  1.00  0.00     0.001 C 
HETATM   25  C14 UNL     1     -23.494  41.687  21.065  1.00  0.00     0.007 C 
ENDBRANCH  21  22
BRANCH  21  26
HETATM   26  C15 UNL     1     -26.216  42.331  19.093  1.00  0.00     0.169 C 
BRANCH  26  27
HETATM   27  O4  UNL     1     -27.151  41.478  18.363  1.00  0.00    -0.391 OA
ATOM     28  H4  UNL     1     -27.556  40.976  19.060  1.00  0.00     0.210 HD
ENDBRANCH  26  27
BRANCH  26  29
HETATM   29  C16 UNL     1     -26.200  43.553  18.230  1.00  0.00     0.145 C 
HETATM   30  C17 UNL     1     -25.937  44.804  19.098  1.00  0.00     0.042 C 
BRANCH  29  31
HETATM   31  O5  UNL     1     -25.299  43.610  17.216  1.00  0.00    -0.393 OA
ATOM     32  H5  UNL     1     -25.023  44.465  16.910  1.00  0.00     0.210 HD
ENDBRANCH  29  31
ENDBRANCH  26  29
ENDBRANCH  21  26
ENDBRANCH  19  21
ENDBRANCH   1  17
TORSDOF 13
ENDMDL
MODEL 3
REMARK VINA RESULT: -6.360493190      1.869      3.825
REMARK  13 active torsions:
REMARK  status: ('A' for Active; 'I' for Inactive)
REMARK    1  A    between atoms: C2_2  and  C3_3 
REMARK       I    between atoms: C3_3  and  N1_5 
REMARK    2  A    between atoms: N1_5  and  C4_7 
REMARK    3  A    between atoms: C4_7  and  C5_8 
REMARK    4  A    between atoms: C4_7  and  C9_17 
REMARK    5  A    between atoms: C5_8  and  C6_9 
REMARK    6  A    between atoms: C6_9  and  O2_11 
REMARK    7  A    between atoms: C6_9  and  C8_13 
REMARK       I    between atoms: C9_17  and  N3_19 
REMARK    8  A    between atoms: N3_19  and  C10_21 
REMARK    9  A    between atoms: C10_21  and  C11_22 
REMARK   10  A    between atoms: C10_21  and  C15_26 
REMARK   11  A    between atoms: C15_26  and  O4_27 
REMARK   12  A    between atoms: C15_26  and  C16_29 
REMARK   13  A    between atoms: C16_29  and  O5_31 
ROOT
HETATM    1  C4  UNL     1     -24.056  40.199  17.288  1.00  0.00     0.083 C 
ENDROOT
BRANCH   1   2
HETATM    2  N1  UNL     1     -24.676  40.782  16.127  1.00  0.00    -0.322 N 
HETATM    3  C3  UNL     1     -26.045  41.065  16.063  1.00  0.00     0.244 C 
HETATM    4  O1  UNL     1     -26.798  40.813  17.048  1.00  0.00    -0.268 OA
ATOM      5  H1  UNL     1     -24.094  40.997  15.317  1.00  0.00     0.169 HD
BRANCH   3   6
HETATM    6  C2  UNL     1     -26.680  41.657  14.885  1.00  0.00     0.064 C 
HETATM    7  C1  UNL     1     -26.098  41.674  13.708  1.00  0.00     0.017 C 
ENDBRANCH   3   6
ENDBRANCH   1   2
BRANCH   1   8
HETATM    8  C5  UNL     1     -24.150  38.728  17.338  1.00  0.00     0.106 C 
BRANCH   8   9
HETATM    9  C6  UNL     1     -23.421  37.928  16.335  1.00  0.00     0.091 C 
HETATM   10  C7  UNL     1     -23.088  36.551  16.831  1.00  0.00     0.052 C 
BRANCH   9  11
HETATM   11  O2  UNL     1     -24.051  37.882  15.090  1.00  0.00    -0.384 OA
ATOM     12  H2  UNL     1     -23.452  37.747  14.365  1.00  0.00     0.211 HD
ENDBRANCH   9  11
BRANCH   9  13
HETATM   13  C8  UNL     1     -22.089  38.594  16.055  1.00  0.00     0.090 C 
HETATM   14  N2  UNL     1     -21.061  37.951  15.714  1.00  0.00    -0.409 N 
ATOM     15  H22 UNL     1     -21.146  36.938  15.628  1.00  0.00     0.155 HD
ATOM     16  H21 UNL     1     -20.165  38.400  15.525  1.00  0.00     0.155 HD
ENDBRANCH   9  13
ENDBRANCH   8   9
ENDBRANCH   1   8
BRANCH   1  17
HETATM   17  C9  UNL     1     -24.246  40.966  18.527  1.00  0.00     0.264 C 
HETATM   18  O3  UNL     1     -23.455  41.946  18.722  1.00  0.00    -0.266 OA
HETATM   19  N3  UNL     1     -25.211  40.718  19.521  1.00  0.00    -0.348 N 
ATOM     20  H3  UNL     1     -25.873  39.953  19.388  1.00  0.00     0.163 HD
BRANCH  19  21
HETATM   21  C10 UNL     1     -25.294  41.543  20.770  1.00  0.00     0.120 C 
BRANCH  21  22
HETATM   22  C11 UNL     1     -25.143  40.537  21.843  1.00  0.00     0.011 C 
HETATM   23  C12 UNL     1     -25.869  40.592  23.124  1.00  0.00     0.007 C 
HETATM   24  C13 UNL     1     -24.560  40.071  23.786  1.00  0.00     0.001 C 
HETATM   25  C14 UNL     1     -23.855  40.815  22.649  1.00  0.00     0.007 C 
ENDBRANCH  21  22
BRANCH  21  26
HETATM   26  C15 UNL     1     -26.526  42.368  20.706  1.00  0.00     0.169 C 
BRANCH  26  27
HETATM   27  O4  UNL     1     -27.397  41.565  19.851  1.00  0.00    -0.391 OA
ATOM     28  H4  UNL     1     -28.175  42.106  19.787  1.00  0.00     0.210 HD
ENDBRANCH  26  27
BRANCH  26  29
HETATM   29  C16 UNL     1     -26.424  43.632  19.915  1.00  0.00     0.145 C 
HETATM   30  C17 UNL     1     -25.252  44.490  20.445  1.00  0.00     0.042 C 
BRANCH  29  31
HETATM   31  O5  UNL     1     -26.233  43.535  18.574  1.00  0.00    -0.393 OA
ATOM     32  H5  UNL     1     -25.847  44.275  18.121  1.00  0.00     0.210 HD
ENDBRANCH  29  31
ENDBRANCH  26  29
ENDBRANCH  21  26
ENDBRANCH  19  21
ENDBRANCH   1  17
TORSDOF 13
ENDMDL
MODEL 4
REMARK VINA RESULT: -6.277995816      1.716      3.904
REMARK  13 active torsions:
REMARK  status: ('A' for Active; 'I' for Inactive)
REMARK    1  A    between atoms: C2_2  and  C3_3 
REMARK       I    between atoms: C3_3  and  N1_5 
REMARK    2  A    between atoms: N1_5  and  C4_7 
REMARK    3  A    between atoms: C4_7  and  C5_8 
REMARK    4  A    between atoms: C4_7  and  C9_17 
REMARK    5  A    between atoms: C5_8  and  C6_9 
REMARK    6  A    between atoms: C6_9  and  O2_11 
REMARK    7  A    between atoms: C6_9  and  C8_13 
REMARK       I    between atoms: C9_17  and  N3_19 
REMARK    8  A    between atoms: N3_19  and  C10_21 
REMARK    9  A    between atoms: C10_21  and  C11_22 
REMARK   10  A    between atoms: C10_21  and  C15_26 
REMARK   11  A    between atoms: C15_26  and  O4_27 
REMARK   12  A    between atoms: C15_26  and  C16_29 
REMARK   13  A    between atoms: C16_29  and  O5_31 
ROOT
HETATM    1  C4  UNL     1     -24.415  40.199  17.205  1.00  0.00     0.083 C 
ENDROOT
BRANCH   1   2
HETATM    2  N1  UNL     1     -25.361  40.590  16.194  1.00  0.00    -0.322 N 
HETATM    3  C3  UNL     1     -24.978  41.202  14.995  1.00  0.00     0.244 C 
HETATM    4  O1  UNL     1     -23.758  41.436  14.757  1.00  0.00    -0.268 OA
ATOM      5  H1  UNL     1     -26.353  40.414  16.357  1.00  0.00     0.169 HD
BRANCH   3   6
HETATM    6  C2  UNL     1     -25.937  41.601  13.965  1.00  0.00     0.064 C 
HETATM    7  C1  UNL     1     -26.091  40.927  12.849  1.00  0.00     0.017 C 
ENDBRANCH   3   6
ENDBRANCH   1   2
BRANCH   1   8
HETATM    8  C5  UNL     1     -24.332  38.740  17.410  1.00  0.00     0.106 C 
BRANCH   8   9
HETATM    9  C6  UNL     1     -23.560  37.924  16.454  1.00  0.00     0.091 C 
HETATM   10  C7  UNL     1     -23.203  36.576  17.007  1.00  0.00     0.052 C 
BRANCH   9  11
HETATM   11  O2  UNL     1     -24.159  37.816  15.197  1.00  0.00    -0.384 OA
ATOM     12  H2  UNL     1     -25.012  37.396  15.217  1.00  0.00     0.211 HD
ENDBRANCH   9  11
BRANCH   9  13
HETATM   13  C8  UNL     1     -22.240  38.615  16.178  1.00  0.00     0.090 C 
HETATM   14  N2  UNL     1     -21.225  38.005  15.749  1.00  0.00    -0.409 N 
ATOM     15  H22 UNL     1     -21.313  37.002  15.584  1.00  0.00     0.155 HD
ATOM     16  H21 UNL     1     -20.337  38.471  15.563  1.00  0.00     0.155 HD
ENDBRANCH   9  13
ENDBRANCH   8   9
ENDBRANCH   1   8
BRANCH   1  17
HETATM   17  C9  UNL     1     -24.379  41.084  18.377  1.00  0.00     0.264 C 
HETATM   18  O3  UNL     1     -23.784  42.202  18.233  1.00  0.00    -0.266 OA
HETATM   19  N3  UNL     1     -24.928  40.813  19.644  1.00  0.00    -0.348 N 
ATOM     20  H3  UNL     1     -25.428  39.935  19.789  1.00  0.00     0.163 HD
BRANCH  19  21
HETATM   21  C10 UNL     1     -24.800  41.775  20.787  1.00  0.00     0.120 C 
BRANCH  21  22
HETATM   22  C11 UNL     1     -23.807  41.118  21.664  1.00  0.00     0.011 C 
HETATM   23  C12 UNL     1     -23.724  41.343  23.118  1.00  0.00     0.007 C 
HETATM   24  C13 UNL     1     -22.178  41.277  22.949  1.00  0.00     0.001 C 
HETATM   25  C14 UNL     1     -22.447  41.841  21.552  1.00  0.00     0.007 C 
ENDBRANCH  21  22
BRANCH  21  26
HETATM   26  C15 UNL     1     -26.159  42.067  21.309  1.00  0.00     0.169 C 
BRANCH  26  27
HETATM   27  O4  UNL     1     -26.729  40.731  21.465  1.00  0.00    -0.391 OA
ATOM     28  H4  UNL     1     -25.971  40.213  21.711  1.00  0.00     0.210 HD
ENDBRANCH  26  27
BRANCH  26  29
HETATM   29  C16 UNL     1     -27.113  42.680  20.334  1.00  0.00     0.145 C 
HETATM   30  C17 UNL     1     -26.499  43.966  19.737  1.00  0.00     0.042 C 
BRANCH  29  31
HETATM   31  O5  UNL     1     -27.512  41.934  19.271  1.00  0.00    -0.393 OA
ATOM     32  H5  UNL     1     -28.426  41.968  19.018  1.00  0.00     0.210 HD
ENDBRANCH  29  31
ENDBRANCH  26  29
ENDBRANCH  21  26
ENDBRANCH  19  21
ENDBRANCH   1  17
TORSDOF 13
ENDMDL
MODEL 5
REMARK VINA RESULT: -6.260523031      0.873      1.038
REMARK  13 active torsions:
REMARK  status: ('A' for Active; 'I' for Inactive)
REMARK    1  A    between atoms: C2_2  and  C3_3 
REMARK       I    between atoms: C3_3  and  N1_5 
REMARK    2  A    between atoms: N1_5  and  C4_7 
REMARK    3  A    between atoms: C4_7  and  C5_8 
REMARK    4  A    between atoms: C4_7  and  C9_17 
REMARK    5  A    between atoms: C5_8  and  C6_9 
REMARK    6  A    between atoms: C6_9  and  O2_11 
REMARK    7  A    between atoms: C6_9  and  C8_13 
REMARK       I    between atoms: C9_17  and  N3_19 
REMARK    8  A    between atoms: N3_19  and  C10_21 
REMARK    9  A    between atoms: C10_21  and  C11_22 
REMARK   10  A    between atoms: C10_21  and  C15_26 
REMARK   11  A    between atoms: C15_26  and  O4_27 
REMARK   12  A    between atoms: C15_26  and  C16_29 
REMARK   13  A    between atoms: C16_29  and  O5_31 
ROOT
HETATM    1  C4  UNL     1     -24.503  39.206  17.058  1.00  0.00     0.083 C 
ENDROOT
BRANCH   1   2
HETATM    2  N1  UNL     1     -23.265  38.642  16.588  1.00  0.00    -0.322 N 
HETATM    3  C3  UNL     1     -22.963  37.281  16.700  1.00  0.00     0.244 C 
HETATM    4  O1  UNL     1     -23.789  36.483  17.231  1.00  0.00    -0.268 OA
ATOM      5  H1  UNL     1     -22.580  39.261  16.155  1.00  0.00     0.169 HD
BRANCH   3   6
HETATM    6  C2  UNL     1     -21.705  36.704  16.224  1.00  0.00     0.064 C 
HETATM    7  C1  UNL     1     -21.477  35.411  16.233  1.00  0.00     0.017 C 
ENDBRANCH   3   6
ENDBRANCH   1   2
BRANCH   1   8
HETATM    8  C5  UNL     1     -25.557  39.272  16.027  1.00  0.00     0.106 C 
BRANCH   8   9
HETATM    9  C6  UNL     1     -25.432  40.259  14.937  1.00  0.00     0.091 C 
HETATM   10  C7  UNL     1     -26.402  41.395  15.078  1.00  0.00     0.052 C 
BRANCH   9  11
HETATM   11  O2  UNL     1     -24.129  40.723  14.747  1.00  0.00    -0.384 OA
ATOM     12  H2  UNL     1     -24.018  41.234  13.954  1.00  0.00     0.211 HD
ENDBRANCH   9  11
BRANCH   9  13
HETATM   13  C8  UNL     1     -25.781  39.583  13.626  1.00  0.00     0.090 C 
HETATM   14  N2  UNL     1     -25.906  40.215  12.544  1.00  0.00    -0.409 N 
ATOM     15  H22 UNL     1     -25.762  41.224  12.568  1.00  0.00     0.155 HD
ATOM     16  H21 UNL     1     -26.140  39.760  11.661  1.00  0.00     0.155 HD
ENDBRANCH   9  13
ENDBRANCH   8   9
ENDBRANCH   1   8
BRANCH   1  17
HETATM   17  C9  UNL     1     -24.343  40.336  17.984  1.00  0.00     0.264 C 
HETATM   18  O3  UNL     1     -23.386  41.141  17.745  1.00  0.00    -0.266 OA
HETATM   19  N3  UNL     1     -25.139  40.608  19.112  1.00  0.00    -0.348 N 
ATOM     20  H3  UNL     1     -25.927  39.995  19.322  1.00  0.00     0.163 HD
BRANCH  19  21
HETATM   21  C10 UNL     1     -24.864  41.773  20.015  1.00  0.00     0.120 C 
BRANCH  21  22
HETATM   22  C11 UNL     1     -24.156  41.150  21.154  1.00  0.00     0.011 C 
HETATM   23  C12 UNL     1     -24.381  41.525  22.561  1.00  0.00     0.007 C 
HETATM   24  C13 UNL     1     -22.849  41.337  22.763  1.00  0.00     0.001 C 
HETATM   25  C14 UNL     1     -22.746  41.764  21.296  1.00  0.00     0.007 C 
ENDBRANCH  21  22
BRANCH  21  26
HETATM   26  C15 UNL     1     -26.139  42.495  20.251  1.00  0.00     0.169 C 
BRANCH  26  27
HETATM   27  O4  UNL     1     -27.090  41.401  20.433  1.00  0.00    -0.391 OA
ATOM     28  H4  UNL     1     -27.180  41.365  21.378  1.00  0.00     0.210 HD
ENDBRANCH  26  27
BRANCH  26  29
HETATM   29  C16 UNL     1     -26.721  43.194  19.064  1.00  0.00     0.145 C 
HETATM   30  C17 UNL     1     -25.600  43.904  18.271  1.00  0.00     0.042 C 
BRANCH  29  31
HETATM   31  O5  UNL     1     -27.403  42.453  18.154  1.00  0.00    -0.393 OA
ATOM     32  H5  UNL     1     -27.956  41.750  18.473  1.00  0.00     0.210 HD
ENDBRANCH  29  31
ENDBRANCH  26  29
ENDBRANCH  21  26
ENDBRANCH  19  21
ENDBRANCH   1  17
TORSDOF 13
ENDMDL
