MODEL 1
REMARK VINA RESULT: -6.964608038      0.000      0.000
REMARK  14 active torsions:
REMARK  status: ('A' for Active; 'I' for Inactive)
REMARK    1  A    between atoms: C2_2  and  C3_3 
REMARK    2  A    between atoms: C4_4  and  C5_5 
REMARK    3  A    between atoms: C5_5  and  C6_6 
REMARK    4  A    between atoms: C5_5  and  N1_26 
REMARK    5  A    between atoms: C7_7  and  C8_8 
REMARK    6  A    between atoms: C9_9  and  C10_10 
REMARK    7  A    between atoms: C10_10  and  C11_11 
REMARK    8  A    between atoms: C12_13  and  C13_14 
REMARK    9  A    between atoms: C13_14  and  O2_15 
REMARK   10  A    between atoms: C14_17  and  O3_18 
REMARK   11  A    between atoms: C15_20  and  O4_21 
REMARK   12  A    between atoms: C16_23  and  O5_24 
REMARK   13  A    between atoms: N1_26  and  C17_28 
REMARK   14  A    between atoms: C17_28  and  C18_29 
ROOT
HETATM    1  C11 UNL     1     -23.257  42.030  21.033  1.00  0.00     0.157 C 
HETATM    2  O1  UNL     1     -23.515  43.289  21.515  1.00  0.00    -0.373 OA
HETATM    3  C12 UNL     1     -22.757  43.670  22.590  1.00  0.00     0.176 C 
HETATM    4  C14 UNL     1     -21.510  42.852  22.817  1.00  0.00     0.180 C 
HETATM    5  C15 UNL     1     -21.846  41.387  22.955  1.00  0.00     0.180 C 
HETATM    6  C16 UNL     1     -23.149  41.093  22.209  1.00  0.00     0.178 C 
ENDROOT
BRANCH   1   7
HETATM    7  C10 UNL     1     -24.283  41.594  20.030  1.00  0.00     0.061 C 
BRANCH   7   8
HETATM    8  C9  UNL     1     -23.918  41.762  18.631  1.00  0.00    -0.024 C 
HETATM    9  C8  UNL     1     -24.009  40.845  17.735  1.00  0.00    -0.004 C 
BRANCH   9  10
HETATM   10  C7  UNL     1     -24.484  39.497  17.960  1.00  0.00    -0.002 C 
HETATM   11  C6  UNL     1     -24.207  38.510  17.146  1.00  0.00     0.002 C 
BRANCH  11  12
HETATM   12  C5  UNL     1     -23.380  38.750  15.944  1.00  0.00     0.127 C 
BRANCH  12  13
HETATM   13  C4  UNL     1     -22.266  37.770  15.959  1.00  0.00     0.002 C 
HETATM   14  C3  UNL     1     -22.479  36.504  16.264  1.00  0.00    -0.002 C 
BRANCH  14  15
HETATM   15  C2  UNL     1     -21.367  35.553  16.274  1.00  0.00    -0.010 C 
HETATM   16  C1  UNL     1     -21.542  34.302  16.634  1.00  0.00     0.011 C 
ENDBRANCH  14  15
ENDBRANCH  12  13
BRANCH  12  17
HETATM   17  N1  UNL     1     -24.091  38.683  14.732  1.00  0.00    -0.388 N 
ATOM     18  H1  UNL     1     -24.012  37.840  14.164  1.00  0.00     0.159 HD
BRANCH  17  19
HETATM   19  C17 UNL     1     -24.901  39.725  14.278  1.00  0.00     0.083 C 
BRANCH  19  20
HETATM   20  C18 UNL     1     -26.358  39.478  14.209  1.00  0.00     0.006 C 
HETATM   21  C19 UNL     1     -27.148  39.806  15.241  1.00  0.00     0.012 C 
ENDBRANCH  19  20
ENDBRANCH  17  19
ENDBRANCH  12  17
ENDBRANCH  11  12
ENDBRANCH   9  10
ENDBRANCH   7   8
ENDBRANCH   1   7
BRANCH   6  22
HETATM   22  O5  UNL     1     -24.232  41.318  23.056  1.00  0.00    -0.390 OA
ATOM     23  H5  UNL     1     -23.919  41.763  23.835  1.00  0.00     0.210 HD
ENDBRANCH   6  22
BRANCH   3  24
HETATM   24  C13 UNL     1     -22.395  45.158  22.536  1.00  0.00     0.198 C 
BRANCH  24  25
HETATM   25  O2  UNL     1     -22.196  45.456  21.170  1.00  0.00    -0.398 OA
ATOM     26  H2  UNL     1     -23.026  45.797  20.857  1.00  0.00     0.209 HD
ENDBRANCH  24  25
ENDBRANCH   3  24
BRANCH   5  27
HETATM   27  O4  UNL     1     -22.037  41.117  24.308  1.00  0.00    -0.390 OA
ATOM     28  H4  UNL     1     -21.340  40.537  24.591  1.00  0.00     0.210 HD
ENDBRANCH   5  27
BRANCH   4  29
HETATM   29  O3  UNL     1     -20.544  43.098  21.842  1.00  0.00    -0.390 OA
ATOM     30  H3  UNL     1     -20.618  43.974  21.483  1.00  0.00     0.210 HD
ENDBRANCH   4  29
TORSDOF 14
ENDMDL
MODEL 2
REMARK VINA RESULT: -6.687758690      1.205      2.398
REMARK  14 active torsions:
REMARK  status: ('A' for Active; 'I' for Inactive)
REMARK    1  A    between atoms: C2_2  and  C3_3 
REMARK    2  A    between atoms: C4_4  and  C5_5 
REMARK    3  A    between atoms: C5_5  and  C6_6 
REMARK    4  A    between atoms: C5_5  and  N1_26 
REMARK    5  A    between atoms: C7_7  and  C8_8 
REMARK    6  A    between atoms: C9_9  and  C10_10 
REMARK    7  A    between atoms: C10_10  and  C11_11 
REMARK    8  A    between atoms: C12_13  and  C13_14 
REMARK    9  A    between atoms: C13_14  and  O2_15 
REMARK   10  A    between atoms: C14_17  and  O3_18 
REMARK   11  A    between atoms: C15_20  and  O4_21 
REMARK   12  A    between atoms: C16_23  and  O5_24 
REMARK   13  A    between atoms: N1_26  and  C17_28 
REMARK   14  A    between atoms: C17_28  and  C18_29 
ROOT
HETATM    1  C11 UNL     1     -24.562  42.419  20.514  1.00  0.00     0.157 C 
HETATM    2  O1  UNL     1     -23.238  42.086  20.652  1.00  0.00    -0.373 OA
HETATM    3  C12 UNL     1     -22.662  42.459  21.837  1.00  0.00     0.176 C 
HETATM    4  C14 UNL     1     -23.631  42.793  22.944  1.00  0.00     0.180 C 
HETATM    5  C15 UNL     1     -24.590  43.875  22.510  1.00  0.00     0.180 C 
HETATM    6  C16 UNL     1     -24.738  43.840  20.987  1.00  0.00     0.178 C 
ENDROOT
BRANCH   1   7
HETATM    7  C10 UNL     1     -25.050  42.205  19.113  1.00  0.00     0.061 C 
BRANCH   7   8
HETATM    8  C9  UNL     1     -24.021  41.992  18.106  1.00  0.00    -0.024 C 
HETATM    9  C8  UNL     1     -23.737  40.854  17.580  1.00  0.00    -0.004 C 
BRANCH   9  10
HETATM   10  C7  UNL     1     -24.383  39.599  17.895  1.00  0.00    -0.002 C 
HETATM   11  C6  UNL     1     -24.329  38.561  17.098  1.00  0.00     0.002 C 
BRANCH  11  12
HETATM   12  C5  UNL     1     -23.587  38.645  15.822  1.00  0.00     0.127 C 
BRANCH  12  13
HETATM   13  C4  UNL     1     -22.419  37.733  15.919  1.00  0.00     0.002 C 
HETATM   14  C3  UNL     1     -22.571  36.468  16.260  1.00  0.00    -0.002 C 
BRANCH  14  15
HETATM   15  C2  UNL     1     -21.407  35.586  16.351  1.00  0.00    -0.010 C 
HETATM   16  C1  UNL     1     -21.541  34.302  16.595  1.00  0.00     0.011 C 
ENDBRANCH  14  15
ENDBRANCH  12  13
BRANCH  12  17
HETATM   17  N1  UNL     1     -24.360  38.350  14.685  1.00  0.00    -0.388 N 
ATOM     18  H1  UNL     1     -24.240  37.445  14.232  1.00  0.00     0.159 HD
BRANCH  17  19
HETATM   19  C17 UNL     1     -25.285  39.249  14.153  1.00  0.00     0.083 C 
BRANCH  19  20
HETATM   20  C18 UNL     1     -24.882  40.669  14.054  1.00  0.00     0.006 C 
HETATM   21  C19 UNL     1     -25.651  41.628  14.588  1.00  0.00     0.012 C 
ENDBRANCH  19  20
ENDBRANCH  17  19
ENDBRANCH  12  17
ENDBRANCH  11  12
ENDBRANCH   9  10
ENDBRANCH   7   8
ENDBRANCH   1   7
BRANCH   6  22
HETATM   22  O5  UNL     1     -23.745  44.627  20.405  1.00  0.00    -0.390 OA
ATOM     23  H5  UNL     1     -23.966  44.763  19.490  1.00  0.00     0.210 HD
ENDBRANCH   6  22
BRANCH   3  24
HETATM   24  C13 UNL     1     -21.651  41.420  22.334  1.00  0.00     0.198 C 
BRANCH  24  25
HETATM   25  O2  UNL     1     -21.525  41.640  23.724  1.00  0.00    -0.398 OA
ATOM     26  H2  UNL     1     -21.345  40.789  24.105  1.00  0.00     0.209 HD
ENDBRANCH  24  25
ENDBRANCH   3  24
BRANCH   5  27
HETATM   27  O4  UNL     1     -24.046  45.102  22.877  1.00  0.00    -0.390 OA
ATOM     28  H4  UNL     1     -24.290  45.740  22.217  1.00  0.00     0.210 HD
ENDBRANCH   5  27
BRANCH   4  29
HETATM   29  O3  UNL     1     -24.277  41.657  23.429  1.00  0.00    -0.390 OA
ATOM     30  H3  UNL     1     -24.028  41.464  24.325  1.00  0.00     0.210 HD
ENDBRANCH   4  29
TORSDOF 14
ENDMDL
MODEL 3
REMARK VINA RESULT: -6.643191383      2.733      3.411
REMARK  14 active torsions:
REMARK  status: ('A' for Active; 'I' for Inactive)
REMARK    1  A    between atoms: C2_2  and  C3_3 
REMARK    2  A    between atoms: C4_4  and  C5_5 
REMARK    3  A    between atoms: C5_5  and  C6_6 
REMARK    4  A    between atoms: C5_5  and  N1_26 
REMARK    5  A    between atoms: C7_7  and  C8_8 
REMARK    6  A    between atoms: C9_9  and  C10_10 
REMARK    7  A    between atoms: C10_10  and  C11_11 
REMARK    8  A    between atoms: C12_13  and  C13_14 
REMARK    9  A    between atoms: C13_14  and  O2_15 
REMARK   10  A    between atoms: C14_17  and  O3_18 
REMARK   11  A    between atoms: C15_20  and  O4_21 
REMARK   12  A    between atoms: C16_23  and  O5_24 
REMARK   13  A    between atoms: N1_26  and  C17_28 
REMARK   14  A    between atoms: C17_28  and  C18_29 
ROOT
HETATM    1  C11 UNL     1     -25.658  43.202  18.328  1.00  0.00     0.157 C 
HETATM    2  O1  UNL     1     -26.538  44.251  18.240  1.00  0.00    -0.373 OA
HETATM    3  C12 UNL     1     -26.868  44.839  19.432  1.00  0.00     0.176 C 
HETATM    4  C14 UNL     1     -25.932  44.537  20.576  1.00  0.00     0.180 C 
HETATM    5  C15 UNL     1     -25.809  43.048  20.788  1.00  0.00     0.180 C 
HETATM    6  C16 UNL     1     -26.094  42.322  19.472  1.00  0.00     0.178 C 
ENDROOT
BRANCH   1   7
HETATM    7  C10 UNL     1     -25.540  42.460  17.031  1.00  0.00     0.061 C 
BRANCH   7   8
HETATM    8  C9  UNL     1     -24.192  42.083  16.632  1.00  0.00    -0.024 C 
HETATM    9  C8  UNL     1     -23.624  40.970  16.933  1.00  0.00    -0.004 C 
BRANCH   9  10
HETATM   10  C7  UNL     1     -24.218  39.909  17.715  1.00  0.00    -0.002 C 
HETATM   11  C6  UNL     1     -24.247  38.666  17.306  1.00  0.00     0.002 C 
BRANCH  11  12
HETATM   12  C5  UNL     1     -23.656  38.302  15.999  1.00  0.00     0.127 C 
BRANCH  12  13
HETATM   13  C4  UNL     1     -22.886  37.047  16.186  1.00  0.00     0.002 C 
HETATM   14  C3  UNL     1     -23.275  36.133  17.054  1.00  0.00    -0.002 C 
BRANCH  14  15
HETATM   15  C2  UNL     1     -22.501  34.903  17.223  1.00  0.00    -0.010 C 
HETATM   16  C1  UNL     1     -21.512  34.603  16.413  1.00  0.00     0.011 C 
ENDBRANCH  14  15
ENDBRANCH  12  13
BRANCH  12  17
HETATM   17  N1  UNL     1     -24.594  38.165  14.961  1.00  0.00    -0.388 N 
ATOM     18  H1  UNL     1     -25.016  37.251  14.799  1.00  0.00     0.159 HD
BRANCH  17  19
HETATM   19  C17 UNL     1     -24.970  39.232  14.143  1.00  0.00     0.083 C 
BRANCH  19  20
HETATM   20  C18 UNL     1     -26.351  39.746  14.280  1.00  0.00     0.006 C 
HETATM   21  C19 UNL     1     -27.063  39.480  15.384  1.00  0.00     0.012 C 
ENDBRANCH  19  20
ENDBRANCH  17  19
ENDBRANCH  12  17
ENDBRANCH  11  12
ENDBRANCH   9  10
ENDBRANCH   7   8
ENDBRANCH   1   7
BRANCH   6  22
HETATM   22  O5  UNL     1     -27.463  42.089  19.355  1.00  0.00    -0.390 OA
ATOM     23  H5  UNL     1     -27.595  41.182  19.107  1.00  0.00     0.210 HD
ENDBRANCH   6  22
BRANCH   3  24
HETATM   24  C13 UNL     1     -27.037  46.356  19.294  1.00  0.00     0.198 C 
BRANCH  24  25
HETATM   25  O2  UNL     1     -25.939  46.797  18.523  1.00  0.00    -0.398 OA
ATOM     26  H2  UNL     1     -25.276  47.066  19.148  1.00  0.00     0.209 HD
ENDBRANCH  24  25
ENDBRANCH   3  24
BRANCH   5  27
HETATM   27  O4  UNL     1     -26.767  42.667  21.723  1.00  0.00    -0.390 OA
ATOM     28  H4  UNL     1     -27.522  43.233  21.616  1.00  0.00     0.210 HD
ENDBRANCH   5  27
BRANCH   4  29
HETATM   29  O3  UNL     1     -24.699  45.167  20.420  1.00  0.00    -0.390 OA
ATOM     30  H3  UNL     1     -24.526  45.386  19.512  1.00  0.00     0.210 HD
ENDBRANCH   4  29
TORSDOF 14
ENDMDL
MODEL 4
REMARK VINA RESULT: -6.640754614      1.341      3.589
REMARK  14 active torsions:
REMARK  status: ('A' for Active; 'I' for Inactive)
REMARK    1  A    between atoms: C2_2  and  C3_3 
REMARK    2  A    between atoms: C4_4  and  C5_5 
REMARK    3  A    between atoms: C5_5  and  C6_6 
REMARK    4  A    between atoms: C5_5  and  N1_26 
REMARK    5  A    between atoms: C7_7  and  C8_8 
REMARK    6  A    between atoms: C9_9  and  C10_10 
REMARK    7  A    between atoms: C10_10  and  C11_11 
REMARK    8  A    between atoms: C12_13  and  C13_14 
REMARK    9  A    between atoms: C13_14  and  O2_15 
REMARK   10  A    between atoms: C14_17  and  O3_18 
REMARK   11  A    between atoms: C15_20  and  O4_21 
REMARK   12  A    between atoms: C16_23  and  O5_24 
REMARK   13  A    between atoms: N1_26  and  C17_28 
REMARK   14  A    between atoms: C17_28  and  C18_29 
ROOT
HETATM    1  C11 UNL     1     -22.919  41.842  21.134  1.00  0.00     0.157 C 
HETATM    2  O1  UNL     1     -22.172  42.931  21.508  1.00  0.00    -0.373 OA
HETATM    3  C12 UNL     1     -21.326  42.724  22.564  1.00  0.00     0.176 C 
HETATM    4  C14 UNL     1     -21.038  41.278  22.881  1.00  0.00     0.180 C 
HETATM    5  C15 UNL     1     -22.319  40.519  23.131  1.00  0.00     0.180 C 
HETATM    6  C16 UNL     1     -23.467  41.200  22.384  1.00  0.00     0.178 C 
ENDROOT
BRANCH   1   7
HETATM    7  C10 UNL     1     -23.989  42.208  20.149  1.00  0.00     0.061 C 
BRANCH   7   8
HETATM    8  C9  UNL     1     -24.770  41.102  19.616  1.00  0.00    -0.024 C 
HETATM    9  C8  UNL     1     -24.512  40.484  18.519  1.00  0.00    -0.004 C 
BRANCH   9  10
HETATM   10  C7  UNL     1     -23.410  40.779  17.629  1.00  0.00    -0.002 C 
HETATM   11  C6  UNL     1     -23.045  39.967  16.669  1.00  0.00     0.002 C 
BRANCH  11  12
HETATM   12  C5  UNL     1     -23.768  38.694  16.461  1.00  0.00     0.127 C 
BRANCH  12  13
HETATM   13  C4  UNL     1     -24.499  38.796  15.173  1.00  0.00     0.002 C 
HETATM   14  C3  UNL     1     -25.746  39.225  15.131  1.00  0.00    -0.002 C 
BRANCH  14  15
HETATM   15  C2  UNL     1     -26.449  39.317  13.851  1.00  0.00    -0.010 C 
HETATM   16  C1  UNL     1     -26.118  40.218  12.955  1.00  0.00     0.011 C 
ENDBRANCH  14  15
ENDBRANCH  12  13
BRANCH  12  17
HETATM   17  N1  UNL     1     -22.945  37.554  16.483  1.00  0.00    -0.388 N 
ATOM     18  H1  UNL     1     -22.042  37.594  16.012  1.00  0.00     0.159 HD
BRANCH  17  19
HETATM   19  C17 UNL     1     -23.317  36.371  17.123  1.00  0.00     0.083 C 
BRANCH  19  20
HETATM   20  C18 UNL     1     -22.388  35.224  17.033  1.00  0.00     0.006 C 
HETATM   21  C19 UNL     1     -21.340  35.268  16.199  1.00  0.00     0.012 C 
ENDBRANCH  19  20
ENDBRANCH  17  19
ENDBRANCH  12  17
ENDBRANCH  11  12
ENDBRANCH   9  10
ENDBRANCH   7   8
ENDBRANCH   1   7
BRANCH   6  22
HETATM   22  O5  UNL     1     -24.019  42.196  23.187  1.00  0.00    -0.390 OA
ATOM     23  H5  UNL     1     -24.948  42.258  22.995  1.00  0.00     0.210 HD
ENDBRANCH   6  22
BRANCH   3  24
HETATM   24  C13 UNL     1     -20.007  43.487  22.397  1.00  0.00     0.198 C 
BRANCH  24  25
HETATM   25  O2  UNL     1     -19.112  42.914  23.329  1.00  0.00    -0.398 OA
ATOM     26  H2  UNL     1     -18.243  43.054  22.972  1.00  0.00     0.209 HD
ENDBRANCH  24  25
ENDBRANCH   3  24
BRANCH   5  27
HETATM   27  O4  UNL     1     -22.586  40.565  24.496  1.00  0.00    -0.390 OA
ATOM     28  H4  UNL     1     -23.488  40.840  24.609  1.00  0.00     0.210 HD
ENDBRANCH   5  27
BRANCH   4  29
HETATM   29  O3  UNL     1     -20.234  40.683  21.910  1.00  0.00    -0.390 OA
ATOM     30  H3  UNL     1     -19.585  40.105  22.294  1.00  0.00     0.210 HD
ENDBRANCH   4  29
TORSDOF 14
ENDMDL
MODEL 5
REMARK VINA RESULT: -6.570582126      2.051      3.260
REMARK  14 active torsions:
REMARK  status: ('A' for Active; 'I' for Inactive)
REMARK    1  A    between atoms: C2_2  and  C3_3 
REMARK    2  A    between atoms: C4_4  and  C5_5 
REMARK    3  A    between atoms: C5_5  and  C6_6 
REMARK    4  A    between atoms: C5_5  and  N1_26 
REMARK    5  A    between atoms: C7_7  and  C8_8 
REMARK    6  A    between atoms: C9_9  and  C10_10 
REMARK    7  A    between atoms: C10_10  and  C11_11 
REMARK    8  A    between atoms: C12_13  and  C13_14 
REMARK    9  A    between atoms: C13_14  and  O2_15 
REMARK   10  A    between atoms: C14_17  and  O3_18 
REMARK   11  A    between atoms: C15_20  and  O4_21 
REMARK   12  A    between atoms: C16_23  and  O5_24 
REMARK   13  A    between atoms: N1_26  and  C17_28 
REMARK   14  A    between atoms: C17_28  and  C18_29 
ROOT
HETATM    1  C11 UNL     1     -25.453  43.104  19.058  1.00  0.00     0.157 C 
HETATM    2  O1  UNL     1     -24.212  43.384  19.575  1.00  0.00    -0.373 OA
HETATM    3  C12 UNL     1     -24.213  43.980  20.807  1.00  0.00     0.176 C 
HETATM    4  C14 UNL     1     -25.508  43.866  21.573  1.00  0.00     0.180 C 
HETATM    5  C15 UNL     1     -26.659  44.416  20.768  1.00  0.00     0.180 C 
HETATM    6  C16 UNL     1     -26.332  44.310  19.277  1.00  0.00     0.178 C 
ENDROOT
BRANCH   1   7
HETATM    7  C10 UNL     1     -25.379  42.689  17.620  1.00  0.00     0.061 C 
BRANCH   7   8
HETATM    8  C9  UNL     1     -24.085  42.203  17.162  1.00  0.00    -0.024 C 
HETATM    9  C8  UNL     1     -23.703  40.977  17.217  1.00  0.00    -0.004 C 
BRANCH   9  10
HETATM   10  C7  UNL     1     -24.483  39.877  17.739  1.00  0.00    -0.002 C 
HETATM   11  C6  UNL     1     -24.476  38.688  17.191  1.00  0.00     0.002 C 
BRANCH  11  12
HETATM   12  C5  UNL     1     -23.649  38.429  15.993  1.00  0.00     0.127 C 
BRANCH  12  13
HETATM   13  C4  UNL     1     -22.853  37.203  16.251  1.00  0.00     0.002 C 
HETATM   14  C3  UNL     1     -23.333  36.225  16.995  1.00  0.00    -0.002 C 
BRANCH  14  15
HETATM   15  C2  UNL     1     -22.532  35.024  17.237  1.00  0.00    -0.010 C 
HETATM   16  C1  UNL     1     -21.512  34.719  16.469  1.00  0.00     0.011 C 
ENDBRANCH  14  15
ENDBRANCH  12  13
BRANCH  12  17
HETATM   17  N1  UNL     1     -24.384  38.309  14.800  1.00  0.00    -0.388 N 
ATOM     18  H1  UNL     1     -24.022  37.707  14.061  1.00  0.00     0.159 HD
BRANCH  17  19
HETATM   19  C17 UNL     1     -25.588  38.982  14.589  1.00  0.00     0.083 C 
BRANCH  19  20
HETATM   20  C18 UNL     1     -25.628  39.990  13.508  1.00  0.00     0.006 C 
HETATM   21  C19 UNL     1     -24.938  41.133  13.625  1.00  0.00     0.012 C 
ENDBRANCH  19  20
ENDBRANCH  17  19
ENDBRANCH  12  17
ENDBRANCH  11  12
ENDBRANCH   9  10
ENDBRANCH   7   8
ENDBRANCH   1   7
BRANCH   6  22
HETATM   22  O5  UNL     1     -25.635  45.446  18.870  1.00  0.00    -0.390 OA
ATOM     23  H5  UNL     1     -25.082  45.734  19.587  1.00  0.00     0.210 HD
ENDBRANCH   6  22
BRANCH   3  24
HETATM   24  C13 UNL     1     -23.053  43.490  21.681  1.00  0.00     0.198 C 
BRANCH  24  25
HETATM   25  O2  UNL     1     -22.740  42.195  21.213  1.00  0.00    -0.398 OA
ATOM     26  H2  UNL     1     -23.508  41.664  21.390  1.00  0.00     0.209 HD
ENDBRANCH  24  25
ENDBRANCH   3  24
BRANCH   5  27
HETATM   27  O4  UNL     1     -26.807  45.761  21.096  1.00  0.00    -0.390 OA
ATOM     28  H4  UNL     1     -27.485  46.126  20.539  1.00  0.00     0.210 HD
ENDBRANCH   5  27
BRANCH   4  29
HETATM   29  O3  UNL     1     -25.732  42.565  22.022  1.00  0.00    -0.390 OA
ATOM     30  H3  UNL     1     -24.920  42.088  22.146  1.00  0.00     0.210 HD
ENDBRANCH   4  29
TORSDOF 14
ENDMDL
