MODEL 1
REMARK VINA RESULT: -7.599868610      0.000      0.000
REMARK  13 active torsions:
REMARK  status: ('A' for Active; 'I' for Inactive)
REMARK    1  A    between atoms: N1_1  and  C1_4 
REMARK    2  A    between atoms: C2_7  and  N3_8 
REMARK    3  A    between atoms: N5_14  and  C4_16 
REMARK    4  A    between atoms: C6_19  and  O2_20 
REMARK    5  A    between atoms: C7_22  and  O3_23 
REMARK    6  A    between atoms: C8_25  and  N6_26 
REMARK    7  A    between atoms: C8_25  and  C18_42 
REMARK    8  A    between atoms: C9_28  and  C10_29 
REMARK    9  A    between atoms: C10_29  and  C11_30 
REMARK   10  A    between atoms: C11_30  and  N7_31 
REMARK   11  A    between atoms: N7_31  and  S1_33 
REMARK   12  A    between atoms: S1_33  and  C12_36 
REMARK   13  A    between atoms: N10_47  and  C19_48 
ROOT
HETATM    1  C4  UNL     1       7.996  -9.536   0.355  1.00  0.00     0.210 C 
HETATM    2  C5  UNL     1       8.562 -10.233   1.608  1.00  0.00     0.184 C 
HETATM    3  O1  UNL     1       9.683 -10.511   1.848  1.00  0.00    -0.293 OA
HETATM    4  C6  UNL     1       7.362 -10.483   2.462  1.00  0.00     0.221 C 
HETATM    5  C7  UNL     1       6.613  -9.155   2.329  1.00  0.00     0.192 C 
HETATM    6  C8  UNL     1       6.955  -8.613   0.921  1.00  0.00     0.148 C 
ENDROOT
BRANCH   6   7
HETATM    7  N6  UNL     1       5.889  -8.207   0.209  1.00  0.00    -0.382 N 
HETATM    8  C9  UNL     1       4.554  -8.289   0.075  1.00  0.00     0.058 C 
ATOM      9  H6  UNL     1       6.232  -7.587  -0.524  1.00  0.00     0.160 HD
BRANCH   8  10
HETATM   10  C10 UNL     1       3.736  -7.500   1.121  1.00  0.00     0.064 C 
BRANCH  10  11
HETATM   11  C11 UNL     1       2.819  -8.400   1.935  1.00  0.00     0.137 C 
BRANCH  11  12
HETATM   12  N7  UNL     1       1.582  -7.667   2.035  1.00  0.00    -0.315 N 
ATOM     13  H7  UNL     1       1.485  -6.913   2.715  1.00  0.00     0.172 HD
BRANCH  12  14
HETATM   14  S1  UNL     1       0.318  -8.061   1.034  1.00  0.00     0.258 S 
HETATM   15  O4  UNL     1       0.102  -9.592   1.141  1.00  0.00    -0.201 OA
HETATM   16  O5  UNL     1       0.740  -7.923  -0.451  1.00  0.00    -0.201 OA
BRANCH  14  17
HETATM   17  C12 UNL     1      -1.224  -7.288   1.184  1.00  0.00     0.079 A 
HETATM   18  C13 UNL     1      -1.460  -6.083   0.522  1.00  0.00     0.025 A 
HETATM   19  C14 UNL     1      -2.660  -5.439   0.554  1.00  0.00     0.002 A 
HETATM   20  C15 UNL     1      -3.728  -5.975   1.269  1.00  0.00     0.000 A 
HETATM   21  C16 UNL     1      -3.521  -7.171   1.940  1.00  0.00     0.002 A 
HETATM   22  C17 UNL     1      -2.278  -7.808   1.886  1.00  0.00     0.025 A 
ENDBRANCH  14  17
ENDBRANCH  12  14
ENDBRANCH  11  12
ENDBRANCH  10  11
ENDBRANCH   8  10
ENDBRANCH   6   7
BRANCH   6  23
HETATM   23  C18 UNL     1       7.752  -7.330   1.215  1.00  0.00     0.147 A 
HETATM   24  N8  UNL     1       7.348  -6.065   1.120  1.00  0.00    -0.270 N 
HETATM   25  N9  UNL     1       8.363  -5.266   1.498  1.00  0.00    -0.217 N 
ATOM     26  H8  UNL     1       6.425  -5.754   0.813  1.00  0.00     0.190 HD
HETATM   27  N10 UNL     1       9.383  -6.023   1.819  1.00  0.00    -0.115 N 
ATOM     28  H9  UNL     1       8.343  -4.246   1.529  1.00  0.00     0.210 HD
HETATM   29  N11 UNL     1       9.003  -7.275   1.646  1.00  0.00    -0.260 N 
ATOM     30  H11 UNL     1       9.591  -8.089   1.820  1.00  0.00     0.190 HD
BRANCH  27  31
HETATM   31  C19 UNL     1      10.717  -5.651   2.276  1.00  0.00     0.521 C 
HETATM   32  F1  UNL     1      11.447  -6.817   2.315  1.00  0.00    -0.148 F 
HETATM   33  F2  UNL     1      10.667  -5.133   3.525  1.00  0.00    -0.148 F 
HETATM   34  F3  UNL     1      11.267  -4.750   1.377  1.00  0.00    -0.148 F 
ENDBRANCH  27  31
ENDBRANCH   6  23
BRANCH   1  35
HETATM   35  N5  UNL     1       7.662 -10.525  -0.586  1.00  0.00    -0.210 N 
HETATM   36  C3  UNL     1       8.519 -11.164  -1.275  1.00  0.00     0.708 A 
HETATM   37  N4  UNL     1       9.849 -11.016  -1.250  1.00  0.00    -0.022 N 
HETATM   38  N12 UNL     1       8.106 -12.217  -2.066  1.00  0.00    -0.022 N 
HETATM   39  C2  UNL     1      10.714 -11.808  -1.921  1.00  0.00     0.705 A 
ATOM     40  H4  UNL     1      10.234 -10.258  -0.688  1.00  0.00     0.203 HD
HETATM   41  N2  UNL     1      10.269 -12.826  -2.677  1.00  0.00    -0.022 N 
HETATM   42  C1  UNL     1       8.950 -13.002  -2.726  1.00  0.00     0.705 A 
ATOM     43  H2  UNL     1      10.909 -13.433  -3.188  1.00  0.00     0.203 HD
ATOM     44  H12 UNL     1       7.106 -12.402  -2.147  1.00  0.00     0.203 HD
ATOM     45  H5  UNL     1       6.676 -10.742  -0.725  1.00  0.00     0.178 HD
BRANCH  39  46
HETATM   46  N3  UNL     1      12.002 -11.627  -1.886  1.00  0.00    -0.234 N 
ATOM     47  H32 UNL     1      12.431 -10.708  -1.998  1.00  0.00     0.174 HD
ATOM     48  H31 UNL     1      12.578 -12.458  -1.751  1.00  0.00     0.174 HD
ENDBRANCH  39  46
BRANCH  42  49
HETATM   49  N1  UNL     1       8.496 -14.004  -3.426  1.00  0.00    -0.234 N 
ATOM     50  H12 UNL     1       8.706 -14.067  -4.422  1.00  0.00     0.174 HD
ATOM     51  H11 UNL     1       7.913 -14.692  -2.949  1.00  0.00     0.174 HD
ENDBRANCH  42  49
ENDBRANCH   1  35
BRANCH   5  52
HETATM   52  O3  UNL     1       7.084  -8.370   3.368  1.00  0.00    -0.389 OA
ATOM     53  H3  UNL     1       7.042  -8.927   4.136  1.00  0.00     0.210 HD
ENDBRANCH   5  52
BRANCH   4  54
HETATM   54  O2  UNL     1       6.609 -11.571   2.039  1.00  0.00    -0.385 OA
ATOM     55  H2  UNL     1       6.847 -12.381   2.474  1.00  0.00     0.210 HD
ENDBRANCH   4  54
TORSDOF 13
ENDMDL
MODEL 2
REMARK VINA RESULT: -7.448243630      0.849      1.221
REMARK  13 active torsions:
REMARK  status: ('A' for Active; 'I' for Inactive)
REMARK    1  A    between atoms: N1_1  and  C1_4 
REMARK    2  A    between atoms: C2_7  and  N3_8 
REMARK    3  A    between atoms: N5_14  and  C4_16 
REMARK    4  A    between atoms: C6_19  and  O2_20 
REMARK    5  A    between atoms: C7_22  and  O3_23 
REMARK    6  A    between atoms: C8_25  and  N6_26 
REMARK    7  A    between atoms: C8_25  and  C18_42 
REMARK    8  A    between atoms: C9_28  and  C10_29 
REMARK    9  A    between atoms: C10_29  and  C11_30 
REMARK   10  A    between atoms: C11_30  and  N7_31 
REMARK   11  A    between atoms: N7_31  and  S1_33 
REMARK   12  A    between atoms: S1_33  and  C12_36 
REMARK   13  A    between atoms: N10_47  and  C19_48 
ROOT
HETATM    1  C4  UNL     1       7.668  -9.115   0.415  1.00  0.00     0.210 C 
HETATM    2  C5  UNL     1       7.981  -9.871   1.722  1.00  0.00     0.184 C 
HETATM    3  O1  UNL     1       9.029 -10.230   2.127  1.00  0.00    -0.293 OA
HETATM    4  C6  UNL     1       6.647 -10.052   2.369  1.00  0.00     0.221 C 
HETATM    5  C7  UNL     1       6.017  -8.674   2.158  1.00  0.00     0.192 C 
HETATM    6  C8  UNL     1       6.612  -8.133   0.837  1.00  0.00     0.148 C 
ENDROOT
BRANCH   6   7
HETATM    7  N6  UNL     1       5.702  -7.642  -0.022  1.00  0.00    -0.382 N 
HETATM    8  C9  UNL     1       4.894  -7.928  -1.059  1.00  0.00     0.058 C 
ATOM      9  H6  UNL     1       5.573  -6.656   0.202  1.00  0.00     0.160 HD
BRANCH   8  10
HETATM   10  C10 UNL     1       3.630  -8.740  -0.703  1.00  0.00     0.064 C 
BRANCH  10  11
HETATM   11  C11 UNL     1       2.835  -8.106   0.429  1.00  0.00     0.137 C 
BRANCH  11  12
HETATM   12  N7  UNL     1       1.457  -8.372   0.103  1.00  0.00    -0.315 N 
ATOM     13  H7  UNL     1       1.187  -8.579  -0.858  1.00  0.00     0.172 HD
BRANCH  12  14
HETATM   14  S1  UNL     1       0.313  -8.338   1.305  1.00  0.00     0.258 S 
HETATM   15  O4  UNL     1       1.034  -7.943   2.619  1.00  0.00    -0.201 OA
HETATM   16  O5  UNL     1      -0.157  -9.776   1.645  1.00  0.00    -0.201 OA
BRANCH  14  17
HETATM   17  C12 UNL     1      -1.115  -7.372   1.163  1.00  0.00     0.079 A 
HETATM   18  C13 UNL     1      -2.265  -7.728   1.869  1.00  0.00     0.025 A 
HETATM   19  C14 UNL     1      -3.411  -6.994   1.844  1.00  0.00     0.002 A 
HETATM   20  C15 UNL     1      -3.482  -5.824   1.091  1.00  0.00     0.000 A 
HETATM   21  C16 UNL     1      -2.356  -5.447   0.376  1.00  0.00     0.002 A 
HETATM   22  C17 UNL     1      -1.194  -6.222   0.424  1.00  0.00     0.025 A 
ENDBRANCH  14  17
ENDBRANCH  12  14
ENDBRANCH  11  12
ENDBRANCH  10  11
ENDBRANCH   8  10
ENDBRANCH   6   7
BRANCH   6  23
HETATM   23  C18 UNL     1       7.435  -6.913   1.287  1.00  0.00     0.147 A 
HETATM   24  N8  UNL     1       7.006  -5.685   1.572  1.00  0.00    -0.270 N 
HETATM   25  N9  UNL     1       8.064  -4.943   1.948  1.00  0.00    -0.217 N 
ATOM     26  H8  UNL     1       6.040  -5.362   1.515  1.00  0.00     0.190 HD
HETATM   27  N10 UNL     1       9.134  -5.698   1.895  1.00  0.00    -0.115 N 
ATOM     28  H9  UNL     1       8.038  -3.962   2.227  1.00  0.00     0.210 HD
HETATM   29  N11 UNL     1       8.743  -6.893   1.494  1.00  0.00    -0.260 N 
ATOM     30  H11 UNL     1       9.363  -7.691   1.361  1.00  0.00     0.190 HD
BRANCH  27  31
HETATM   31  C19 UNL     1      10.524  -5.370   2.188  1.00  0.00     0.521 C 
HETATM   32  F1  UNL     1      11.203  -6.568   2.206  1.00  0.00    -0.148 F 
HETATM   33  F2  UNL     1      10.633  -4.797   3.409  1.00  0.00    -0.148 F 
HETATM   34  F3  UNL     1      11.012  -4.537   1.194  1.00  0.00    -0.148 F 
ENDBRANCH  27  31
ENDBRANCH   6  23
BRANCH   1  35
HETATM   35  N5  UNL     1       7.424 -10.063  -0.594  1.00  0.00    -0.210 N 
HETATM   36  C3  UNL     1       8.339 -10.717  -1.186  1.00  0.00     0.708 A 
HETATM   37  N4  UNL     1       9.658 -10.627  -0.983  1.00  0.00    -0.022 N 
HETATM   38  N12 UNL     1       7.994 -11.730  -2.058  1.00  0.00    -0.022 N 
HETATM   39  C2  UNL     1      10.573 -11.435  -1.561  1.00  0.00     0.705 A 
ATOM     40  H4  UNL     1       9.995  -9.901  -0.350  1.00  0.00     0.203 HD
HETATM   41  N2  UNL     1      10.193 -12.412  -2.402  1.00  0.00    -0.022 N 
HETATM   42  C1  UNL     1       8.887 -12.531  -2.628  1.00  0.00     0.705 A 
ATOM     43  H2  UNL     1      10.872 -13.031  -2.845  1.00  0.00     0.203 HD
ATOM     44  H12 UNL     1       7.007 -11.870  -2.275  1.00  0.00     0.203 HD
ATOM     45  H5  UNL     1       6.456 -10.235  -0.867  1.00  0.00     0.178 HD
BRANCH  39  46
HETATM   46  N3  UNL     1      11.852 -11.309  -1.352  1.00  0.00    -0.234 N 
ATOM     47  H32 UNL     1      12.380 -10.491  -1.656  1.00  0.00     0.174 HD
ATOM     48  H31 UNL     1      12.316 -12.081  -0.873  1.00  0.00     0.174 HD
ENDBRANCH  39  46
BRANCH  42  49
HETATM   49  N1  UNL     1       8.491 -13.493  -3.414  1.00  0.00    -0.234 N 
ATOM     50  H12 UNL     1       8.740 -13.478  -4.403  1.00  0.00     0.174 HD
ATOM     51  H11 UNL     1       7.913 -14.230  -3.011  1.00  0.00     0.174 HD
ENDBRANCH  42  49
ENDBRANCH   1  35
BRANCH   5  52
HETATM   52  O3  UNL     1       6.368  -7.942   3.279  1.00  0.00    -0.389 OA
ATOM     53  H3  UNL     1       6.431  -7.043   2.978  1.00  0.00     0.210 HD
ENDBRANCH   5  52
BRANCH   4  54
HETATM   54  O2  UNL     1       5.901 -11.078   1.803  1.00  0.00    -0.385 OA
ATOM     55  H2  UNL     1       4.963 -10.942   1.875  1.00  0.00     0.210 HD
ENDBRANCH   4  54
TORSDOF 13
ENDMDL
MODEL 3
REMARK VINA RESULT: -7.259734697      1.103      1.419
REMARK  13 active torsions:
REMARK  status: ('A' for Active; 'I' for Inactive)
REMARK    1  A    between atoms: N1_1  and  C1_4 
REMARK    2  A    between atoms: C2_7  and  N3_8 
REMARK    3  A    between atoms: N5_14  and  C4_16 
REMARK    4  A    between atoms: C6_19  and  O2_20 
REMARK    5  A    between atoms: C7_22  and  O3_23 
REMARK    6  A    between atoms: C8_25  and  N6_26 
REMARK    7  A    between atoms: C8_25  and  C18_42 
REMARK    8  A    between atoms: C9_28  and  C10_29 
REMARK    9  A    between atoms: C10_29  and  C11_30 
REMARK   10  A    between atoms: C11_30  and  N7_31 
REMARK   11  A    between atoms: N7_31  and  S1_33 
REMARK   12  A    between atoms: S1_33  and  C12_36 
REMARK   13  A    between atoms: N10_47  and  C19_48 
ROOT
HETATM    1  C4  UNL     1       8.665  -9.373   0.641  1.00  0.00     0.210 C 
HETATM    2  C5  UNL     1       9.016 -10.244   1.863  1.00  0.00     0.184 C 
HETATM    3  O1  UNL     1      10.034 -10.788   2.106  1.00  0.00    -0.293 OA
HETATM    4  C6  UNL     1       7.766 -10.248   2.682  1.00  0.00     0.221 C 
HETATM    5  C7  UNL     1       7.352  -8.776   2.610  1.00  0.00     0.192 C 
HETATM    6  C8  UNL     1       7.851  -8.261   1.240  1.00  0.00     0.148 C 
ENDROOT
BRANCH   6   7
HETATM    7  N6  UNL     1       6.931  -7.582   0.533  1.00  0.00    -0.382 N 
HETATM    8  C9  UNL     1       5.624  -7.478   0.233  1.00  0.00     0.058 C 
ATOM      9  H6  UNL     1       7.421  -6.852   0.017  1.00  0.00     0.160 HD
BRANCH   8  10
HETATM   10  C10 UNL     1       4.741  -6.865   1.342  1.00  0.00     0.064 C 
BRANCH  10  11
HETATM   11  C11 UNL     1       3.865  -7.905   2.025  1.00  0.00     0.137 C 
BRANCH  11  12
HETATM   12  N7  UNL     1       2.541  -7.335   2.010  1.00  0.00    -0.315 N 
ATOM     13  H7  UNL     1       2.340  -6.488   2.541  1.00  0.00     0.172 HD
BRANCH  12  14
HETATM   14  S1  UNL     1       1.347  -8.070   1.122  1.00  0.00     0.258 S 
HETATM   15  O4  UNL     1       1.500  -9.600   1.317  1.00  0.00    -0.201 OA
HETATM   16  O5  UNL     1       1.639  -7.933  -0.395  1.00  0.00    -0.201 OA
BRANCH  14  17
HETATM   17  C12 UNL     1      -0.320  -7.662   1.343  1.00  0.00     0.079 A 
HETATM   18  C13 UNL     1      -0.857  -6.561   0.675  1.00  0.00     0.025 A 
HETATM   19  C14 UNL     1      -2.169  -6.204   0.762  1.00  0.00     0.002 A 
HETATM   20  C15 UNL     1      -3.050  -6.947   1.544  1.00  0.00     0.000 A 
HETATM   21  C16 UNL     1      -2.543  -8.046   2.222  1.00  0.00     0.002 A 
HETATM   22  C17 UNL     1      -1.193  -8.386   2.110  1.00  0.00     0.025 A 
ENDBRANCH  14  17
ENDBRANCH  12  14
ENDBRANCH  11  12
ENDBRANCH  10  11
ENDBRANCH   8  10
ENDBRANCH   6   7
BRANCH   6  23
HETATM   23  C18 UNL     1       8.916  -7.216   1.616  1.00  0.00     0.147 A 
HETATM   24  N8  UNL     1      10.157  -7.420   2.055  1.00  0.00    -0.270 N 
HETATM   25  N9  UNL     1      10.745  -6.223   2.235  1.00  0.00    -0.217 N 
ATOM     26  H8  UNL     1      10.588  -8.329   2.226  1.00  0.00     0.190 HD
HETATM   27  N10 UNL     1       9.882  -5.291   1.916  1.00  0.00    -0.115 N 
ATOM     28  H9  UNL     1      11.698  -6.068   2.564  1.00  0.00     0.210 HD
HETATM   29  N11 UNL     1       8.775  -5.902   1.540  1.00  0.00    -0.260 N 
ATOM     30  H11 UNL     1       7.926  -5.428   1.232  1.00  0.00     0.190 HD
BRANCH  27  31
HETATM   31  C19 UNL     1      10.020  -3.839   1.948  1.00  0.00     0.521 C 
HETATM   32  F1  UNL     1       9.828  -3.408   0.655  1.00  0.00    -0.148 F 
HETATM   33  F2  UNL     1      11.266  -3.486   2.338  1.00  0.00    -0.148 F 
HETATM   34  F3  UNL     1       9.057  -3.312   2.795  1.00  0.00    -0.148 F 
ENDBRANCH  27  31
ENDBRANCH   6  23
BRANCH   1  35
HETATM   35  N5  UNL     1       8.137 -10.209  -0.358  1.00  0.00    -0.210 N 
HETATM   36  C3  UNL     1       8.850 -10.915  -1.139  1.00  0.00     0.708 A 
HETATM   37  N4  UNL     1      10.186 -10.988  -1.170  1.00  0.00    -0.022 N 
HETATM   38  N12 UNL     1       8.239 -11.815  -1.989  1.00  0.00    -0.022 N 
HETATM   39  C2  UNL     1      10.882 -11.848  -1.946  1.00  0.00     0.705 A 
ATOM     40  H4  UNL     1      10.712 -10.354  -0.569  1.00  0.00     0.203 HD
HETATM   41  N2  UNL     1      10.246 -12.710  -2.757  1.00  0.00    -0.022 N 
HETATM   42  C1  UNL     1       8.916 -12.665  -2.752  1.00  0.00     0.705 A 
ATOM     43  H2  UNL     1      10.758 -13.366  -3.347  1.00  0.00     0.203 HD
ATOM     44  H12 UNL     1       7.220 -11.827  -2.034  1.00  0.00     0.203 HD
ATOM     45  H5  UNL     1       7.123 -10.251  -0.464  1.00  0.00     0.178 HD
BRANCH  39  46
HETATM   46  N3  UNL     1      12.183 -11.882  -1.962  1.00  0.00    -0.234 N 
ATOM     47  H32 UNL     1      12.742 -11.242  -2.527  1.00  0.00     0.174 HD
ATOM     48  H31 UNL     1      12.630 -12.594  -1.384  1.00  0.00     0.174 HD
ENDBRANCH  39  46
BRANCH  42  49
HETATM   49  N1  UNL     1       8.276 -13.516  -3.506  1.00  0.00    -0.234 N 
ATOM     50  H12 UNL     1       8.120 -13.306  -4.492  1.00  0.00     0.174 HD
ATOM     51  H11 UNL     1       7.925 -14.368  -3.070  1.00  0.00     0.174 HD
ENDBRANCH  42  49
ENDBRANCH   1  35
BRANCH   5  52
HETATM   52  O3  UNL     1       7.963  -8.176   3.698  1.00  0.00    -0.389 OA
ATOM     53  H3  UNL     1       7.250  -7.845   4.230  1.00  0.00     0.210 HD
ENDBRANCH   5  52
BRANCH   4  54
HETATM   54  O2  UNL     1       6.794 -11.107   2.188  1.00  0.00    -0.385 OA
ATOM     55  H2  UNL     1       6.390 -11.641   2.863  1.00  0.00     0.210 HD
ENDBRANCH   4  54
TORSDOF 13
ENDMDL
MODEL 4
REMARK VINA RESULT: -7.207341540      9.216     13.321
REMARK  13 active torsions:
REMARK  status: ('A' for Active; 'I' for Inactive)
REMARK    1  A    between atoms: N1_1  and  C1_4 
REMARK    2  A    between atoms: C2_7  and  N3_8 
REMARK    3  A    between atoms: N5_14  and  C4_16 
REMARK    4  A    between atoms: C6_19  and  O2_20 
REMARK    5  A    between atoms: C7_22  and  O3_23 
REMARK    6  A    between atoms: C8_25  and  N6_26 
REMARK    7  A    between atoms: C8_25  and  C18_42 
REMARK    8  A    between atoms: C9_28  and  C10_29 
REMARK    9  A    between atoms: C10_29  and  C11_30 
REMARK   10  A    between atoms: C11_30  and  N7_31 
REMARK   11  A    between atoms: N7_31  and  S1_33 
REMARK   12  A    between atoms: S1_33  and  C12_36 
REMARK   13  A    between atoms: N10_47  and  C19_48 
ROOT
HETATM    1  C4  UNL     1      -4.928  -7.998   2.817  1.00  0.00     0.210 C 
HETATM    2  C5  UNL     1      -5.342  -8.053   4.301  1.00  0.00     0.184 C 
HETATM    3  O1  UNL     1      -5.321  -7.185   5.100  1.00  0.00    -0.293 OA
HETATM    4  C6  UNL     1      -5.779  -9.467   4.507  1.00  0.00     0.221 C 
HETATM    5  C7  UNL     1      -6.608  -9.715   3.245  1.00  0.00     0.192 C 
HETATM    6  C8  UNL     1      -5.976  -8.835   2.141  1.00  0.00     0.148 C 
ENDROOT
BRANCH   6   7
HETATM    7  N6  UNL     1      -5.747  -9.477   0.983  1.00  0.00    -0.382 N 
HETATM    8  C9  UNL     1      -4.803  -9.943   0.145  1.00  0.00     0.058 C 
ATOM      9  H6  UNL     1      -6.654  -9.701   0.575  1.00  0.00     0.160 HD
BRANCH   8  10
HETATM   10  C10 UNL     1      -4.082 -11.225   0.613  1.00  0.00     0.064 C 
BRANCH  10  11
HETATM   11  C11 UNL     1      -2.573 -11.135   0.441  1.00  0.00     0.137 C 
BRANCH  11  12
HETATM   12  N7  UNL     1      -2.231 -12.263  -0.388  1.00  0.00    -0.315 N 
ATOM     13  H7  UNL     1      -2.910 -13.008  -0.548  1.00  0.00     0.172 HD
BRANCH  12  14
HETATM   14  S1  UNL     1      -0.725 -12.341  -1.080  1.00  0.00     0.258 S 
HETATM   15  O4  UNL     1       0.179 -13.169  -0.131  1.00  0.00    -0.201 OA
HETATM   16  O5  UNL     1      -0.029 -10.956  -1.020  1.00  0.00    -0.201 OA
BRANCH  14  17
HETATM   17  C12 UNL     1      -0.502 -12.935  -2.690  1.00  0.00     0.079 A 
HETATM   18  C13 UNL     1       0.741 -12.807  -3.309  1.00  0.00     0.025 A 
HETATM   19  C14 UNL     1       1.007 -13.291  -4.554  1.00  0.00     0.002 A 
HETATM   20  C15 UNL     1       0.017 -13.951  -5.279  1.00  0.00     0.000 A 
HETATM   21  C16 UNL     1      -1.230 -14.090  -4.690  1.00  0.00     0.002 A 
HETATM   22  C17 UNL     1      -1.470 -13.584  -3.409  1.00  0.00     0.025 A 
ENDBRANCH  14  17
ENDBRANCH  12  14
ENDBRANCH  11  12
ENDBRANCH  10  11
ENDBRANCH   8  10
ENDBRANCH   6   7
BRANCH   6  23
HETATM   23  C18 UNL     1      -7.081  -7.814   1.820  1.00  0.00     0.147 A 
HETATM   24  N8  UNL     1      -7.356  -6.669   2.442  1.00  0.00    -0.270 N 
HETATM   25  N9  UNL     1      -8.389  -6.081   1.811  1.00  0.00    -0.217 N 
ATOM     26  H8  UNL     1      -6.867  -6.300   3.258  1.00  0.00     0.190 HD
HETATM   27  N10 UNL     1      -8.752  -6.851   0.815  1.00  0.00    -0.115 N 
ATOM     28  H9  UNL     1      -8.817  -5.189   2.064  1.00  0.00     0.210 HD
HETATM   29  N11 UNL     1      -7.952  -7.900   0.826  1.00  0.00    -0.260 N 
ATOM     30  H11 UNL     1      -7.998  -8.671   0.162  1.00  0.00     0.190 HD
BRANCH  27  31
HETATM   31  C19 UNL     1      -9.822  -6.675  -0.161  1.00  0.00     0.521 C 
HETATM   32  F1  UNL     1     -11.000  -6.884   0.522  1.00  0.00    -0.148 F 
HETATM   33  F2  UNL     1      -9.727  -7.597  -1.146  1.00  0.00    -0.148 F 
HETATM   34  F3  UNL     1      -9.765  -5.385  -0.668  1.00  0.00    -0.148 F 
ENDBRANCH  27  31
ENDBRANCH   6  23
BRANCH   1  35
HETATM   35  N5  UNL     1      -3.563  -8.322   2.728  1.00  0.00    -0.210 N 
HETATM   36  C3  UNL     1      -2.741  -7.720   1.968  1.00  0.00     0.708 A 
HETATM   37  N4  UNL     1      -3.005  -6.712   1.129  1.00  0.00    -0.022 N 
HETATM   38  N12 UNL     1      -1.394  -8.012   2.057  1.00  0.00    -0.022 N 
HETATM   39  C2  UNL     1      -2.064  -6.036   0.434  1.00  0.00     0.705 A 
ATOM     40  H4  UNL     1      -3.978  -6.436   1.007  1.00  0.00     0.203 HD
HETATM   41  N2  UNL     1      -0.763  -6.351   0.554  1.00  0.00    -0.022 N 
HETATM   42  C1  UNL     1      -0.463  -7.350   1.380  1.00  0.00     0.705 A 
ATOM     43  H2  UNL     1      -0.041  -5.849   0.037  1.00  0.00     0.203 HD
ATOM     44  H12 UNL     1      -1.101  -8.771   2.672  1.00  0.00     0.203 HD
ATOM     45  H5  UNL     1      -3.212  -9.085   3.307  1.00  0.00     0.178 HD
BRANCH  39  46
HETATM   46  N3  UNL     1      -2.358  -5.069  -0.386  1.00  0.00    -0.234 N 
ATOM     47  H32 UNL     1      -2.516  -4.111  -0.071  1.00  0.00     0.174 HD
ATOM     48  H31 UNL     1      -2.436  -5.313  -1.373  1.00  0.00     0.174 HD
ENDBRANCH  39  46
BRANCH  42  49
HETATM   49  N1  UNL     1       0.796  -7.652   1.539  1.00  0.00    -0.234 N 
ATOM     50  H12 UNL     1       1.238  -7.527   2.449  1.00  0.00     0.174 HD
ATOM     51  H11 UNL     1       1.312  -7.985   0.724  1.00  0.00     0.174 HD
ENDBRANCH  42  49
ENDBRANCH   1  35
BRANCH   5  52
HETATM   52  O3  UNL     1      -7.901  -9.354   3.587  1.00  0.00    -0.389 OA
ATOM     53  H3  UNL     1      -8.437 -10.101   3.350  1.00  0.00     0.210 HD
ENDBRANCH   5  52
BRANCH   4  54
HETATM   54  O2  UNL     1      -4.717 -10.352   4.637  1.00  0.00    -0.385 OA
ATOM     55  H2  UNL     1      -4.980 -11.263   4.571  1.00  0.00     0.210 HD
ENDBRANCH   4  54
TORSDOF 13
ENDMDL
MODEL 5
REMARK VINA RESULT: -7.138887561      4.707      7.956
REMARK  13 active torsions:
REMARK  status: ('A' for Active; 'I' for Inactive)
REMARK    1  A    between atoms: N1_1  and  C1_4 
REMARK    2  A    between atoms: C2_7  and  N3_8 
REMARK    3  A    between atoms: N5_14  and  C4_16 
REMARK    4  A    between atoms: C6_19  and  O2_20 
REMARK    5  A    between atoms: C7_22  and  O3_23 
REMARK    6  A    between atoms: C8_25  and  N6_26 
REMARK    7  A    between atoms: C8_25  and  C18_42 
REMARK    8  A    between atoms: C9_28  and  C10_29 
REMARK    9  A    between atoms: C10_29  and  C11_30 
REMARK   10  A    between atoms: C11_30  and  N7_31 
REMARK   11  A    between atoms: N7_31  and  S1_33 
REMARK   12  A    between atoms: S1_33  and  C12_36 
REMARK   13  A    between atoms: N10_47  and  C19_48 
ROOT
HETATM    1  C4  UNL     1       7.391  -4.890   4.197  1.00  0.00     0.210 C 
HETATM    2  C5  UNL     1       6.773  -3.933   5.235  1.00  0.00     0.184 C 
HETATM    3  O1  UNL     1       6.422  -2.816   5.085  1.00  0.00    -0.293 OA
HETATM    4  C6  UNL     1       6.718  -4.741   6.491  1.00  0.00     0.221 C 
HETATM    5  C7  UNL     1       6.206  -6.084   5.965  1.00  0.00     0.192 C 
HETATM    6  C8  UNL     1       6.740  -6.205   4.519  1.00  0.00     0.148 C 
ENDROOT
BRANCH   6   7
HETATM    7  N6  UNL     1       7.323  -7.384   4.240  1.00  0.00    -0.382 N 
HETATM    8  C9  UNL     1       7.573  -8.294   3.281  1.00  0.00     0.058 C 
ATOM      9  H6  UNL     1       7.746  -7.726   5.102  1.00  0.00     0.160 HD
BRANCH   8  10
HETATM   10  C10 UNL     1       8.660  -7.894   2.260  1.00  0.00     0.064 C 
BRANCH  10  11
HETATM   11  C11 UNL     1       9.696  -8.989   2.060  1.00  0.00     0.137 C 
BRANCH  11  12
HETATM   12  N7  UNL     1       8.949 -10.113   1.556  1.00  0.00    -0.315 N 
ATOM     13  H7  UNL     1       8.644 -10.853   2.189  1.00  0.00     0.172 HD
BRANCH  12  14
HETATM   14  S1  UNL     1       8.587 -10.193  -0.062  1.00  0.00     0.258 S 
HETATM   15  O4  UNL     1       8.745 -11.672  -0.498  1.00  0.00    -0.201 OA
HETATM   16  O5  UNL     1       9.701  -9.516  -0.900  1.00  0.00    -0.201 OA
BRANCH  14  17
HETATM   17  C12 UNL     1       7.080  -9.608  -0.678  1.00  0.00     0.079 A 
HETATM   18  C13 UNL     1       6.006  -9.415   0.191  1.00  0.00     0.025 A 
HETATM   19  C14 UNL     1       4.804  -8.915  -0.210  1.00  0.00     0.002 A 
HETATM   20  C15 UNL     1       4.596  -8.566  -1.542  1.00  0.00     0.000 A 
HETATM   21  C16 UNL     1       5.645  -8.749  -2.429  1.00  0.00     0.002 A 
HETATM   22  C17 UNL     1       6.867  -9.264  -1.986  1.00  0.00     0.025 A 
ENDBRANCH  14  17
ENDBRANCH  12  14
ENDBRANCH  11  12
ENDBRANCH  10  11
ENDBRANCH   8  10
ENDBRANCH   6   7
BRANCH   6  23
HETATM   23  C18 UNL     1       5.463  -6.178   3.661  1.00  0.00     0.147 A 
HETATM   24  N8  UNL     1       5.015  -5.202   2.874  1.00  0.00    -0.270 N 
HETATM   25  N9  UNL     1       3.872  -5.616   2.294  1.00  0.00    -0.217 N 
ATOM     26  H8  UNL     1       5.461  -4.295   2.735  1.00  0.00     0.190 HD
HETATM   27  N10 UNL     1       3.614  -6.829   2.718  1.00  0.00    -0.115 N 
ATOM     28  H9  UNL     1       3.305  -5.078   1.638  1.00  0.00     0.210 HD
HETATM   29  N11 UNL     1       4.585  -7.163   3.546  1.00  0.00    -0.260 N 
ATOM     30  H11 UNL     1       4.651  -8.058   4.032  1.00  0.00     0.190 HD
BRANCH  27  31
HETATM   31  C19 UNL     1       2.495  -7.710   2.403  1.00  0.00     0.521 C 
HETATM   32  F1  UNL     1       1.539  -7.473   3.365  1.00  0.00    -0.148 F 
HETATM   33  F2  UNL     1       2.871  -9.007   2.482  1.00  0.00    -0.148 F 
HETATM   34  F3  UNL     1       2.016  -7.399   1.139  1.00  0.00    -0.148 F 
ENDBRANCH  27  31
ENDBRANCH   6  23
BRANCH   1  35
HETATM   35  N5  UNL     1       8.788  -4.737   4.233  1.00  0.00    -0.210 N 
HETATM   36  C3  UNL     1       9.492  -4.428   3.221  1.00  0.00     0.708 A 
HETATM   37  N4  UNL     1       9.062  -4.210   1.973  1.00  0.00    -0.022 N 
HETATM   38  N12 UNL     1      10.836  -4.157   3.385  1.00  0.00    -0.022 N 
HETATM   39  C2  UNL     1       9.847  -3.769   0.965  1.00  0.00     0.705 A 
ATOM     40  H4  UNL     1       8.079  -4.389   1.769  1.00  0.00     0.203 HD
HETATM   41  N2  UNL     1      11.150  -3.514   1.170  1.00  0.00    -0.022 N 
HETATM   42  C1  UNL     1      11.613  -3.720   2.401  1.00  0.00     0.705 A 
ATOM     43  H2  UNL     1      11.754  -3.179   0.420  1.00  0.00     0.203 HD
ATOM     44  H12 UNL     1      11.252  -4.299   4.306  1.00  0.00     0.203 HD
ATOM     45  H5  UNL     1       9.264  -4.883   5.124  1.00  0.00     0.178 HD
BRANCH  39  46
HETATM   46  N3  UNL     1       9.397  -3.582  -0.242  1.00  0.00    -0.234 N 
ATOM     47  H32 UNL     1      10.014  -3.479  -1.048  1.00  0.00     0.174 HD
ATOM     48  H31 UNL     1       8.384  -3.530  -0.351  1.00  0.00     0.174 HD
ENDBRANCH  39  46
BRANCH  42  49
HETATM   49  N1  UNL     1      12.867  -3.447   2.632  1.00  0.00    -0.234 N 
ATOM     50  H12 UNL     1      13.504  -4.188   2.924  1.00  0.00     0.174 HD
ATOM     51  H11 UNL     1      13.168  -2.477   2.536  1.00  0.00     0.174 HD
ENDBRANCH  42  49
ENDBRANCH   1  35
BRANCH   5  52
HETATM   52  O3  UNL     1       4.827  -6.004   6.055  1.00  0.00    -0.389 OA
ATOM     53  H3  UNL     1       4.554  -6.837   6.419  1.00  0.00     0.210 HD
ENDBRANCH   5  52
BRANCH   4  54
HETATM   54  O2  UNL     1       7.947  -4.844   7.128  1.00  0.00    -0.385 OA
ATOM     55  H2  UNL     1       8.140  -5.725   7.427  1.00  0.00     0.210 HD
ENDBRANCH   4  54
TORSDOF 13
ENDMDL
