MODEL 1
REMARK VINA RESULT: -6.589724775      0.000      0.000
REMARK  11 active torsions:
REMARK  status: ('A' for Active; 'I' for Inactive)
REMARK    1  A    between atoms: N1_1  and  C1_5 
REMARK    2  A    between atoms: C1_5  and  C2_6 
REMARK    3  A    between atoms: C5_11  and  N2_12 
REMARK    4  A    between atoms: C5_11  and  C11_26 
REMARK       I    between atoms: N2_12  and  C6_14 
REMARK    5  A    between atoms: C6_14  and  C7_16 
REMARK       I    between atoms: C11_26  and  N7_28 
REMARK    6  A    between atoms: N7_28  and  C12_30 
REMARK    7  A    between atoms: C12_30  and  C13_31 
REMARK       I    between atoms: C13_31  and  N8_33 
REMARK    8  A    between atoms: N8_33  and  N9_35 
REMARK    9  A    between atoms: N9_35  and  S1_37 
REMARK   10  A    between atoms: S1_37  and  C14_40 
REMARK   11  A    between atoms: C16_44  and  C17_45 
ROOT
HETATM    1  C2  UNL     1       9.363 -12.245   1.068  1.00  0.00     0.156 C 
HETATM    2  C3  UNL     1      10.580 -11.907   0.288  1.00  0.00     0.118 C 
HETATM    3  C4  UNL     1      10.120 -10.721  -0.558  1.00  0.00     0.304 C 
HETATM    4  F1  UNL     1       9.915 -11.251  -1.841  1.00  0.00    -0.200 F 
HETATM    5  F2  UNL     1      11.130  -9.787  -0.740  1.00  0.00    -0.200 F 
HETATM    6  C5  UNL     1       8.930 -10.262   0.104  1.00  0.00     0.287 C 
HETATM    7  O6  UNL     1       8.618 -11.085   1.198  1.00  0.00    -0.341 OA
ENDROOT
BRANCH   6   8
HETATM    8  N2  UNL     1       8.833  -8.917   0.660  1.00  0.00    -0.316 N 
HETATM    9  C6  UNL     1       9.530  -8.458   1.766  1.00  0.00     0.233 C 
HETATM   10  O1  UNL     1      10.314  -9.229   2.377  1.00  0.00    -0.273 OA
ATOM     11  H2  UNL     1       8.202  -8.263   0.197  1.00  0.00     0.166 HD
BRANCH   9  12
HETATM   12  C7  UNL     1       9.413  -7.090   2.302  1.00  0.00     0.160 C 
HETATM   13  C8  UNL     1      10.740  -6.531   2.702  1.00  0.00     0.144 C 
HETATM   14  N3  UNL     1      10.857  -5.133   2.559  1.00  0.00    -0.363 N 
HETATM   15  C9  UNL     1      10.086  -4.320   1.932  1.00  0.00     0.189 C 
ATOM     16  H3  UNL     1      11.664  -4.709   3.018  1.00  0.00     0.162 HD
HETATM   17  N4  UNL     1      10.281  -2.915   1.823  1.00  0.00    -0.064 NA
HETATM   18  N5  UNL     1       8.898  -4.920   1.421  1.00  0.00    -0.322 N 
HETATM   19  C10 UNL     1       8.590  -6.146   1.572  1.00  0.00     0.110 C 
ATOM     20  H5  UNL     1       8.253  -4.327   0.900  1.00  0.00     0.169 HD
HETATM   21  N6  UNL     1       7.308  -6.473   0.951  1.00  0.00    -0.086 NA
ENDBRANCH   9  12
ENDBRANCH   6   8
BRANCH   6  22
HETATM   22  C11 UNL     1       7.696 -10.381  -0.774  1.00  0.00     0.280 C 
HETATM   23  O2  UNL     1       7.254 -11.435  -1.242  1.00  0.00    -0.268 OA
HETATM   24  N7  UNL     1       7.006  -9.162  -1.050  1.00  0.00    -0.348 N 
ATOM     25  H7  UNL     1       7.392  -8.314  -0.633  1.00  0.00     0.163 HD
BRANCH  24  26
HETATM   26  C12 UNL     1       5.839  -9.006  -1.842  1.00  0.00     0.227 C 
BRANCH  26  27
HETATM   27  C13 UNL     1       4.581  -8.721  -1.132  1.00  0.00     0.254 C 
HETATM   28  O3  UNL     1       3.465  -8.990  -1.569  1.00  0.00    -0.270 OA
HETATM   29  N8  UNL     1       4.696  -8.088   0.136  1.00  0.00    -0.259 N 
ATOM     30  H8  UNL     1       5.611  -7.860   0.526  1.00  0.00     0.190 HD
BRANCH  29  31
HETATM   31  N9  UNL     1       3.533  -7.788   0.829  1.00  0.00    -0.219 N 
ATOM     32  H9  UNL     1       2.611  -7.694   0.403  1.00  0.00     0.200 HD
BRANCH  31  33
HETATM   33  S1  UNL     1       3.859  -7.594   2.508  1.00  0.00     0.293 S 
HETATM   34  O4  UNL     1       2.484  -7.557   3.181  1.00  0.00    -0.197 OA
HETATM   35  O5  UNL     1       4.628  -8.702   3.116  1.00  0.00    -0.197 OA
BRANCH  33  36
HETATM   36  C14 UNL     1       4.602  -6.064   2.897  1.00  0.00     0.167 A 
HETATM   37  C15 UNL     1       4.097  -4.823   2.536  1.00  0.00     0.133 A 
HETATM   38  N10 UNL     1       4.924  -3.900   3.005  1.00  0.00    -0.345 N 
HETATM   39  C16 UNL     1       5.950  -4.461   3.662  1.00  0.00     0.191 A 
ATOM     40  H10 UNL     1       4.797  -2.895   2.883  1.00  0.00     0.166 HD
HETATM   41  N11 UNL     1       5.739  -5.800   3.587  1.00  0.00    -0.327 N 
ATOM     42  H11 UNL     1       6.350  -6.509   3.992  1.00  0.00     0.168 HD
BRANCH  39  43
HETATM   43  C17 UNL     1       7.044  -3.710   4.311  1.00  0.00     0.449 C 
HETATM   44  F3  UNL     1       6.586  -3.113   5.454  1.00  0.00    -0.163 F 
HETATM   45  F4  UNL     1       7.486  -2.753   3.405  1.00  0.00    -0.163 F 
HETATM   46  F5  UNL     1       8.044  -4.612   4.615  1.00  0.00    -0.163 F 
ENDBRANCH  39  43
ENDBRANCH  33  36
ENDBRANCH  31  33
ENDBRANCH  29  31
ENDBRANCH  26  27
ENDBRANCH  24  26
ENDBRANCH   6  22
BRANCH   1  47
HETATM   47  C1  UNL     1       9.636 -12.701   2.499  1.00  0.00     0.261 C 
BRANCH  47  48
HETATM   48  N1  UNL     1      10.905 -12.161   2.948  1.00  0.00    -0.077 N 
ATOM     49  H13 UNL     1      11.113 -11.259   2.520  1.00  0.00     0.274 HD
ATOM     50  H12 UNL     1      10.871 -11.857   3.921  1.00  0.00     0.274 HD
ATOM     51  H11 UNL     1      11.645 -12.844   2.784  1.00  0.00     0.274 HD
ENDBRANCH  47  48
ENDBRANCH   1  47
TORSDOF 11
ENDMDL
MODEL 2
REMARK VINA RESULT: -6.413371515      3.690      4.244
REMARK  11 active torsions:
REMARK  status: ('A' for Active; 'I' for Inactive)
REMARK    1  A    between atoms: N1_1  and  C1_5 
REMARK    2  A    between atoms: C1_5  and  C2_6 
REMARK    3  A    between atoms: C5_11  and  N2_12 
REMARK    4  A    between atoms: C5_11  and  C11_26 
REMARK       I    between atoms: N2_12  and  C6_14 
REMARK    5  A    between atoms: C6_14  and  C7_16 
REMARK       I    between atoms: C11_26  and  N7_28 
REMARK    6  A    between atoms: N7_28  and  C12_30 
REMARK    7  A    between atoms: C12_30  and  C13_31 
REMARK       I    between atoms: C13_31  and  N8_33 
REMARK    8  A    between atoms: N8_33  and  N9_35 
REMARK    9  A    between atoms: N9_35  and  S1_37 
REMARK   10  A    between atoms: S1_37  and  C14_40 
REMARK   11  A    between atoms: C16_44  and  C17_45 
ROOT
HETATM    1  C2  UNL     1       9.332 -12.159   1.172  1.00  0.00     0.156 C 
HETATM    2  C3  UNL     1      10.494 -11.810   0.317  1.00  0.00     0.118 C 
HETATM    3  C4  UNL     1       9.961 -10.652  -0.523  1.00  0.00     0.304 C 
HETATM    4  F1  UNL     1       9.694 -11.211  -1.782  1.00  0.00    -0.200 F 
HETATM    5  F2  UNL     1      10.938  -9.700  -0.780  1.00  0.00    -0.200 F 
HETATM    6  C5  UNL     1       8.800 -10.205   0.199  1.00  0.00     0.287 C 
HETATM    7  O6  UNL     1       8.570 -11.013   1.323  1.00  0.00    -0.341 OA
ENDROOT
BRANCH   6   8
HETATM    8  N2  UNL     1       8.706  -8.852   0.734  1.00  0.00    -0.316 N 
HETATM    9  C6  UNL     1       9.494  -8.339   1.752  1.00  0.00     0.233 C 
HETATM   10  O1  UNL     1      10.369  -9.064   2.293  1.00  0.00    -0.273 OA
ATOM     11  H2  UNL     1       8.004  -8.234   0.326  1.00  0.00     0.166 HD
BRANCH   9  12
HETATM   12  C7  UNL     1       9.376  -6.964   2.270  1.00  0.00     0.160 C 
HETATM   13  C8  UNL     1      10.703  -6.279   2.344  1.00  0.00     0.144 C 
HETATM   14  N3  UNL     1      10.656  -4.883   2.146  1.00  0.00    -0.363 N 
HETATM   15  C9  UNL     1       9.693  -4.166   1.693  1.00  0.00     0.189 C 
ATOM     16  H3  UNL     1      11.503  -4.374   2.399  1.00  0.00     0.162 HD
HETATM   17  N4  UNL     1       9.728  -2.756   1.512  1.00  0.00    -0.064 NA
HETATM   18  N5  UNL     1       8.480  -4.884   1.481  1.00  0.00    -0.322 N 
HETATM   19  C10 UNL     1       8.327  -6.124   1.726  1.00  0.00     0.110 C 
ATOM     20  H5  UNL     1       7.682  -4.370   1.108  1.00  0.00     0.169 HD
HETATM   21  N6  UNL     1       6.973  -6.584   1.421  1.00  0.00    -0.086 NA
ENDBRANCH   9  12
ENDBRANCH   6   8
BRANCH   6  22
HETATM   22  C11 UNL     1       7.522 -10.367  -0.604  1.00  0.00     0.280 C 
HETATM   23  O2  UNL     1       7.135 -11.419  -1.124  1.00  0.00    -0.268 OA
HETATM   24  N7  UNL     1       6.715  -9.196  -0.739  1.00  0.00    -0.348 N 
ATOM     25  H7  UNL     1       7.059  -8.350  -0.284  1.00  0.00     0.163 HD
BRANCH  24  26
HETATM   26  C12 UNL     1       5.486  -9.085  -1.440  1.00  0.00     0.227 C 
BRANCH  26  27
HETATM   27  C13 UNL     1       4.437  -8.258  -0.822  1.00  0.00     0.254 C 
HETATM   28  O3  UNL     1       3.674  -7.528  -1.450  1.00  0.00    -0.270 OA
HETATM   29  N8  UNL     1       4.328  -8.322   0.595  1.00  0.00    -0.259 N 
ATOM     30  H8  UNL     1       4.945  -8.925   1.140  1.00  0.00     0.190 HD
BRANCH  29  31
HETATM   31  N9  UNL     1       3.363  -7.543   1.216  1.00  0.00    -0.219 N 
ATOM     32  H9  UNL     1       3.348  -6.524   1.211  1.00  0.00     0.200 HD
BRANCH  31  33
HETATM   33  S1  UNL     1       2.193  -8.535   1.996  1.00  0.00     0.293 S 
HETATM   34  O4  UNL     1       2.288  -9.893   1.296  1.00  0.00    -0.197 OA
HETATM   35  O5  UNL     1       2.437  -8.753   3.438  1.00  0.00    -0.197 OA
BRANCH  33  36
HETATM   36  C14 UNL     1       0.551  -8.001   1.739  1.00  0.00     0.167 A 
HETATM   37  C15 UNL     1      -0.575  -8.622   2.258  1.00  0.00     0.133 A 
HETATM   38  N10 UNL     1      -1.635  -7.936   1.855  1.00  0.00    -0.345 N 
HETATM   39  C16 UNL     1      -1.272  -6.888   1.099  1.00  0.00     0.191 A 
ATOM     40  H10 UNL     1      -2.599  -8.172   2.090  1.00  0.00     0.166 HD
HETATM   41  N11 UNL     1       0.083  -6.941   1.034  1.00  0.00    -0.327 N 
ATOM     42  H11 UNL     1       0.667  -6.277   0.527  1.00  0.00     0.168 HD
BRANCH  39  43
HETATM   43  C17 UNL     1      -2.212  -5.919   0.499  1.00  0.00     0.449 C 
HETATM   44  F3  UNL     1      -2.616  -6.361  -0.732  1.00  0.00    -0.163 F 
HETATM   45  F4  UNL     1      -1.542  -4.706   0.386  1.00  0.00    -0.163 F 
HETATM   46  F5  UNL     1      -3.297  -5.815   1.346  1.00  0.00    -0.163 F 
ENDBRANCH  39  43
ENDBRANCH  33  36
ENDBRANCH  31  33
ENDBRANCH  29  31
ENDBRANCH  26  27
ENDBRANCH  24  26
ENDBRANCH   6  22
BRANCH   1  47
HETATM   47  C1  UNL     1       9.697 -12.581   2.593  1.00  0.00     0.261 C 
BRANCH  47  48
HETATM   48  N1  UNL     1      10.844 -11.819   3.047  1.00  0.00    -0.077 N 
ATOM     49  H13 UNL     1      11.207 -11.200   2.322  1.00  0.00     0.274 HD
ATOM     50  H12 UNL     1      10.587 -11.109   3.732  1.00  0.00     0.274 HD
ATOM     51  H11 UNL     1      11.558 -12.455   3.402  1.00  0.00     0.274 HD
ENDBRANCH  47  48
ENDBRANCH   1  47
TORSDOF 11
ENDMDL
MODEL 3
REMARK VINA RESULT: -6.255245301      3.661      7.026
REMARK  11 active torsions:
REMARK  status: ('A' for Active; 'I' for Inactive)
REMARK    1  A    between atoms: N1_1  and  C1_5 
REMARK    2  A    between atoms: C1_5  and  C2_6 
REMARK    3  A    between atoms: C5_11  and  N2_12 
REMARK    4  A    between atoms: C5_11  and  C11_26 
REMARK       I    between atoms: N2_12  and  C6_14 
REMARK    5  A    between atoms: C6_14  and  C7_16 
REMARK       I    between atoms: C11_26  and  N7_28 
REMARK    6  A    between atoms: N7_28  and  C12_30 
REMARK    7  A    between atoms: C12_30  and  C13_31 
REMARK       I    between atoms: C13_31  and  N8_33 
REMARK    8  A    between atoms: N8_33  and  N9_35 
REMARK    9  A    between atoms: N9_35  and  S1_37 
REMARK   10  A    between atoms: S1_37  and  C14_40 
REMARK   11  A    between atoms: C16_44  and  C17_45 
ROOT
HETATM    1  C2  UNL     1      -1.244  -7.041   0.492  1.00  0.00     0.156 C 
HETATM    2  C3  UNL     1      -1.471  -7.702   1.801  1.00  0.00     0.118 C 
HETATM    3  C4  UNL     1      -0.140  -8.406   2.060  1.00  0.00     0.304 C 
HETATM    4  F1  UNL     1      -0.385  -9.757   1.773  1.00  0.00    -0.200 F 
HETATM    5  F2  UNL     1       0.198  -8.406   3.405  1.00  0.00    -0.200 F 
HETATM    6  C5  UNL     1       0.777  -7.754   1.165  1.00  0.00     0.287 C 
HETATM    7  O6  UNL     1       0.114  -6.798   0.379  1.00  0.00    -0.341 OA
ENDROOT
BRANCH   6   8
HETATM    8  N2  UNL     1       1.943  -7.030   1.658  1.00  0.00    -0.316 N 
HETATM    9  C6  UNL     1       3.045  -7.611   2.267  1.00  0.00     0.233 C 
HETATM   10  O1  UNL     1       3.083  -8.857   2.436  1.00  0.00    -0.273 OA
ATOM     11  H2  UNL     1       1.948  -6.016   1.546  1.00  0.00     0.166 HD
BRANCH   9  12
HETATM   12  C7  UNL     1       4.211  -6.851   2.752  1.00  0.00     0.160 C 
HETATM   13  C8  UNL     1       4.580  -5.739   1.824  1.00  0.00     0.144 C 
HETATM   14  N3  UNL     1       5.147  -4.611   2.454  1.00  0.00    -0.363 N 
HETATM   15  C9  UNL     1       5.177  -4.316   3.702  1.00  0.00     0.189 C 
ATOM     16  H3  UNL     1       5.594  -3.938   1.831  1.00  0.00     0.162 HD
HETATM   17  N4  UNL     1       5.761  -3.145   4.260  1.00  0.00    -0.064 NA
HETATM   18  N5  UNL     1       4.668  -5.338   4.556  1.00  0.00    -0.322 N 
HETATM   19  C10 UNL     1       4.232  -6.463   4.149  1.00  0.00     0.110 C 
ATOM     20  H5  UNL     1       4.653  -5.156   5.559  1.00  0.00     0.169 HD
HETATM   21  N6  UNL     1       3.786  -7.313   5.251  1.00  0.00    -0.086 NA
ENDBRANCH   9  12
ENDBRANCH   6   8
BRANCH   6  22
HETATM   22  C11 UNL     1       1.352  -8.706   0.131  1.00  0.00     0.280 C 
HETATM   23  O2  UNL     1       0.841  -9.775  -0.216  1.00  0.00    -0.268 OA
HETATM   24  N7  UNL     1       2.575  -8.297  -0.484  1.00  0.00    -0.348 N 
ATOM     25  H7  UNL     1       2.959  -7.400  -0.184  1.00  0.00     0.163 HD
BRANCH  24  26
HETATM   26  C12 UNL     1       3.311  -9.006  -1.468  1.00  0.00     0.227 C 
BRANCH  26  27
HETATM   27  C13 UNL     1       4.730  -8.646  -1.630  1.00  0.00     0.254 C 
HETATM   28  O3  UNL     1       5.324  -8.647  -2.705  1.00  0.00    -0.270 OA
HETATM   29  N8  UNL     1       5.434  -8.286  -0.448  1.00  0.00    -0.259 N 
ATOM     30  H8  UNL     1       4.963  -8.270   0.457  1.00  0.00     0.190 HD
BRANCH  29  31
HETATM   31  N9  UNL     1       6.776  -7.957  -0.557  1.00  0.00    -0.219 N 
ATOM     32  H9  UNL     1       7.213  -7.569  -1.393  1.00  0.00     0.200 HD
BRANCH  31  33
HETATM   33  S1  UNL     1       7.606  -8.296   0.913  1.00  0.00     0.293 S 
HETATM   34  O4  UNL     1       6.573  -8.989   1.805  1.00  0.00    -0.197 OA
HETATM   35  O5  UNL     1       8.762  -9.207   0.770  1.00  0.00    -0.197 OA
BRANCH  33  36
HETATM   36  C14 UNL     1       8.077  -6.861   1.787  1.00  0.00     0.167 A 
HETATM   37  C15 UNL     1       8.037  -6.724   3.167  1.00  0.00     0.133 A 
HETATM   38  N10 UNL     1       8.470  -5.507   3.464  1.00  0.00    -0.345 N 
HETATM   39  C16 UNL     1       8.798  -4.828   2.353  1.00  0.00     0.191 A 
ATOM     40  H10 UNL     1       8.542  -5.135   4.410  1.00  0.00     0.166 HD
HETATM   41  N11 UNL     1       8.550  -5.677   1.323  1.00  0.00    -0.327 N 
ATOM     42  H11 UNL     1       8.698  -5.456   0.339  1.00  0.00     0.168 HD
BRANCH  39  43
HETATM   43  C17 UNL     1       9.321  -3.446   2.337  1.00  0.00     0.449 C 
HETATM   44  F3  UNL     1       8.359  -2.578   2.778  1.00  0.00    -0.163 F 
HETATM   45  F4  UNL     1       9.678  -3.153   1.025  1.00  0.00    -0.163 F 
HETATM   46  F5  UNL     1      10.417  -3.407   3.175  1.00  0.00    -0.163 F 
ENDBRANCH  39  43
ENDBRANCH  33  36
ENDBRANCH  31  33
ENDBRANCH  29  31
ENDBRANCH  26  27
ENDBRANCH  24  26
ENDBRANCH   6  22
BRANCH   1  47
HETATM   47  C1  UNL     1      -1.903  -5.671   0.352  1.00  0.00     0.261 C 
BRANCH  47  48
HETATM   48  N1  UNL     1      -3.288  -5.752   0.774  1.00  0.00    -0.077 N 
ATOM     49  H13 UNL     1      -3.894  -6.116   0.038  1.00  0.00     0.274 HD
ATOM     50  H12 UNL     1      -3.438  -6.488   1.464  1.00  0.00     0.274 HD
ATOM     51  H11 UNL     1      -3.597  -4.840   1.110  1.00  0.00     0.274 HD
ENDBRANCH  47  48
ENDBRANCH   1  47
TORSDOF 11
ENDMDL
MODEL 4
REMARK VINA RESULT: -6.201247017      5.209      6.612
REMARK  11 active torsions:
REMARK  status: ('A' for Active; 'I' for Inactive)
REMARK    1  A    between atoms: N1_1  and  C1_5 
REMARK    2  A    between atoms: C1_5  and  C2_6 
REMARK    3  A    between atoms: C5_11  and  N2_12 
REMARK    4  A    between atoms: C5_11  and  C11_26 
REMARK       I    between atoms: N2_12  and  C6_14 
REMARK    5  A    between atoms: C6_14  and  C7_16 
REMARK       I    between atoms: C11_26  and  N7_28 
REMARK    6  A    between atoms: N7_28  and  C12_30 
REMARK    7  A    between atoms: C12_30  and  C13_31 
REMARK       I    between atoms: C13_31  and  N8_33 
REMARK    8  A    between atoms: N8_33  and  N9_35 
REMARK    9  A    between atoms: N9_35  and  S1_37 
REMARK   10  A    between atoms: S1_37  and  C14_40 
REMARK   11  A    between atoms: C16_44  and  C17_45 
ROOT
HETATM    1  C2  UNL     1       6.218  -9.451   0.511  1.00  0.00     0.156 C 
HETATM    2  C3  UNL     1       5.640  -8.371  -0.327  1.00  0.00     0.118 C 
HETATM    3  C4  UNL     1       5.090  -7.395   0.712  1.00  0.00     0.304 C 
HETATM    4  F1  UNL     1       3.703  -7.609   0.710  1.00  0.00    -0.200 F 
HETATM    5  F2  UNL     1       5.225  -6.074   0.309  1.00  0.00    -0.200 F 
HETATM    6  C5  UNL     1       5.758  -7.769   1.928  1.00  0.00     0.287 C 
HETATM    7  O6  UNL     1       6.582  -8.886   1.722  1.00  0.00    -0.341 OA
ENDROOT
BRANCH   6   8
HETATM    8  N2  UNL     1       6.627  -6.840   2.641  1.00  0.00    -0.316 N 
HETATM    9  C6  UNL     1       7.841  -6.362   2.172  1.00  0.00     0.233 C 
HETATM   10  O1  UNL     1       8.272  -6.738   1.051  1.00  0.00    -0.273 OA
ATOM     11  H2  UNL     1       6.318  -6.516   3.557  1.00  0.00     0.166 HD
BRANCH   9  12
HETATM   12  C7  UNL     1       8.697  -5.420   2.916  1.00  0.00     0.160 C 
HETATM   13  C8  UNL     1      10.092  -5.391   2.383  1.00  0.00     0.144 C 
HETATM   14  N3  UNL     1      10.744  -4.146   2.507  1.00  0.00    -0.363 N 
HETATM   15  C9  UNL     1      10.243  -3.000   2.794  1.00  0.00     0.189 C 
ATOM     16  H3  UNL     1      11.752  -4.159   2.348  1.00  0.00     0.162 HD
HETATM   17  N4  UNL     1      10.970  -1.782   2.889  1.00  0.00    -0.064 NA
HETATM   18  N5  UNL     1       8.862  -3.038   3.146  1.00  0.00    -0.322 N 
HETATM   19  C10 UNL     1       8.163  -4.102   3.198  1.00  0.00     0.110 C 
ATOM     20  H5  UNL     1       8.404  -2.155   3.371  1.00  0.00     0.169 HD
HETATM   21  N6  UNL     1       6.783  -3.835   3.599  1.00  0.00    -0.086 NA
ENDBRANCH   9  12
ENDBRANCH   6   8
BRANCH   6  22
HETATM   22  C11 UNL     1       4.791  -8.252   2.995  1.00  0.00     0.280 C 
HETATM   23  O2  UNL     1       4.594  -9.433   3.296  1.00  0.00    -0.268 OA
HETATM   24  N7  UNL     1       4.078  -7.234   3.699  1.00  0.00    -0.348 N 
ATOM     25  H7  UNL     1       4.279  -6.269   3.434  1.00  0.00     0.163 HD
BRANCH  24  26
HETATM   26  C12 UNL     1       3.121  -7.423   4.729  1.00  0.00     0.227 C 
BRANCH  26  27
HETATM   27  C13 UNL     1       1.788  -7.899   4.324  1.00  0.00     0.254 C 
HETATM   28  O3  UNL     1       0.806  -7.913   5.062  1.00  0.00    -0.270 OA
HETATM   29  N8  UNL     1       1.662  -8.376   2.990  1.00  0.00    -0.259 N 
ATOM     30  H8  UNL     1       2.460  -8.369   2.354  1.00  0.00     0.190 HD
BRANCH  29  31
HETATM   31  N9  UNL     1       0.426  -8.849   2.575  1.00  0.00    -0.219 N 
ATOM     32  H9  UNL     1      -0.092  -9.598   3.034  1.00  0.00     0.200 HD
BRANCH  31  33
HETATM   33  S1  UNL     1      -0.113  -7.999   1.180  1.00  0.00     0.293 S 
HETATM   34  O4  UNL     1       0.814  -6.787   1.065  1.00  0.00    -0.197 OA
HETATM   35  O5  UNL     1      -0.012  -8.764  -0.082  1.00  0.00    -0.197 OA
BRANCH  33  36
HETATM   36  C14 UNL     1      -1.718  -7.334   1.351  1.00  0.00     0.167 A 
HETATM   37  C15 UNL     1      -2.181  -6.201   0.698  1.00  0.00     0.133 A 
HETATM   38  N10 UNL     1      -3.437  -6.006   1.072  1.00  0.00    -0.345 N 
HETATM   39  C16 UNL     1      -3.835  -6.952   1.937  1.00  0.00     0.191 A 
ATOM     40  H10 UNL     1      -4.024  -5.239   0.745  1.00  0.00     0.166 HD
HETATM   41  N11 UNL     1      -2.762  -7.767   2.102  1.00  0.00    -0.327 N 
ATOM     42  H11 UNL     1      -2.743  -8.588   2.705  1.00  0.00     0.168 HD
BRANCH  39  43
HETATM   43  C17 UNL     1      -5.182  -7.027   2.539  1.00  0.00     0.449 C 
HETATM   44  F3  UNL     1      -5.848  -8.122   2.058  1.00  0.00    -0.163 F 
HETATM   45  F4  UNL     1      -5.855  -5.859   2.198  1.00  0.00    -0.163 F 
HETATM   46  F5  UNL     1      -5.020  -7.131   3.906  1.00  0.00    -0.163 F 
ENDBRANCH  39  43
ENDBRANCH  33  36
ENDBRANCH  31  33
ENDBRANCH  29  31
ENDBRANCH  26  27
ENDBRANCH  24  26
ENDBRANCH   6  22
BRANCH   1  47
HETATM   47  C1  UNL     1       7.503 -10.061  -0.043  1.00  0.00     0.261 C 
BRANCH  47  48
HETATM   48  N1  UNL     1       8.220  -9.066  -0.817  1.00  0.00    -0.077 N 
ATOM     49  H13 UNL     1       8.114  -9.210  -1.821  1.00  0.00     0.274 HD
ATOM     50  H12 UNL     1       7.787  -8.145  -0.755  1.00  0.00     0.274 HD
ATOM     51  H11 UNL     1       9.199  -9.051  -0.532  1.00  0.00     0.274 HD
ENDBRANCH  47  48
ENDBRANCH   1  47
TORSDOF 11
ENDMDL
MODEL 5
REMARK VINA RESULT: -6.047304772      4.641      7.701
REMARK  11 active torsions:
REMARK  status: ('A' for Active; 'I' for Inactive)
REMARK    1  A    between atoms: N1_1  and  C1_5 
REMARK    2  A    between atoms: C1_5  and  C2_6 
REMARK    3  A    between atoms: C5_11  and  N2_12 
REMARK    4  A    between atoms: C5_11  and  C11_26 
REMARK       I    between atoms: N2_12  and  C6_14 
REMARK    5  A    between atoms: C6_14  and  C7_16 
REMARK       I    between atoms: C11_26  and  N7_28 
REMARK    6  A    between atoms: N7_28  and  C12_30 
REMARK    7  A    between atoms: C12_30  and  C13_31 
REMARK       I    between atoms: C13_31  and  N8_33 
REMARK    8  A    between atoms: N8_33  and  N9_35 
REMARK    9  A    between atoms: N9_35  and  S1_37 
REMARK   10  A    between atoms: S1_37  and  C14_40 
REMARK   11  A    between atoms: C16_44  and  C17_45 
ROOT
HETATM    1  C2  UNL     1       2.345 -12.452   3.705  1.00  0.00     0.156 C 
HETATM    2  C3  UNL     1       2.122 -11.574   4.881  1.00  0.00     0.118 C 
HETATM    3  C4  UNL     1       2.461 -10.187   4.337  1.00  0.00     0.304 C 
HETATM    4  F1  UNL     1       3.734  -9.900   4.850  1.00  0.00    -0.200 F 
HETATM    5  F2  UNL     1       1.651  -9.201   4.880  1.00  0.00    -0.200 F 
HETATM    6  C5  UNL     1       2.407 -10.351   2.910  1.00  0.00     0.287 C 
HETATM    7  O6  UNL     1       2.136 -11.687   2.570  1.00  0.00    -0.341 OA
ENDROOT
BRANCH   6   8
HETATM    8  N2  UNL     1       1.465  -9.600   2.088  1.00  0.00    -0.316 N 
HETATM    9  C6  UNL     1       0.084  -9.679   2.182  1.00  0.00     0.233 C 
HETATM   10  O1  UNL     1      -0.444 -10.452   3.022  1.00  0.00    -0.273 OA
ATOM     11  H2  UNL     1       1.853  -8.967   1.389  1.00  0.00     0.166 HD
BRANCH   9  12
HETATM   12  C7  UNL     1      -0.843  -8.903   1.338  1.00  0.00     0.160 C 
HETATM   13  C8  UNL     1      -2.158  -8.680   2.011  1.00  0.00     0.144 C 
HETATM   14  N3  UNL     1      -2.799  -7.472   1.665  1.00  0.00    -0.363 N 
HETATM   15  C9  UNL     1      -2.319  -6.454   1.049  1.00  0.00     0.189 C 
ATOM     16  H3  UNL     1      -3.778  -7.399   1.942  1.00  0.00     0.162 HD
HETATM   17  N4  UNL     1      -3.031  -5.261   0.747  1.00  0.00    -0.064 NA
HETATM   18  N5  UNL     1      -0.996  -6.642   0.555  1.00  0.00    -0.322 N 
HETATM   19  C10 UNL     1      -0.328  -7.718   0.680  1.00  0.00     0.110 C 
ATOM     20  H5  UNL     1      -0.554  -5.861   0.068  1.00  0.00     0.169 HD
HETATM   21  N6  UNL     1       0.995  -7.622   0.064  1.00  0.00    -0.086 NA
ENDBRANCH   9  12
ENDBRANCH   6   8
BRANCH   6  22
HETATM   22  C11 UNL     1       3.749 -10.097   2.246  1.00  0.00     0.280 C 
HETATM   23  O2  UNL     1       4.697 -10.889   2.229  1.00  0.00    -0.268 OA
HETATM   24  N7  UNL     1       3.891  -8.839   1.585  1.00  0.00    -0.348 N 
ATOM     25  H7  UNL     1       3.082  -8.218   1.607  1.00  0.00     0.163 HD
BRANCH  24  26
HETATM   26  C12 UNL     1       5.039  -8.363   0.901  1.00  0.00     0.227 C 
BRANCH  26  27
HETATM   27  C13 UNL     1       5.376  -6.939   1.070  1.00  0.00     0.254 C 
HETATM   28  O3  UNL     1       6.352  -6.395   0.560  1.00  0.00    -0.270 OA
HETATM   29  N8  UNL     1       4.502  -6.172   1.888  1.00  0.00    -0.259 N 
ATOM     30  H8  UNL     1       3.680  -6.598   2.319  1.00  0.00     0.190 HD
BRANCH  29  31
HETATM   31  N9  UNL     1       4.795  -4.831   2.086  1.00  0.00    -0.219 N 
ATOM     32  H9  UNL     1       4.504  -4.076   1.466  1.00  0.00     0.200 HD
BRANCH  31  33
HETATM   33  S1  UNL     1       5.718  -4.617   3.523  1.00  0.00     0.293 S 
HETATM   34  O4  UNL     1       5.089  -3.411   4.227  1.00  0.00    -0.197 OA
HETATM   35  O5  UNL     1       5.669  -5.760   4.460  1.00  0.00    -0.197 OA
BRANCH  33  36
HETATM   36  C14 UNL     1       7.374  -4.159   3.220  1.00  0.00     0.167 A 
HETATM   37  C15 UNL     1       8.132  -3.336   4.040  1.00  0.00     0.133 A 
HETATM   38  N10 UNL     1       9.333  -3.218   3.492  1.00  0.00    -0.345 N 
HETATM   39  C16 UNL     1       9.414  -3.921   2.352  1.00  0.00     0.191 A 
ATOM     40  H10 UNL     1      10.094  -2.665   3.884  1.00  0.00     0.166 HD
HETATM   41  N11 UNL     1       8.195  -4.498   2.195  1.00  0.00    -0.327 N 
ATOM     42  H11 UNL     1       7.934  -5.102   1.416  1.00  0.00     0.168 HD
BRANCH  39  43
HETATM   43  C17 UNL     1      10.619  -4.006   1.501  1.00  0.00     0.449 C 
HETATM   44  F3  UNL     1      10.287  -3.757   0.196  1.00  0.00    -0.163 F 
HETATM   45  F4  UNL     1      11.133  -5.291   1.636  1.00  0.00    -0.163 F 
HETATM   46  F5  UNL     1      11.514  -3.058   1.953  1.00  0.00    -0.163 F 
ENDBRANCH  39  43
ENDBRANCH  33  36
ENDBRANCH  31  33
ENDBRANCH  29  31
ENDBRANCH  26  27
ENDBRANCH  24  26
ENDBRANCH   6  22
BRANCH   1  47
HETATM   47  C1  UNL     1       1.359 -13.612   3.586  1.00  0.00     0.261 C 
BRANCH  47  48
HETATM   48  N1  UNL     1       0.444 -13.362   2.489  1.00  0.00    -0.077 N 
ATOM     49  H13 UNL     1       0.528 -12.412   2.126  1.00  0.00     0.274 HD
ATOM     50  H12 UNL     1       0.710 -13.865   1.643  1.00  0.00     0.274 HD
ATOM     51  H11 UNL     1      -0.508 -13.578   2.782  1.00  0.00     0.274 HD
ENDBRANCH  47  48
ENDBRANCH   1  47
TORSDOF 11
ENDMDL
