MODEL 1
REMARK VINA RESULT: -6.836475801      0.000      0.000
REMARK  11 active torsions:
REMARK  status: ('A' for Active; 'I' for Inactive)
REMARK    1  A    between atoms: N1_1  and  C1_4 
REMARK    2  A    between atoms: C2_7  and  O1_8 
REMARK    3  A    between atoms: C3_10  and  C4_11 
REMARK    4  A    between atoms: C4_11  and  N3_12 
REMARK    5  A    between atoms: C4_11  and  C18_40 
REMARK       I    between atoms: N3_12  and  C5_14 
REMARK    6  A    between atoms: C5_14  and  C6_16 
REMARK    7  A    between atoms: C6_16  and  N4_17 
REMARK       I    between atoms: N4_17  and  C7_19 
REMARK    8  A    between atoms: C7_19  and  C8_21 
REMARK    9  A    between atoms: C8_21  and  N5_22 
REMARK       I    between atoms: C18_40  and  N9_42 
REMARK   10  A    between atoms: N9_42  and  O7_44 
REMARK   11  A    between atoms: O7_44  and  C19_45 
ROOT
HETATM    1  N3  UNL     1       9.268  -8.235   1.150  1.00  0.00    -0.342 N 
ATOM      2  H3  UNL     1       8.751  -7.600   0.542  1.00  0.00     0.163 HD
HETATM    3  C5  UNL     1       9.694  -9.501   0.680  1.00  0.00     0.236 C 
HETATM    4  O2  UNL     1      10.336 -10.299   1.447  1.00  0.00    -0.272 OA
ENDROOT
BRANCH   1   5
HETATM    5  C4  UNL     1       9.588  -7.859   2.533  1.00  0.00     0.222 C 
BRANCH   5   6
HETATM    6  C3  UNL     1      10.309  -6.599   2.601  1.00  0.00     0.093 A 
HETATM    7  C2  UNL     1       9.809  -5.456   2.033  1.00  0.00     0.169 A 
HETATM    8  N2  UNL     1      10.473  -4.266   2.108  1.00  0.00    -0.170 N 
HETATM    9  C1  UNL     1      11.664  -4.214   2.770  1.00  0.00     0.680 A 
ATOM     10  H2  UNL     1      10.084  -3.428   1.676  1.00  0.00     0.186 HD
HETATM   11  N10 UNL     1      12.161  -5.316   3.326  1.00  0.00    -0.156 N 
HETATM   12  C20 UNL     1      11.515  -6.521   3.262  1.00  0.00     0.272 A 
ATOM     13  H10 UNL     1      13.055  -5.261   3.815  1.00  0.00     0.187 HD
HETATM   14  O8  UNL     1      11.979  -7.568   3.785  1.00  0.00    -0.267 OA
BRANCH   7  15
HETATM   15  O1  UNL     1       8.594  -5.525   1.368  1.00  0.00    -0.345 OA
ATOM     16  H1  UNL     1       8.354  -6.320   0.906  1.00  0.00     0.219 HD
ENDBRANCH   7  15
BRANCH   9  17
HETATM   17  N1  UNL     1      12.237  -3.054   2.802  1.00  0.00    -0.234 N 
ATOM     18  H12 UNL     1      11.769  -2.173   2.593  1.00  0.00     0.174 HD
ATOM     19  H11 UNL     1      13.224  -3.055   3.061  1.00  0.00     0.174 HD
ENDBRANCH   9  17
ENDBRANCH   5   6
BRANCH   5  20
HETATM   20  C18 UNL     1       8.274  -7.779   3.294  1.00  0.00     0.269 C 
HETATM   21  O6  UNL     1       8.148  -6.907   4.174  1.00  0.00    -0.269 OA
HETATM   22  N9  UNL     1       7.207  -8.668   3.015  1.00  0.00    -0.224 N 
ATOM     23  H9  UNL     1       7.317  -9.388   2.300  1.00  0.00     0.198 HD
BRANCH  22  24
HETATM   24  O7  UNL     1       6.049  -8.563   3.690  1.00  0.00    -0.172 OA
BRANCH  24  25
HETATM   25  C19 UNL     1       5.215  -9.630   3.462  1.00  0.00     0.546 C 
HETATM   26  F2  UNL     1       3.970  -9.289   3.956  1.00  0.00    -0.143 F 
HETATM   27  F3  UNL     1       5.658 -10.720   4.209  1.00  0.00    -0.143 F 
HETATM   28  F4  UNL     1       5.087  -9.985   2.150  1.00  0.00    -0.143 F 
ENDBRANCH  24  25
ENDBRANCH  22  24
ENDBRANCH   5  20
ENDBRANCH   1   5
BRANCH   3  29
HETATM   29  C6  UNL     1       9.383  -9.886  -0.713  1.00  0.00     0.225 C 
BRANCH  29  30
HETATM   30  N4  UNL     1       8.219  -9.133  -1.194  1.00  0.00    -0.351 N 
HETATM   31  C7  UNL     1       6.907  -9.642  -1.013  1.00  0.00     0.236 C 
HETATM   32  O3  UNL     1       6.751 -10.730  -0.429  1.00  0.00    -0.272 OA
ATOM     33  H4  UNL     1       8.354  -8.236  -1.662  1.00  0.00     0.163 HD
BRANCH  31  34
HETATM   34  C8  UNL     1       5.748  -8.910  -1.500  1.00  0.00     0.238 C 
BRANCH  34  35
HETATM   35  N5  UNL     1       5.022  -8.158  -0.532  1.00  0.00    -0.269 N 
HETATM   36  C9  UNL     1       5.598  -7.260   0.257  1.00  0.00     0.281 C 
HETATM   37  O4  UNL     1       6.810  -7.100   0.084  1.00  0.00    -0.265 OA
HETATM   38  C10 UNL     1       5.047  -6.465   1.252  1.00  0.00     0.147 A 
HETATM   39  N6  UNL     1       5.678  -5.435   1.838  1.00  0.00    -0.345 N 
HETATM   40  C12 UNL     1       3.771  -6.567   1.825  1.00  0.00     0.146 A 
HETATM   41  C11 UNL     1       4.834  -4.890   2.759  1.00  0.00     0.182 A 
ATOM     42  H6  UNL     1       6.624  -5.115   1.630  1.00  0.00     0.167 HD
HETATM   43  N7  UNL     1       3.690  -5.573   2.748  1.00  0.00    -0.336 N 
ATOM     44  H7  UNL     1       2.882  -5.381   3.339  1.00  0.00     0.168 HD
HETATM   45  N8  UNL     1       2.798  -7.454   1.538  1.00  0.00    -0.298 N 
HETATM   46  C13 UNL     1       1.686  -7.603   2.299  1.00  0.00     0.141 A 
HETATM   47  C16 UNL     1       2.752  -8.304   0.499  1.00  0.00     0.112 A 
HETATM   48  C14 UNL     1       0.875  -8.580   1.751  1.00  0.00     0.134 A 
HETATM   49  F1  UNL     1      -0.321  -9.013   2.224  1.00  0.00    -0.205 F 
HETATM   50  C15 UNL     1       1.576  -9.002   0.618  1.00  0.00     0.079 A 
HETATM   51  C17 UNL     1       3.696  -8.465  -0.505  1.00  0.00     0.278 C 
HETATM   52  O5  UNL     1       3.226  -8.981  -1.549  1.00  0.00    -0.265 OA
ENDBRANCH  34  35
ENDBRANCH  31  34
ENDBRANCH  29  30
ENDBRANCH   3  29
TORSDOF 11
ENDMDL
MODEL 2
REMARK VINA RESULT: -6.510899262      1.681      1.931
REMARK  11 active torsions:
REMARK  status: ('A' for Active; 'I' for Inactive)
REMARK    1  A    between atoms: N1_1  and  C1_4 
REMARK    2  A    between atoms: C2_7  and  O1_8 
REMARK    3  A    between atoms: C3_10  and  C4_11 
REMARK    4  A    between atoms: C4_11  and  N3_12 
REMARK    5  A    between atoms: C4_11  and  C18_40 
REMARK       I    between atoms: N3_12  and  C5_14 
REMARK    6  A    between atoms: C5_14  and  C6_16 
REMARK    7  A    between atoms: C6_16  and  N4_17 
REMARK       I    between atoms: N4_17  and  C7_19 
REMARK    8  A    between atoms: C7_19  and  C8_21 
REMARK    9  A    between atoms: C8_21  and  N5_22 
REMARK       I    between atoms: C18_40  and  N9_42 
REMARK   10  A    between atoms: N9_42  and  O7_44 
REMARK   11  A    between atoms: O7_44  and  C19_45 
ROOT
HETATM    1  N3  UNL     1       9.245  -8.215   1.221  1.00  0.00    -0.342 N 
ATOM      2  H3  UNL     1       8.667  -7.606   0.641  1.00  0.00     0.163 HD
HETATM    3  C5  UNL     1       9.717  -9.454   0.723  1.00  0.00     0.236 C 
HETATM    4  O2  UNL     1      10.435 -10.219   1.455  1.00  0.00    -0.272 OA
ENDROOT
BRANCH   1   5
HETATM    5  C4  UNL     1       9.605  -7.829   2.591  1.00  0.00     0.222 C 
BRANCH   5   6
HETATM    6  C3  UNL     1      10.337  -6.574   2.627  1.00  0.00     0.093 A 
HETATM    7  C2  UNL     1       9.834  -5.434   2.057  1.00  0.00     0.169 A 
HETATM    8  N2  UNL     1      10.508  -4.249   2.103  1.00  0.00    -0.170 N 
HETATM    9  C1  UNL     1      11.715  -4.198   2.736  1.00  0.00     0.680 A 
ATOM     10  H2  UNL     1      10.116  -3.413   1.670  1.00  0.00     0.186 HD
HETATM   11  N10 UNL     1      12.216  -5.298   3.294  1.00  0.00    -0.156 N 
HETATM   12  C20 UNL     1      11.559  -6.498   3.260  1.00  0.00     0.272 A 
ATOM     13  H10 UNL     1      13.121  -5.244   3.762  1.00  0.00     0.187 HD
HETATM   14  O8  UNL     1      12.026  -7.543   3.784  1.00  0.00    -0.267 OA
BRANCH   7  15
HETATM   15  O1  UNL     1       8.603  -5.502   1.421  1.00  0.00    -0.345 OA
ATOM     16  H1  UNL     1       7.956  -6.132   1.712  1.00  0.00     0.219 HD
ENDBRANCH   7  15
BRANCH   9  17
HETATM   17  N1  UNL     1      12.297  -3.043   2.742  1.00  0.00    -0.234 N 
ATOM     18  H12 UNL     1      11.997  -2.248   3.306  1.00  0.00     0.174 HD
ATOM     19  H11 UNL     1      13.110  -2.954   2.132  1.00  0.00     0.174 HD
ENDBRANCH   9  17
ENDBRANCH   5   6
BRANCH   5  20
HETATM   20  C18 UNL     1       8.313  -7.732   3.387  1.00  0.00     0.269 C 
HETATM   21  O6  UNL     1       7.376  -8.499   3.095  1.00  0.00    -0.269 OA
HETATM   22  N9  UNL     1       8.167  -6.797   4.440  1.00  0.00    -0.224 N 
ATOM     23  H9  UNL     1       8.932  -6.163   4.669  1.00  0.00     0.198 HD
BRANCH  22  24
HETATM   24  O7  UNL     1       7.020  -6.745   5.140  1.00  0.00    -0.172 OA
BRANCH  24  25
HETATM   25  C19 UNL     1       6.910  -5.590   5.875  1.00  0.00     0.546 C 
HETATM   26  F2  UNL     1       5.566  -5.396   6.133  1.00  0.00    -0.143 F 
HETATM   27  F3  UNL     1       7.329  -4.514   5.095  1.00  0.00    -0.143 F 
HETATM   28  F4  UNL     1       7.589  -5.601   7.060  1.00  0.00    -0.143 F 
ENDBRANCH  24  25
ENDBRANCH  22  24
ENDBRANCH   5  20
ENDBRANCH   1   5
BRANCH   3  29
HETATM   29  C6  UNL     1       9.365  -9.848  -0.658  1.00  0.00     0.225 C 
BRANCH  29  30
HETATM   30  N4  UNL     1       8.202  -9.081  -1.118  1.00  0.00    -0.351 N 
HETATM   31  C7  UNL     1       6.891  -9.601  -0.966  1.00  0.00     0.236 C 
HETATM   32  O3  UNL     1       6.734 -10.710  -0.424  1.00  0.00    -0.272 OA
ATOM     33  H4  UNL     1       8.338  -8.167  -1.552  1.00  0.00     0.163 HD
BRANCH  31  34
HETATM   34  C8  UNL     1       5.733  -8.853  -1.433  1.00  0.00     0.238 C 
BRANCH  34  35
HETATM   35  N5  UNL     1       5.013  -8.119  -0.447  1.00  0.00    -0.269 N 
HETATM   36  C9  UNL     1       5.588  -7.211   0.331  1.00  0.00     0.281 C 
HETATM   37  O4  UNL     1       6.792  -7.025   0.131  1.00  0.00    -0.265 OA
HETATM   38  C10 UNL     1       5.044  -6.429   1.341  1.00  0.00     0.147 A 
HETATM   39  N6  UNL     1       5.665  -5.387   1.915  1.00  0.00    -0.345 N 
HETATM   40  C12 UNL     1       3.784  -6.559   1.942  1.00  0.00     0.146 A 
HETATM   41  C11 UNL     1       4.832  -4.862   2.856  1.00  0.00     0.182 A 
ATOM     42  H6  UNL     1       6.600  -5.047   1.686  1.00  0.00     0.167 HD
HETATM   43  N7  UNL     1       3.703  -5.569   2.869  1.00  0.00    -0.336 N 
ATOM     44  H7  UNL     1       2.904  -5.395   3.479  1.00  0.00     0.168 HD
HETATM   45  N8  UNL     1       2.823  -7.466   1.675  1.00  0.00    -0.298 N 
HETATM   46  C13 UNL     1       1.732  -7.640   2.460  1.00  0.00     0.141 A 
HETATM   47  C16 UNL     1       2.771  -8.315   0.635  1.00  0.00     0.112 A 
HETATM   48  C14 UNL     1       0.930  -8.632   1.929  1.00  0.00     0.134 A 
HETATM   49  F1  UNL     1      -0.246  -9.092   2.427  1.00  0.00    -0.205 F 
HETATM   50  C15 UNL     1       1.613  -9.038   0.779  1.00  0.00     0.079 A 
HETATM   51  C17 UNL     1       3.695  -8.454  -0.391  1.00  0.00     0.278 C 
HETATM   52  O5  UNL     1       3.212  -8.977  -1.425  1.00  0.00    -0.265 OA
ENDBRANCH  34  35
ENDBRANCH  31  34
ENDBRANCH  29  30
ENDBRANCH   3  29
TORSDOF 11
ENDMDL
MODEL 3
REMARK VINA RESULT: -6.417012599      3.472      8.642
REMARK  11 active torsions:
REMARK  status: ('A' for Active; 'I' for Inactive)
REMARK    1  A    between atoms: N1_1  and  C1_4 
REMARK    2  A    between atoms: C2_7  and  O1_8 
REMARK    3  A    between atoms: C3_10  and  C4_11 
REMARK    4  A    between atoms: C4_11  and  N3_12 
REMARK    5  A    between atoms: C4_11  and  C18_40 
REMARK       I    between atoms: N3_12  and  C5_14 
REMARK    6  A    between atoms: C5_14  and  C6_16 
REMARK    7  A    between atoms: C6_16  and  N4_17 
REMARK       I    between atoms: N4_17  and  C7_19 
REMARK    8  A    between atoms: C7_19  and  C8_21 
REMARK    9  A    between atoms: C8_21  and  N5_22 
REMARK       I    between atoms: C18_40  and  N9_42 
REMARK   10  A    between atoms: N9_42  and  O7_44 
REMARK   11  A    between atoms: O7_44  and  C19_45 
ROOT
HETATM    1  N3  UNL     1       2.359  -8.294   0.199  1.00  0.00    -0.342 N 
ATOM      2  H3  UNL     1       2.778  -7.704   0.919  1.00  0.00     0.163 HD
HETATM    3  C5  UNL     1       3.118  -8.721  -0.918  1.00  0.00     0.236 C 
HETATM    4  O2  UNL     1       2.588  -9.454  -1.823  1.00  0.00    -0.272 OA
ENDROOT
BRANCH   1   5
HETATM    5  C4  UNL     1       0.957  -8.718   0.296  1.00  0.00     0.222 C 
BRANCH   5   6
HETATM    6  C3  UNL     1       0.807  -9.917   1.105  1.00  0.00     0.093 A 
HETATM    7  C2  UNL     1       1.386 -10.024   2.342  1.00  0.00     0.169 A 
HETATM    8  N2  UNL     1       1.234 -11.139   3.113  1.00  0.00    -0.170 N 
HETATM    9  C1  UNL     1       0.482 -12.174   2.639  1.00  0.00     0.680 A 
ATOM     10  H2  UNL     1       1.676 -11.199   4.031  1.00  0.00     0.186 HD
HETATM   11  N10 UNL     1      -0.085 -12.083   1.439  1.00  0.00    -0.156 N 
HETATM   12  C20 UNL     1       0.054 -10.976   0.647  1.00  0.00     0.272 A 
ATOM     13  H10 UNL     1      -0.643 -12.867   1.098  1.00  0.00     0.187 HD
HETATM   14  O8  UNL     1      -0.480 -10.883  -0.489  1.00  0.00    -0.267 OA
BRANCH   7  15
HETATM   15  O1  UNL     1       2.143  -8.961   2.811  1.00  0.00    -0.345 OA
ATOM     16  H1  UNL     1       2.159  -8.144   2.327  1.00  0.00     0.219 HD
ENDBRANCH   7  15
BRANCH   9  17
HETATM   17  N1  UNL     1       0.381 -13.198   3.423  1.00  0.00    -0.234 N 
ATOM     18  H12 UNL     1       0.472 -13.160   4.438  1.00  0.00     0.174 HD
ATOM     19  H11 UNL     1       0.193 -14.090   2.964  1.00  0.00     0.174 HD
ENDBRANCH   9  17
ENDBRANCH   5   6
BRANCH   5  20
HETATM   20  C18 UNL     1       0.175  -7.557   0.889  1.00  0.00     0.269 C 
HETATM   21  O6  UNL     1       0.801  -6.546   1.262  1.00  0.00    -0.269 OA
HETATM   22  N9  UNL     1      -1.235  -7.608   1.015  1.00  0.00    -0.224 N 
ATOM     23  H9  UNL     1      -1.743  -8.441   0.719  1.00  0.00     0.198 HD
BRANCH  22  24
HETATM   24  O7  UNL     1      -1.904  -6.559   1.526  1.00  0.00    -0.172 OA
BRANCH  24  25
HETATM   25  C19 UNL     1      -2.468  -5.776   0.548  1.00  0.00     0.546 C 
HETATM   26  F2  UNL     1      -1.649  -4.675   0.383  1.00  0.00    -0.143 F 
HETATM   27  F3  UNL     1      -3.697  -5.298   1.002  1.00  0.00    -0.143 F 
HETATM   28  F4  UNL     1      -2.625  -6.394  -0.659  1.00  0.00    -0.143 F 
ENDBRANCH  24  25
ENDBRANCH  22  24
ENDBRANCH   5  20
ENDBRANCH   1   5
BRANCH   3  29
HETATM   29  C6  UNL     1       4.532  -8.305  -1.021  1.00  0.00     0.225 C 
BRANCH  29  30
HETATM   30  N4  UNL     1       5.136  -8.242   0.314  1.00  0.00    -0.351 N 
HETATM   31  C7  UNL     1       6.539  -8.086   0.464  1.00  0.00     0.236 C 
HETATM   32  O3  UNL     1       7.252  -7.989  -0.551  1.00  0.00    -0.272 OA
ATOM     33  H4  UNL     1       4.543  -8.311   1.142  1.00  0.00     0.163 HD
BRANCH  31  34
HETATM   34  C8  UNL     1       7.148  -8.037   1.784  1.00  0.00     0.238 C 
BRANCH  34  35
HETATM   35  N5  UNL     1       7.487  -6.744   2.277  1.00  0.00    -0.269 N 
HETATM   36  C9  UNL     1       6.580  -5.895   2.742  1.00  0.00     0.281 C 
HETATM   37  O4  UNL     1       5.415  -6.306   2.739  1.00  0.00    -0.265 OA
HETATM   38  C10 UNL     1       6.735  -4.607   3.237  1.00  0.00     0.147 A 
HETATM   39  N6  UNL     1       5.781  -3.920   3.883  1.00  0.00    -0.345 N 
HETATM   40  C12 UNL     1       7.876  -3.794   3.169  1.00  0.00     0.146 A 
HETATM   41  C11 UNL     1       6.290  -2.703   4.222  1.00  0.00     0.182 A 
ATOM     42  H6  UNL     1       4.837  -4.252   4.085  1.00  0.00     0.167 HD
HETATM   43  N7  UNL     1       7.548  -2.631   3.791  1.00  0.00    -0.336 N 
ATOM     44  H7  UNL     1       8.168  -1.830   3.908  1.00  0.00     0.168 HD
HETATM   45  N8  UNL     1       9.071  -4.079   2.614  1.00  0.00    -0.298 N 
HETATM   46  C13 UNL     1      10.033  -3.146   2.411  1.00  0.00     0.141 A 
HETATM   47  C16 UNL     1       9.505  -5.276   2.186  1.00  0.00     0.112 A 
HETATM   48  C14 UNL     1      11.140  -3.737   1.832  1.00  0.00     0.134 A 
HETATM   49  F1  UNL     1      12.302  -3.133   1.478  1.00  0.00    -0.205 F 
HETATM   50  C15 UNL     1      10.775  -5.081   1.704  1.00  0.00     0.079 A 
HETATM   51  C17 UNL     1       8.821  -6.483   2.213  1.00  0.00     0.278 C 
HETATM   52  O5  UNL     1       9.580  -7.483   2.171  1.00  0.00    -0.265 OA
ENDBRANCH  34  35
ENDBRANCH  31  34
ENDBRANCH  29  30
ENDBRANCH   3  29
TORSDOF 11
ENDMDL
MODEL 4
REMARK VINA RESULT: -6.394391103      3.538      8.876
REMARK  11 active torsions:
REMARK  status: ('A' for Active; 'I' for Inactive)
REMARK    1  A    between atoms: N1_1  and  C1_4 
REMARK    2  A    between atoms: C2_7  and  O1_8 
REMARK    3  A    between atoms: C3_10  and  C4_11 
REMARK    4  A    between atoms: C4_11  and  N3_12 
REMARK    5  A    between atoms: C4_11  and  C18_40 
REMARK       I    between atoms: N3_12  and  C5_14 
REMARK    6  A    between atoms: C5_14  and  C6_16 
REMARK    7  A    between atoms: C6_16  and  N4_17 
REMARK       I    between atoms: N4_17  and  C7_19 
REMARK    8  A    between atoms: C7_19  and  C8_21 
REMARK    9  A    between atoms: C8_21  and  N5_22 
REMARK       I    between atoms: C18_40  and  N9_42 
REMARK   10  A    between atoms: N9_42  and  O7_44 
REMARK   11  A    between atoms: O7_44  and  C19_45 
ROOT
HETATM    1  N3  UNL     1       1.495  -7.981   2.754  1.00  0.00    -0.342 N 
ATOM      2  H3  UNL     1       1.997  -7.222   2.293  1.00  0.00     0.163 HD
HETATM    3  C5  UNL     1       1.692  -8.248   4.131  1.00  0.00     0.236 C 
HETATM    4  O2  UNL     1       1.067  -9.206   4.703  1.00  0.00    -0.272 OA
ENDROOT
BRANCH   1   5
HETATM    5  C4  UNL     1       0.552  -8.822   2.006  1.00  0.00     0.222 C 
BRANCH   5   6
HETATM    6  C3  UNL     1      -0.759  -8.204   1.895  1.00  0.00     0.093 A 
HETATM    7  C2  UNL     1      -1.855  -8.734   2.523  1.00  0.00     0.169 A 
HETATM    8  N2  UNL     1      -3.085  -8.149   2.438  1.00  0.00    -0.170 N 
HETATM    9  C1  UNL     1      -3.224  -7.005   1.709  1.00  0.00     0.680 A 
ATOM     10  H2  UNL     1      -3.889  -8.561   2.912  1.00  0.00     0.186 HD
HETATM   11  N10 UNL     1      -2.167  -6.480   1.094  1.00  0.00    -0.156 N 
HETATM   12  C20 UNL     1      -0.925  -7.049   1.164  1.00  0.00     0.272 A 
ATOM     13  H10 UNL     1      -2.288  -5.624   0.551  1.00  0.00     0.187 HD
HETATM   14  O8  UNL     1       0.080  -6.559   0.584  1.00  0.00    -0.267 OA
BRANCH   7  15
HETATM   15  O1  UNL     1      -1.696  -9.895   3.264  1.00  0.00    -0.345 OA
ATOM     16  H1  UNL     1      -1.320  -9.851   4.135  1.00  0.00     0.219 HD
ENDBRANCH   7  15
BRANCH   9  17
HETATM   17  N1  UNL     1      -4.417  -6.505   1.672  1.00  0.00    -0.234 N 
ATOM     18  H12 UNL     1      -5.139  -6.682   2.370  1.00  0.00     0.174 HD
ATOM     19  H11 UNL     1      -4.616  -5.894   0.880  1.00  0.00     0.174 HD
ENDBRANCH   9  17
ENDBRANCH   5   6
BRANCH   5  20
HETATM   20  C18 UNL     1       1.159  -9.068   0.633  1.00  0.00     0.269 C 
HETATM   21  O6  UNL     1       0.522  -9.760  -0.184  1.00  0.00    -0.269 OA
HETATM   22  N9  UNL     1       2.417  -8.524   0.276  1.00  0.00    -0.224 N 
ATOM     23  H9  UNL     1       2.941  -7.967   0.951  1.00  0.00     0.198 HD
BRANCH  22  24
HETATM   24  O7  UNL     1       2.922  -8.741  -0.951  1.00  0.00    -0.172 OA
BRANCH  24  25
HETATM   25  C19 UNL     1       4.282  -8.559  -0.994  1.00  0.00     0.546 C 
HETATM   26  F2  UNL     1       4.835  -9.380  -0.029  1.00  0.00    -0.143 F 
HETATM   27  F3  UNL     1       4.578  -7.248  -0.623  1.00  0.00    -0.143 F 
HETATM   28  F4  UNL     1       4.859  -8.845  -2.199  1.00  0.00    -0.143 F 
ENDBRANCH  24  25
ENDBRANCH  22  24
ENDBRANCH   5  20
ENDBRANCH   1   5
BRANCH   3  29
HETATM   29  C6  UNL     1       2.633  -7.402   4.893  1.00  0.00     0.225 C 
BRANCH  29  30
HETATM   30  N4  UNL     1       3.216  -6.381   4.016  1.00  0.00    -0.351 N 
HETATM   31  C7  UNL     1       4.311  -6.697   3.171  1.00  0.00     0.236 C 
HETATM   32  O3  UNL     1       4.767  -7.855   3.171  1.00  0.00    -0.272 OA
ATOM     33  H4  UNL     1       2.830  -5.436   4.013  1.00  0.00     0.163 HD
BRANCH  31  34
HETATM   34  C8  UNL     1       4.904  -5.686   2.308  1.00  0.00     0.238 C 
BRANCH  34  35
HETATM   35  N5  UNL     1       6.191  -5.207   2.687  1.00  0.00    -0.269 N 
HETATM   36  C9  UNL     1       7.314  -5.674   2.157  1.00  0.00     0.281 C 
HETATM   37  O4  UNL     1       7.172  -6.544   1.292  1.00  0.00    -0.265 OA
HETATM   38  C10 UNL     1       8.634  -5.335   2.422  1.00  0.00     0.147 A 
HETATM   39  N6  UNL     1       9.681  -5.712   1.673  1.00  0.00    -0.345 N 
HETATM   40  C12 UNL     1       9.124  -4.557   3.482  1.00  0.00     0.146 A 
HETATM   41  C11 UNL     1      10.811  -5.194   2.232  1.00  0.00     0.182 A 
ATOM     42  H6  UNL     1       9.640  -6.287   0.831  1.00  0.00     0.167 HD
HETATM   43  N7  UNL     1      10.471  -4.501   3.318  1.00  0.00    -0.336 N 
ATOM     44  H7  UNL     1      11.120  -4.007   3.931  1.00  0.00     0.168 HD
HETATM   45  N8  UNL     1       8.427  -3.967   4.474  1.00  0.00    -0.298 N 
HETATM   46  C13 UNL     1       9.015  -3.421   5.566  1.00  0.00     0.141 A 
HETATM   47  C16 UNL     1       7.094  -3.816   4.554  1.00  0.00     0.112 A 
HETATM   48  C14 UNL     1       8.047  -2.891   6.399  1.00  0.00     0.134 A 
HETATM   49  F1  UNL     1       8.241  -2.263   7.586  1.00  0.00    -0.205 F 
HETATM   50  C15 UNL     1       6.847  -3.156   5.732  1.00  0.00     0.079 A 
HETATM   51  C17 UNL     1       6.138  -4.238   3.642  1.00  0.00     0.278 C 
HETATM   52  O5  UNL     1       5.055  -3.607   3.731  1.00  0.00    -0.265 OA
ENDBRANCH  34  35
ENDBRANCH  31  34
ENDBRANCH  29  30
ENDBRANCH   3  29
TORSDOF 11
ENDMDL
MODEL 5
REMARK VINA RESULT: -6.244784399      3.470      8.776
REMARK  11 active torsions:
REMARK  status: ('A' for Active; 'I' for Inactive)
REMARK    1  A    between atoms: N1_1  and  C1_4 
REMARK    2  A    between atoms: C2_7  and  O1_8 
REMARK    3  A    between atoms: C3_10  and  C4_11 
REMARK    4  A    between atoms: C4_11  and  N3_12 
REMARK    5  A    between atoms: C4_11  and  C18_40 
REMARK       I    between atoms: N3_12  and  C5_14 
REMARK    6  A    between atoms: C5_14  and  C6_16 
REMARK    7  A    between atoms: C6_16  and  N4_17 
REMARK       I    between atoms: N4_17  and  C7_19 
REMARK    8  A    between atoms: C7_19  and  C8_21 
REMARK    9  A    between atoms: C8_21  and  N5_22 
REMARK       I    between atoms: C18_40  and  N9_42 
REMARK   10  A    between atoms: N9_42  and  O7_44 
REMARK   11  A    between atoms: O7_44  and  C19_45 
ROOT
HETATM    1  N3  UNL     1       1.154  -8.389   3.326  1.00  0.00    -0.342 N 
ATOM      2  H3  UNL     1       1.967  -8.076   2.796  1.00  0.00     0.163 HD
HETATM    3  C5  UNL     1       1.100  -8.226   4.732  1.00  0.00     0.236 C 
HETATM    4  O2  UNL     1       0.083  -8.627   5.395  1.00  0.00    -0.272 OA
ENDROOT
BRANCH   1   5
HETATM    5  C4  UNL     1       0.012  -9.018   2.651  1.00  0.00     0.222 C 
BRANCH   5   6
HETATM    6  C3  UNL     1      -0.816  -8.043   1.961  1.00  0.00     0.093 A 
HETATM    7  C2  UNL     1      -0.294  -7.198   1.017  1.00  0.00     0.169 A 
HETATM    8  N2  UNL     1      -1.070  -6.293   0.354  1.00  0.00    -0.170 N 
HETATM    9  C1  UNL     1      -2.402  -6.231   0.637  1.00  0.00     0.680 A 
ATOM     10  H2  UNL     1      -0.660  -5.672  -0.344  1.00  0.00     0.186 HD
HETATM   11  N10 UNL     1      -2.923  -7.045   1.552  1.00  0.00    -0.156 N 
HETATM   12  C20 UNL     1      -2.165  -7.960   2.231  1.00  0.00     0.272 A 
ATOM     13  H10 UNL     1      -3.921  -6.985   1.754  1.00  0.00     0.187 HD
HETATM   14  O8  UNL     1      -2.649  -8.733   3.098  1.00  0.00    -0.267 OA
BRANCH   7  15
HETATM   15  O1  UNL     1       1.062  -7.278   0.738  1.00  0.00    -0.345 OA
ATOM     16  H1  UNL     1       1.695  -7.177   1.439  1.00  0.00     0.219 HD
ENDBRANCH   7  15
BRANCH   9  17
HETATM   17  N1  UNL     1      -3.077  -5.351  -0.030  1.00  0.00    -0.234 N 
ATOM     18  H12 UNL     1      -4.031  -5.486  -0.363  1.00  0.00     0.174 HD
ATOM     19  H11 UNL     1      -2.594  -4.471  -0.216  1.00  0.00     0.174 HD
ENDBRANCH   9  17
ENDBRANCH   5   6
BRANCH   5  20
HETATM   20  C18 UNL     1       0.574 -10.044   1.679  1.00  0.00     0.269 C 
HETATM   21  O6  UNL     1       1.800 -10.048   1.460  1.00  0.00    -0.269 OA
HETATM   22  N9  UNL     1      -0.268 -10.983   1.034  1.00  0.00    -0.224 N 
ATOM     23  H9  UNL     1      -1.273 -10.970   1.208  1.00  0.00     0.198 HD
BRANCH  22  24
HETATM   24  O7  UNL     1       0.257 -11.892   0.194  1.00  0.00    -0.172 OA
BRANCH  24  25
HETATM   25  C19 UNL     1      -0.585 -12.182  -0.851  1.00  0.00     0.546 C 
HETATM   26  F2  UNL     1      -0.631 -13.560  -0.970  1.00  0.00    -0.143 F 
HETATM   27  F3  UNL     1      -0.028 -11.696  -2.033  1.00  0.00    -0.143 F 
HETATM   28  F4  UNL     1      -1.859 -11.711  -0.707  1.00  0.00    -0.143 F 
ENDBRANCH  24  25
ENDBRANCH  22  24
ENDBRANCH   5  20
ENDBRANCH   1   5
BRANCH   3  29
HETATM   29  C6  UNL     1       2.242  -7.587   5.420  1.00  0.00     0.225 C 
BRANCH  29  30
HETATM   30  N4  UNL     1       3.048  -6.828   4.457  1.00  0.00    -0.351 N 
HETATM   31  C7  UNL     1       4.464  -6.911   4.480  1.00  0.00     0.236 C 
HETATM   32  O3  UNL     1       5.018  -7.646   5.317  1.00  0.00    -0.272 OA
ATOM     33  H4  UNL     1       2.586  -6.235   3.767  1.00  0.00     0.163 HD
BRANCH  31  34
HETATM   34  C8  UNL     1       5.272  -6.149   3.538  1.00  0.00     0.238 C 
BRANCH  34  35
HETATM   35  N5  UNL     1       5.633  -6.815   2.332  1.00  0.00    -0.269 N 
HETATM   36  C9  UNL     1       4.737  -7.211   1.437  1.00  0.00     0.281 C 
HETATM   37  O4  UNL     1       3.562  -6.947   1.707  1.00  0.00    -0.265 OA
HETATM   38  C10 UNL     1       4.915  -7.880   0.233  1.00  0.00     0.147 A 
HETATM   39  N6  UNL     1       3.961  -8.038  -0.697  1.00  0.00    -0.345 N 
HETATM   40  C12 UNL     1       6.081  -8.500  -0.240  1.00  0.00     0.146 A 
HETATM   41  C11 UNL     1       4.495  -8.737  -1.738  1.00  0.00     0.182 A 
ATOM     42  H6  UNL     1       3.002  -7.694  -0.637  1.00  0.00     0.167 HD
HETATM   43  N7  UNL     1       5.768  -9.013  -1.458  1.00  0.00    -0.336 N 
ATOM     44  H7  UNL     1       6.408  -9.528  -2.064  1.00  0.00     0.168 HD
HETATM   45  N8  UNL     1       7.283  -8.584   0.364  1.00  0.00    -0.298 N 
HETATM   46  C13 UNL     1       8.278  -9.390  -0.081  1.00  0.00     0.141 A 
HETATM   47  C16 UNL     1       7.695  -7.916   1.454  1.00  0.00     0.112 A 
HETATM   48  C14 UNL     1       9.385  -9.256   0.736  1.00  0.00     0.134 A 
HETATM   49  F1  UNL     1      10.575  -9.897   0.617  1.00  0.00    -0.205 F 
HETATM   50  C15 UNL     1       8.985  -8.320   1.695  1.00  0.00     0.079 A 
HETATM   51  C17 UNL     1       6.976  -7.000   2.208  1.00  0.00     0.278 C 
HETATM   52  O5  UNL     1       7.705  -6.225   2.875  1.00  0.00    -0.265 OA
ENDBRANCH  34  35
ENDBRANCH  31  34
ENDBRANCH  29  30
ENDBRANCH   3  29
TORSDOF 11
ENDMDL
