MODEL 1
REMARK VINA RESULT: -6.849533907      0.000      0.000
REMARK  18 active torsions:
REMARK  status: ('A' for Active; 'I' for Inactive)
REMARK    1  A    between atoms: C3_4  and  C4_5 
REMARK    2  A    between atoms: C4_5  and  O2_14 
REMARK    3  A    between atoms: N2_6  and  N3_8 
REMARK    4  A    between atoms: N3_8  and  N4_9 
REMARK    5  A    between atoms: N3_8  and  O1_12 
REMARK    6  A    between atoms: O2_14  and  C5_15 
REMARK    7  A    between atoms: C6_16  and  N5_17 
REMARK    8  A    between atoms: N5_17  and  C7_19 
REMARK    9  A    between atoms: C8_26  and  N10_27 
REMARK   10  A    between atoms: C10_32  and  N11_33 
REMARK   11  A    between atoms: N11_33  and  C11_36 
REMARK   12  A    between atoms: C11_36  and  C12_37 
REMARK   13  A    between atoms: C13_40  and  O5_41 
REMARK   14  A    between atoms: C13_40  and  C14_43 
REMARK   15  A    between atoms: C14_43  and  O7_45 
REMARK   16  A    between atoms: O7_45  and  C15_46 
REMARK   17  A    between atoms: C15_46  and  C16_47 
REMARK   18  A    between atoms: C18_54  and  N13_55 
ROOT
HETATM    1  C5  UNL     1       2.206  -8.979   0.974  1.00  0.00     0.202 C 
HETATM    2  C6  UNL     1       2.484  -9.066   2.431  1.00  0.00     0.163 C 
HETATM    3  C8  UNL     1       1.584  -8.191   3.286  1.00  0.00     0.211 C 
HETATM    4  C9  UNL     1       0.110  -8.410   2.933  1.00  0.00     0.071 C 
HETATM    5  C10 UNL     1      -0.050  -8.041   1.498  1.00  0.00     0.235 C 
HETATM    6  C13 UNL     1       0.772  -8.918   0.570  1.00  0.00     0.202 C 
ENDROOT
BRANCH   1   7
HETATM    7  O2  UNL     1       2.856  -7.840   0.441  1.00  0.00    -0.323 OA
BRANCH   7   8
HETATM    8  C4  UNL     1       4.221  -7.888   0.014  1.00  0.00     0.174 C 
HETATM    9  N2  UNL     1       4.414  -8.665  -0.921  1.00  0.00    -0.237 N 
ATOM     10  H2  UNL     1       3.553  -9.128  -1.210  1.00  0.00     0.193 HD
BRANCH   8  11
HETATM   11  C3  UNL     1       5.102  -7.021   0.755  1.00  0.00     0.048 A 
HETATM   12  C2  UNL     1       4.668  -6.271   1.816  1.00  0.00     0.125 A 
HETATM   13  N1  UNL     1       5.547  -5.465   2.492  1.00  0.00    -0.197 N 
HETATM   14  C1  UNL     1       5.043  -4.690   3.609  1.00  0.00     0.174 C 
HETATM   15  C18 UNL     1       6.842  -5.373   2.155  1.00  0.00     0.677 A 
HETATM   16  N12 UNL     1       7.298  -6.094   1.122  1.00  0.00    -0.201 N 
HETATM   17  C17 UNL     1       6.453  -6.891   0.445  1.00  0.00     0.123 A 
ATOM     18  H12 UNL     1       8.280  -6.038   0.852  1.00  0.00     0.183 HD
BRANCH  15  19
HETATM   19  N13 UNL     1       7.612  -4.586   2.846  1.00  0.00    -0.234 N 
ATOM     20 2H13 UNL     1       7.571  -3.571   2.760  1.00  0.00     0.174 HD
ATOM     21 1H13 UNL     1       8.280  -5.001   3.495  1.00  0.00     0.174 HD
ENDBRANCH  15  19
ENDBRANCH   8  11
BRANCH   9  22
HETATM   22  N3  UNL     1       5.450  -9.058  -1.651  1.00  0.00    -0.100 N 
BRANCH  22  23
HETATM   23  N4  UNL     1       6.418  -9.800  -1.223  1.00  0.00    -0.303 N 
ATOM     24  H42 UNL     1       7.271  -9.272  -1.035  1.00  0.00     0.181 HD
ATOM     25  H41 UNL     1       6.367 -10.810  -1.092  1.00  0.00     0.181 HD
ENDBRANCH  22  23
BRANCH  22  26
HETATM   26  O1  UNL     1       5.582  -8.712  -2.999  1.00  0.00    -0.254 OA
ATOM     27  H1  UNL     1       6.429  -8.650  -3.424  1.00  0.00     0.248 HD
ENDBRANCH  22  26
ENDBRANCH   9  22
ENDBRANCH   7   8
ENDBRANCH   1   7
BRANCH   2  28
HETATM   28  N5  UNL     1       2.478 -10.439   2.910  1.00  0.00    -0.215 N 
ATOM     29  H5  UNL     1       1.591 -10.838   3.215  1.00  0.00     0.178 HD
BRANCH  28  30
HETATM   30  C7  UNL     1       3.530 -11.176   2.971  1.00  0.00     0.704 A 
HETATM   31  N6  UNL     1       4.798 -10.829   2.691  1.00  0.00    -0.117 N 
HETATM   32  N7  UNL     1       5.560 -11.892   2.887  1.00  0.00     0.006 NA
ATOM     33  H6  UNL     1       5.116  -9.910   2.383  1.00  0.00     0.202 HD
HETATM   34  N8  UNL     1       4.773 -12.880   3.281  1.00  0.00     0.006 NA
HETATM   35  N9  UNL     1       3.518 -12.468   3.342  1.00  0.00    -0.117 N 
ATOM     36  H9  UNL     1       2.705 -13.020   3.616  1.00  0.00     0.202 HD
ENDBRANCH  28  30
ENDBRANCH   2  28
BRANCH   6  37
HETATM   37  O5  UNL     1       0.734  -8.243  -0.674  1.00  0.00    -0.375 OA
ATOM     38  H5  UNL     1      -0.096  -8.468  -1.077  1.00  0.00     0.211 HD
ENDBRANCH   6  37
BRANCH   6  39
HETATM   39  C14 UNL     1       0.171 -10.238   0.371  1.00  0.00     0.298 C 
HETATM   40  O6  UNL     1      -0.250 -10.972   1.303  1.00  0.00    -0.262 OA
BRANCH  39  41
HETATM   41  O7  UNL     1       0.038 -10.748  -0.906  1.00  0.00    -0.310 OA
BRANCH  41  42
HETATM   42  C15 UNL     1      -0.419 -12.048  -1.204  1.00  0.00     0.296 C 
BRANCH  42  43
HETATM   43  C16 UNL     1       0.197 -12.426  -2.546  1.00  0.00     0.409 C 
HETATM   44  F1  UNL     1       0.929 -11.395  -3.060  1.00  0.00    -0.169 F 
HETATM   45  F2  UNL     1       1.029 -13.521  -2.415  1.00  0.00    -0.169 F 
HETATM   46  F3  UNL     1      -0.836 -12.792  -3.405  1.00  0.00    -0.169 F 
ENDBRANCH  42  43
ENDBRANCH  41  42
ENDBRANCH  39  41
ENDBRANCH   6  39
BRANCH   3  47
HETATM   47  N10 UNL     1       1.797  -8.571   4.666  1.00  0.00    -0.073 N 
ATOM     48 3H10 UNL     1       1.529  -9.537   4.859  1.00  0.00     0.274 HD
ATOM     49 2H10 UNL     1       2.784  -8.657   4.908  1.00  0.00     0.274 HD
ATOM     50 1H10 UNL     1       1.302  -7.896   5.248  1.00  0.00     0.274 HD
ENDBRANCH   3  47
BRANCH   5  51
HETATM   51  N11 UNL     1      -1.425  -8.071   1.049  1.00  0.00    -0.058 N 
ATOM     52 2H11 UNL     1      -1.470  -8.191   0.037  1.00  0.00     0.278 HD
ATOM     53 1H11 UNL     1      -1.881  -8.934   1.345  1.00  0.00     0.278 HD
BRANCH  51  54
HETATM   54  C11 UNL     1      -2.188  -6.935   1.454  1.00  0.00     0.345 C 
BRANCH  54  55
HETATM   55  C12 UNL     1      -2.257  -5.996   0.304  1.00  0.00     0.199 C 
HETATM   56  O3  UNL     1      -2.997  -4.980   0.310  1.00  0.00    -0.647 OA
HETATM   57  O4  UNL     1      -1.491  -6.217  -0.831  1.00  0.00    -0.647 OA
ENDBRANCH  54  55
ENDBRANCH  51  54
ENDBRANCH   5  51
TORSDOF 18
ENDMDL
MODEL 2
REMARK VINA RESULT: -6.486825275      3.959      8.008
REMARK  18 active torsions:
REMARK  status: ('A' for Active; 'I' for Inactive)
REMARK    1  A    between atoms: C3_4  and  C4_5 
REMARK    2  A    between atoms: C4_5  and  O2_14 
REMARK    3  A    between atoms: N2_6  and  N3_8 
REMARK    4  A    between atoms: N3_8  and  N4_9 
REMARK    5  A    between atoms: N3_8  and  O1_12 
REMARK    6  A    between atoms: O2_14  and  C5_15 
REMARK    7  A    between atoms: C6_16  and  N5_17 
REMARK    8  A    between atoms: N5_17  and  C7_19 
REMARK    9  A    between atoms: C8_26  and  N10_27 
REMARK   10  A    between atoms: C10_32  and  N11_33 
REMARK   11  A    between atoms: N11_33  and  C11_36 
REMARK   12  A    between atoms: C11_36  and  C12_37 
REMARK   13  A    between atoms: C13_40  and  O5_41 
REMARK   14  A    between atoms: C13_40  and  C14_43 
REMARK   15  A    between atoms: C14_43  and  O7_45 
REMARK   16  A    between atoms: O7_45  and  C15_46 
REMARK   17  A    between atoms: C15_46  and  C16_47 
REMARK   18  A    between atoms: C18_54  and  N13_55 
ROOT
HETATM    1  C5  UNL     1      -0.422 -10.489   0.455  1.00  0.00     0.202 C 
HETATM    2  C6  UNL     1      -0.529 -11.082   1.812  1.00  0.00     0.163 C 
HETATM    3  C8  UNL     1       0.804 -11.258   2.518  1.00  0.00     0.211 C 
HETATM    4  C9  UNL     1       1.619  -9.962   2.482  1.00  0.00     0.071 C 
HETATM    5  C10 UNL     1       1.851  -9.637   1.046  1.00  0.00     0.235 C 
HETATM    6  C13 UNL     1       0.562  -9.383   0.285  1.00  0.00     0.202 C 
ENDROOT
BRANCH   1   7
HETATM    7  O2  UNL     1      -0.097 -11.506  -0.476  1.00  0.00    -0.323 OA
BRANCH   7   8
HETATM    8  C4  UNL     1      -1.104 -12.344  -1.052  1.00  0.00     0.174 C 
HETATM    9  N2  UNL     1      -2.231 -12.133  -0.602  1.00  0.00    -0.237 N 
ATOM     10  H2  UNL     1      -2.224 -11.395   0.101  1.00  0.00     0.193 HD
BRANCH   8  11
HETATM   11  C3  UNL     1      -0.609 -13.266  -2.042  1.00  0.00     0.048 A 
HETATM   12  C2  UNL     1       0.138 -12.857  -3.114  1.00  0.00     0.125 A 
HETATM   13  N1  UNL     1       0.590 -13.776  -4.026  1.00  0.00    -0.197 N 
HETATM   14  C1  UNL     1       1.378 -13.297  -5.144  1.00  0.00     0.174 C 
HETATM   15  C18 UNL     1       0.327 -15.087  -3.917  1.00  0.00     0.677 A 
HETATM   16  N12 UNL     1      -0.401 -15.519  -2.879  1.00  0.00    -0.201 N 
HETATM   17  C17 UNL     1      -0.855 -14.635  -1.972  1.00  0.00     0.123 A 
ATOM     18  H12 UNL     1      -0.611 -16.512  -2.778  1.00  0.00     0.183 HD
BRANCH  15  19
HETATM   19  N13 UNL     1       0.791 -15.893  -4.823  1.00  0.00    -0.234 N 
ATOM     20 2H13 UNL     1       1.535 -15.621  -5.466  1.00  0.00     0.174 HD
ATOM     21 1H13 UNL     1       0.396 -16.831  -4.893  1.00  0.00     0.174 HD
ENDBRANCH  15  19
ENDBRANCH   8  11
BRANCH   9  22
HETATM   22  N3  UNL     1      -3.452 -12.616  -0.793  1.00  0.00    -0.100 N 
BRANCH  22  23
HETATM   23  N4  UNL     1      -4.276 -12.938   0.149  1.00  0.00    -0.303 N 
ATOM     24  H42 UNL     1      -3.846 -13.509   0.876  1.00  0.00     0.181 HD
ATOM     25  H41 UNL     1      -5.261 -12.673   0.178  1.00  0.00     0.181 HD
ENDBRANCH  22  23
BRANCH  22  26
HETATM   26  O1  UNL     1      -3.983 -12.807  -2.073  1.00  0.00    -0.254 OA
ATOM     27  H1  UNL     1      -4.822 -12.445  -2.330  1.00  0.00     0.248 HD
ENDBRANCH  22  26
ENDBRANCH   9  22
ENDBRANCH   7   8
ENDBRANCH   1   7
BRANCH   2  28
HETATM   28  N5  UNL     1      -1.469 -10.360   2.654  1.00  0.00    -0.215 N 
ATOM     29  H5  UNL     1      -1.098  -9.672   3.309  1.00  0.00     0.178 HD
BRANCH  28  30
HETATM   30  C7  UNL     1      -2.741 -10.541   2.619  1.00  0.00     0.704 A 
HETATM   31  N6  UNL     1      -3.646  -9.896   1.861  1.00  0.00    -0.117 N 
HETATM   32  N7  UNL     1      -4.837 -10.397   2.141  1.00  0.00     0.006 NA
ATOM     33  H6  UNL     1      -3.449  -9.154   1.189  1.00  0.00     0.202 HD
HETATM   34  N8  UNL     1      -4.670 -11.335   3.059  1.00  0.00     0.006 NA
HETATM   35  N9  UNL     1      -3.391 -11.446   3.372  1.00  0.00    -0.117 N 
ATOM     36  H9  UNL     1      -2.979 -12.088   4.049  1.00  0.00     0.202 HD
ENDBRANCH  28  30
ENDBRANCH   2  28
BRANCH   6  37
HETATM   37  O5  UNL     1       0.952  -9.397  -1.077  1.00  0.00    -0.375 OA
ATOM     38  H5  UNL     1       1.887  -9.565  -1.087  1.00  0.00     0.211 HD
ENDBRANCH   6  37
BRANCH   6  39
HETATM   39  C14 UNL     1       0.001  -8.060   0.565  1.00  0.00     0.298 C 
HETATM   40  O6  UNL     1       0.691  -7.027   0.772  1.00  0.00    -0.262 OA
BRANCH  39  41
HETATM   41  O7  UNL     1      -1.369  -7.891   0.616  1.00  0.00    -0.310 OA
BRANCH  41  42
HETATM   42  C15 UNL     1      -2.028  -6.939   1.421  1.00  0.00     0.296 C 
BRANCH  42  43
HETATM   43  C16 UNL     1      -2.443  -5.801   0.495  1.00  0.00     0.409 C 
HETATM   44  F1  UNL     1      -1.504  -4.811   0.482  1.00  0.00    -0.169 F 
HETATM   45  F2  UNL     1      -2.609  -6.255  -0.798  1.00  0.00    -0.169 F 
HETATM   46  F3  UNL     1      -3.678  -5.325   0.928  1.00  0.00    -0.169 F 
ENDBRANCH  42  43
ENDBRANCH  41  42
ENDBRANCH  39  41
ENDBRANCH   6  39
BRANCH   3  47
HETATM   47  N10 UNL     1       0.521 -11.596   3.896  1.00  0.00    -0.073 N 
ATOM     48 3H10 UNL     1      -0.050 -10.896   4.369  1.00  0.00     0.274 HD
ATOM     49 2H10 UNL     1      -0.124 -12.380   3.990  1.00  0.00     0.274 HD
ATOM     50 1H10 UNL     1       1.415 -11.759   4.359  1.00  0.00     0.274 HD
ENDBRANCH   3  47
BRANCH   5  51
HETATM   51  N11 UNL     1       2.726  -8.502   0.850  1.00  0.00    -0.058 N 
ATOM     52 2H11 UNL     1       2.413  -7.940   0.059  1.00  0.00     0.278 HD
ATOM     53 1H11 UNL     1       2.606  -7.823   1.601  1.00  0.00     0.278 HD
BRANCH  51  54
HETATM   54  C11 UNL     1       4.102  -8.852   0.704  1.00  0.00     0.345 C 
BRANCH  54  55
HETATM   55  C12 UNL     1       4.443  -8.773  -0.740  1.00  0.00     0.199 C 
HETATM   56  O3  UNL     1       3.745  -8.125  -1.560  1.00  0.00    -0.647 OA
HETATM   57  O4  UNL     1       5.565  -9.422  -1.235  1.00  0.00    -0.647 OA
ENDBRANCH  54  55
ENDBRANCH  51  54
ENDBRANCH   5  51
TORSDOF 18
ENDMDL
MODEL 3
REMARK VINA RESULT: -6.399483364      1.189      1.378
REMARK  18 active torsions:
REMARK  status: ('A' for Active; 'I' for Inactive)
REMARK    1  A    between atoms: C3_4  and  C4_5 
REMARK    2  A    between atoms: C4_5  and  O2_14 
REMARK    3  A    between atoms: N2_6  and  N3_8 
REMARK    4  A    between atoms: N3_8  and  N4_9 
REMARK    5  A    between atoms: N3_8  and  O1_12 
REMARK    6  A    between atoms: O2_14  and  C5_15 
REMARK    7  A    between atoms: C6_16  and  N5_17 
REMARK    8  A    between atoms: N5_17  and  C7_19 
REMARK    9  A    between atoms: C8_26  and  N10_27 
REMARK   10  A    between atoms: C10_32  and  N11_33 
REMARK   11  A    between atoms: N11_33  and  C11_36 
REMARK   12  A    between atoms: C11_36  and  C12_37 
REMARK   13  A    between atoms: C13_40  and  O5_41 
REMARK   14  A    between atoms: C13_40  and  C14_43 
REMARK   15  A    between atoms: C14_43  and  O7_45 
REMARK   16  A    between atoms: O7_45  and  C15_46 
REMARK   17  A    between atoms: C15_46  and  C16_47 
REMARK   18  A    between atoms: C18_54  and  N13_55 
ROOT
HETATM    1  C5  UNL     1       2.310  -8.972   1.117  1.00  0.00     0.202 C 
HETATM    2  C6  UNL     1       2.590  -8.963   2.575  1.00  0.00     0.163 C 
HETATM    3  C8  UNL     1       1.657  -8.075   3.380  1.00  0.00     0.211 C 
HETATM    4  C9  UNL     1       0.193  -8.369   3.041  1.00  0.00     0.071 C 
HETATM    5  C10 UNL     1       0.020  -8.091   1.588  1.00  0.00     0.235 C 
HETATM    6  C13 UNL     1       0.876  -8.988   0.712  1.00  0.00     0.202 C 
ENDROOT
BRANCH   1   7
HETATM    7  O2  UNL     1       2.918  -7.842   0.517  1.00  0.00    -0.323 OA
BRANCH   7   8
HETATM    8  C4  UNL     1       4.269  -7.878   0.049  1.00  0.00     0.174 C 
HETATM    9  N2  UNL     1       4.441  -8.658  -0.888  1.00  0.00    -0.237 N 
ATOM     10  H2  UNL     1       3.576  -9.131  -1.149  1.00  0.00     0.193 HD
BRANCH   8  11
HETATM   11  C3  UNL     1       5.164  -7.000   0.759  1.00  0.00     0.048 A 
HETATM   12  C2  UNL     1       4.739  -6.198   1.785  1.00  0.00     0.125 A 
HETATM   13  N1  UNL     1       5.632  -5.382   2.433  1.00  0.00    -0.197 N 
HETATM   14  C1  UNL     1       5.138  -4.552   3.513  1.00  0.00     0.174 C 
HETATM   15  C18 UNL     1       6.930  -5.331   2.101  1.00  0.00     0.677 A 
HETATM   16  N12 UNL     1       7.376  -6.103   1.102  1.00  0.00    -0.201 N 
HETATM   17  C17 UNL     1       6.519  -6.911   0.453  1.00  0.00     0.123 A 
ATOM     18  H12 UNL     1       8.361  -6.080   0.836  1.00  0.00     0.183 HD
BRANCH  15  19
HETATM   19  N13 UNL     1       7.712  -4.532   2.763  1.00  0.00    -0.234 N 
ATOM     20 2H13 UNL     1       8.028  -3.640   2.384  1.00  0.00     0.174 HD
ATOM     21 1H13 UNL     1       8.020  -4.810   3.696  1.00  0.00     0.174 HD
ENDBRANCH  15  19
ENDBRANCH   8  11
BRANCH   9  22
HETATM   22  N3  UNL     1       5.458  -9.044  -1.648  1.00  0.00    -0.100 N 
BRANCH  22  23
HETATM   23  N4  UNL     1       6.438  -9.787  -1.252  1.00  0.00    -0.303 N 
ATOM     24  H42 UNL     1       6.249 -10.784  -1.358  1.00  0.00     0.181 HD
ATOM     25  H41 UNL     1       7.313  -9.440  -0.858  1.00  0.00     0.181 HD
ENDBRANCH  22  23
BRANCH  22  26
HETATM   26  O1  UNL     1       5.555  -8.687  -2.997  1.00  0.00    -0.254 OA
ATOM     27  H1  UNL     1       5.893  -9.283  -3.654  1.00  0.00     0.248 HD
ENDBRANCH  22  26
ENDBRANCH   9  22
ENDBRANCH   7   8
ENDBRANCH   1   7
BRANCH   2  28
HETATM   28  N5  UNL     1       2.635 -10.305   3.134  1.00  0.00    -0.215 N 
ATOM     29  H5  UNL     1       1.800 -10.662   3.598  1.00  0.00     0.178 HD
BRANCH  28  30
HETATM   30  C7  UNL     1       3.670 -11.066   3.075  1.00  0.00     0.704 A 
HETATM   31  N6  UNL     1       4.919 -10.733   2.705  1.00  0.00    -0.117 N 
HETATM   32  N7  UNL     1       5.668 -11.820   2.790  1.00  0.00     0.006 NA
ATOM     33  H6  UNL     1       5.234  -9.809   2.412  1.00  0.00     0.202 HD
HETATM   34  N8  UNL     1       4.892 -12.808   3.205  1.00  0.00     0.006 NA
HETATM   35  N9  UNL     1       3.657 -12.374   3.388  1.00  0.00    -0.117 N 
ATOM     36  H9  UNL     1       2.856 -12.921   3.705  1.00  0.00     0.202 HD
ENDBRANCH  28  30
ENDBRANCH   2  28
BRANCH   6  37
HETATM   37  O5  UNL     1       0.813  -8.388  -0.569  1.00  0.00    -0.375 OA
ATOM     38  H5  UNL     1       1.517  -8.770  -1.080  1.00  0.00     0.211 HD
ENDBRANCH   6  37
BRANCH   6  39
HETATM   39  C14 UNL     1       0.324 -10.339   0.590  1.00  0.00     0.298 C 
HETATM   40  O6  UNL     1       0.597 -11.288   1.372  1.00  0.00    -0.262 OA
BRANCH  39  41
HETATM   41  O7  UNL     1      -0.553 -10.634  -0.435  1.00  0.00    -0.310 OA
BRANCH  41  42
HETATM   42  C15 UNL     1      -0.925 -11.939  -0.818  1.00  0.00     0.296 C 
BRANCH  42  43
HETATM   43  C16 UNL     1      -2.340 -12.157  -0.296  1.00  0.00     0.409 C 
HETATM   44  F1  UNL     1      -2.955 -10.968  -0.030  1.00  0.00    -0.169 F 
HETATM   45  F2  UNL     1      -3.106 -12.840  -1.221  1.00  0.00    -0.169 F 
HETATM   46  F3  UNL     1      -2.260 -12.953   0.843  1.00  0.00    -0.169 F 
ENDBRANCH  42  43
ENDBRANCH  41  42
ENDBRANCH  39  41
ENDBRANCH   6  39
BRANCH   3  47
HETATM   47  N10 UNL     1       1.883  -8.366   4.779  1.00  0.00    -0.073 N 
ATOM     48 3H10 UNL     1       2.863  -8.553   4.994  1.00  0.00     0.274 HD
ATOM     49 2H10 UNL     1       1.769  -7.549   5.380  1.00  0.00     0.274 HD
ATOM     50 1H10 UNL     1       1.266  -9.137   5.033  1.00  0.00     0.274 HD
ENDBRANCH   3  47
BRANCH   5  51
HETATM   51  N11 UNL     1      -1.352  -8.198   1.144  1.00  0.00    -0.058 N 
ATOM     52 2H11 UNL     1      -1.392  -8.362   0.137  1.00  0.00     0.278 HD
ATOM     53 1H11 UNL     1      -1.770  -9.066   1.476  1.00  0.00     0.278 HD
BRANCH  51  54
HETATM   54  C11 UNL     1      -2.164  -7.079   1.502  1.00  0.00     0.345 C 
BRANCH  54  55
HETATM   55  C12 UNL     1      -2.108  -6.098   0.388  1.00  0.00     0.199 C 
HETATM   56  O3  UNL     1      -2.729  -5.006   0.425  1.00  0.00    -0.647 OA
HETATM   57  O4  UNL     1      -1.355  -6.363  -0.747  1.00  0.00    -0.647 OA
ENDBRANCH  54  55
ENDBRANCH  51  54
ENDBRANCH   5  51
TORSDOF 18
ENDMDL
MODEL 4
REMARK VINA RESULT: -6.352657955      1.381      2.857
REMARK  18 active torsions:
REMARK  status: ('A' for Active; 'I' for Inactive)
REMARK    1  A    between atoms: C3_4  and  C4_5 
REMARK    2  A    between atoms: C4_5  and  O2_14 
REMARK    3  A    between atoms: N2_6  and  N3_8 
REMARK    4  A    between atoms: N3_8  and  N4_9 
REMARK    5  A    between atoms: N3_8  and  O1_12 
REMARK    6  A    between atoms: O2_14  and  C5_15 
REMARK    7  A    between atoms: C6_16  and  N5_17 
REMARK    8  A    between atoms: N5_17  and  C7_19 
REMARK    9  A    between atoms: C8_26  and  N10_27 
REMARK   10  A    between atoms: C10_32  and  N11_33 
REMARK   11  A    between atoms: N11_33  and  C11_36 
REMARK   12  A    between atoms: C11_36  and  C12_37 
REMARK   13  A    between atoms: C13_40  and  O5_41 
REMARK   14  A    between atoms: C13_40  and  C14_43 
REMARK   15  A    between atoms: C14_43  and  O7_45 
REMARK   16  A    between atoms: O7_45  and  C15_46 
REMARK   17  A    between atoms: C15_46  and  C16_47 
REMARK   18  A    between atoms: C18_54  and  N13_55 
ROOT
HETATM    1  C5  UNL     1       1.987  -9.054   1.115  1.00  0.00     0.202 C 
HETATM    2  C6  UNL     1       2.208  -9.202   2.576  1.00  0.00     0.163 C 
HETATM    3  C8  UNL     1       1.278  -8.359   3.432  1.00  0.00     0.211 C 
HETATM    4  C9  UNL     1      -0.182  -8.557   3.013  1.00  0.00     0.071 C 
HETATM    5  C10 UNL     1      -0.285  -8.128   1.589  1.00  0.00     0.235 C 
HETATM    6  C13 UNL     1       0.570  -8.970   0.659  1.00  0.00     0.202 C 
ENDROOT
BRANCH   1   7
HETATM    7  O2  UNL     1       2.661  -7.897   0.654  1.00  0.00    -0.323 OA
BRANCH   7   8
HETATM    8  C4  UNL     1       4.030  -7.646   0.984  1.00  0.00     0.174 C 
HETATM    9  N2  UNL     1       4.172  -6.826   1.892  1.00  0.00    -0.237 N 
ATOM     10  H2  UNL     1       3.274  -6.482   2.233  1.00  0.00     0.193 HD
BRANCH   8  11
HETATM   11  C3  UNL     1       4.974  -8.397   0.198  1.00  0.00     0.048 A 
HETATM   12  C2  UNL     1       5.949  -9.171   0.769  1.00  0.00     0.125 A 
HETATM   13  N1  UNL     1       6.822  -9.872  -0.025  1.00  0.00    -0.197 N 
HETATM   14  C1  UNL     1       7.837 -10.678   0.624  1.00  0.00     0.174 C 
HETATM   15  C18 UNL     1       6.765  -9.833  -1.364  1.00  0.00     0.677 A 
HETATM   16  N12 UNL     1       5.822  -9.085  -1.953  1.00  0.00    -0.201 N 
HETATM   17  C17 UNL     1       4.956  -8.390  -1.194  1.00  0.00     0.123 A 
ATOM     18  H12 UNL     1       5.762  -9.044  -2.970  1.00  0.00     0.183 HD
BRANCH  15  19
HETATM   19  N13 UNL     1       7.627 -10.525  -2.045  1.00  0.00    -0.234 N 
ATOM     20 2H13 UNL     1       7.472 -11.504  -2.287  1.00  0.00     0.174 HD
ATOM     21 1H13 UNL     1       8.491 -10.073  -2.346  1.00  0.00     0.174 HD
ENDBRANCH  15  19
ENDBRANCH   8  11
BRANCH   9  22
HETATM   22  N3  UNL     1       5.186  -6.272   2.543  1.00  0.00    -0.100 N 
BRANCH  22  23
HETATM   23  N4  UNL     1       5.927  -5.316   2.085  1.00  0.00    -0.303 N 
ATOM     24  H42 UNL     1       6.230  -5.473   1.123  1.00  0.00     0.181 HD
ATOM     25  H41 UNL     1       6.205  -4.489   2.612  1.00  0.00     0.181 HD
ENDBRANCH  22  23
BRANCH  22  26
HETATM   26  O1  UNL     1       5.547  -6.671   3.834  1.00  0.00    -0.254 OA
ATOM     27  H1  UNL     1       6.283  -6.285   4.294  1.00  0.00     0.248 HD
ENDBRANCH  22  26
ENDBRANCH   9  22
ENDBRANCH   7   8
ENDBRANCH   1   7
BRANCH   2  28
HETATM   28  N5  UNL     1       2.179 -10.593   2.998  1.00  0.00    -0.215 N 
ATOM     29  H5  UNL     1       1.281 -10.999   3.260  1.00  0.00     0.178 HD
BRANCH  28  30
HETATM   30  C7  UNL     1       3.224 -11.340   3.058  1.00  0.00     0.704 A 
HETATM   31  N6  UNL     1       4.511 -10.971   2.935  1.00  0.00    -0.117 N 
HETATM   32  N7  UNL     1       5.256 -12.056   3.063  1.00  0.00     0.006 NA
ATOM     33  H6  UNL     1       4.852 -10.024   2.772  1.00  0.00     0.202 HD
HETATM   34  N8  UNL     1       4.441 -13.079   3.261  1.00  0.00     0.006 NA
HETATM   35  N9  UNL     1       3.185 -12.669   3.263  1.00  0.00    -0.117 N 
ATOM     36  H9  UNL     1       2.352 -13.244   3.394  1.00  0.00     0.202 HD
ENDBRANCH  28  30
ENDBRANCH   2  28
BRANCH   6  37
HETATM   37  O5  UNL     1       0.582  -8.243  -0.557  1.00  0.00    -0.375 OA
ATOM     38  H5  UNL     1       0.290  -7.364  -0.348  1.00  0.00     0.211 HD
ENDBRANCH   6  37
BRANCH   6  39
HETATM   39  C14 UNL     1      -0.027 -10.277   0.381  1.00  0.00     0.298 C 
HETATM   40  O6  UNL     1      -0.577 -11.003   1.252  1.00  0.00    -0.262 OA
BRANCH  39  41
HETATM   41  O7  UNL     1      -0.007 -10.784  -0.903  1.00  0.00    -0.310 OA
BRANCH  41  42
HETATM   42  C15 UNL     1      -0.446 -12.076  -1.259  1.00  0.00     0.296 C 
BRANCH  42  43
HETATM   43  C16 UNL     1       0.227 -12.412  -2.586  1.00  0.00     0.409 C 
HETATM   44  F1  UNL     1       0.951 -11.352  -3.052  1.00  0.00    -0.169 F 
HETATM   45  F2  UNL     1       1.081 -13.488  -2.445  1.00  0.00    -0.169 F 
HETATM   46  F3  UNL     1      -0.765 -12.786  -3.488  1.00  0.00    -0.169 F 
ENDBRANCH  42  43
ENDBRANCH  41  42
ENDBRANCH  39  41
ENDBRANCH   6  39
BRANCH   3  47
HETATM   47  N10 UNL     1       1.436  -8.797   4.802  1.00  0.00    -0.073 N 
ATOM     48 3H10 UNL     1       1.012  -8.159   5.476  1.00  0.00     0.274 HD
ATOM     49 2H10 UNL     1       0.875  -9.619   5.025  1.00  0.00     0.274 HD
ATOM     50 1H10 UNL     1       2.433  -8.941   4.962  1.00  0.00     0.274 HD
ENDBRANCH   3  47
BRANCH   5  51
HETATM   51  N11 UNL     1      -1.641  -8.133   1.087  1.00  0.00    -0.058 N 
ATOM     52 2H11 UNL     1      -1.649  -8.237   0.073  1.00  0.00     0.278 HD
ATOM     53 1H11 UNL     1      -2.119  -8.994   1.352  1.00  0.00     0.278 HD
BRANCH  51  54
HETATM   54  C11 UNL     1      -2.406  -6.993   1.479  1.00  0.00     0.345 C 
BRANCH  54  55
HETATM   55  C12 UNL     1      -2.336  -5.995   0.380  1.00  0.00     0.199 C 
HETATM   56  O3  UNL     1      -3.018  -4.939   0.388  1.00  0.00    -0.647 OA
HETATM   57  O4  UNL     1      -1.501  -6.203  -0.707  1.00  0.00    -0.647 OA
ENDBRANCH  54  55
ENDBRANCH  51  54
ENDBRANCH   5  51
TORSDOF 18
ENDMDL
MODEL 5
REMARK VINA RESULT: -6.234745227      3.965      6.520
REMARK  18 active torsions:
REMARK  status: ('A' for Active; 'I' for Inactive)
REMARK    1  A    between atoms: C3_4  and  C4_5 
REMARK    2  A    between atoms: C4_5  and  O2_14 
REMARK    3  A    between atoms: N2_6  and  N3_8 
REMARK    4  A    between atoms: N3_8  and  N4_9 
REMARK    5  A    between atoms: N3_8  and  O1_12 
REMARK    6  A    between atoms: O2_14  and  C5_15 
REMARK    7  A    between atoms: C6_16  and  N5_17 
REMARK    8  A    between atoms: N5_17  and  C7_19 
REMARK    9  A    between atoms: C8_26  and  N10_27 
REMARK   10  A    between atoms: C10_32  and  N11_33 
REMARK   11  A    between atoms: N11_33  and  C11_36 
REMARK   12  A    between atoms: C11_36  and  C12_37 
REMARK   13  A    between atoms: C13_40  and  O5_41 
REMARK   14  A    between atoms: C13_40  and  C14_43 
REMARK   15  A    between atoms: C14_43  and  O7_45 
REMARK   16  A    between atoms: O7_45  and  C15_46 
REMARK   17  A    between atoms: C15_46  and  C16_47 
REMARK   18  A    between atoms: C18_54  and  N13_55 
ROOT
HETATM    1  C5  UNL     1       7.173  -6.428   2.465  1.00  0.00     0.202 C 
HETATM    2  C6  UNL     1       7.301  -7.260   3.688  1.00  0.00     0.163 C 
HETATM    3  C8  UNL     1       5.989  -7.847   4.179  1.00  0.00     0.211 C 
HETATM    4  C9  UNL     1       5.242  -8.547   3.041  1.00  0.00     0.071 C 
HETATM    5  C10 UNL     1       4.971  -7.515   2.001  1.00  0.00     0.235 C 
HETATM    6  C13 UNL     1       6.242  -6.926   1.413  1.00  0.00     0.202 C 
ENDROOT
BRANCH   1   7
HETATM    7  O2  UNL     1       6.760  -5.123   2.828  1.00  0.00    -0.323 OA
BRANCH   7   8
HETATM    8  C4  UNL     1       7.708  -4.091   3.118  1.00  0.00     0.174 C 
HETATM    9  N2  UNL     1       8.592  -3.987   2.267  1.00  0.00    -0.237 N 
ATOM     10  H2  UNL     1       8.474  -4.665   1.516  1.00  0.00     0.193 HD
BRANCH   8  11
HETATM   11  C3  UNL     1       7.446  -3.376   4.341  1.00  0.00     0.048 A 
HETATM   12  C2  UNL     1       8.044  -3.712   5.526  1.00  0.00     0.125 A 
HETATM   13  N1  UNL     1       7.764  -2.997   6.663  1.00  0.00    -0.197 N 
HETATM   14  C1  UNL     1       8.421  -3.388   7.894  1.00  0.00     0.174 C 
HETATM   15  C18 UNL     1       6.914  -1.960   6.668  1.00  0.00     0.677 A 
HETATM   16  N12 UNL     1       6.314  -1.606   5.524  1.00  0.00    -0.201 N 
HETATM   17  C17 UNL     1       6.573  -2.294   4.398  1.00  0.00     0.123 A 
ATOM     18  H12 UNL     1       5.665  -0.819   5.508  1.00  0.00     0.183 HD
BRANCH  15  19
HETATM   19  N13 UNL     1       6.703  -1.333   7.786  1.00  0.00    -0.234 N 
ATOM     20 2H13 UNL     1       7.035  -1.689   8.682  1.00  0.00     0.174 HD
ATOM     21 1H13 UNL     1       6.186  -0.453   7.765  1.00  0.00     0.174 HD
ENDBRANCH  15  19
ENDBRANCH   8  11
BRANCH   9  22
HETATM   22  N3  UNL     1       9.659  -3.222   2.074  1.00  0.00    -0.100 N 
BRANCH  22  23
HETATM   23  N4  UNL     1      10.829  -3.656   1.734  1.00  0.00    -0.303 N 
ATOM     24  H42 UNL     1      10.852  -4.039   0.788  1.00  0.00     0.181 HD
ATOM     25  H41 UNL     1      11.654  -3.641   2.332  1.00  0.00     0.181 HD
ENDBRANCH  22  23
BRANCH  22  26
HETATM   26  O1  UNL     1       9.609  -1.831   2.204  1.00  0.00    -0.254 OA
ATOM     27  H1  UNL     1      10.219  -1.260   1.752  1.00  0.00     0.248 HD
ENDBRANCH  22  26
ENDBRANCH   9  22
ENDBRANCH   7   8
ENDBRANCH   1   7
BRANCH   2  28
HETATM   28  N5  UNL     1       8.309  -8.299   3.544  1.00  0.00    -0.215 N 
ATOM     29  H5  UNL     1       8.009  -9.272   3.602  1.00  0.00     0.178 HD
BRANCH  28  30
HETATM   30  C7  UNL     1       9.556  -8.057   3.346  1.00  0.00     0.704 A 
HETATM   31  N6  UNL     1      10.313  -7.102   3.915  1.00  0.00    -0.117 N 
HETATM   32  N7  UNL     1      11.536  -7.212   3.426  1.00  0.00     0.006 NA
ATOM     33  H6  UNL     1       9.999  -6.417   4.602  1.00  0.00     0.202 HD
HETATM   34  N8  UNL     1      11.535  -8.218   2.568  1.00  0.00     0.006 NA
HETATM   35  N9  UNL     1      10.330  -8.758   2.498  1.00  0.00    -0.117 N 
ATOM     36  H9  UNL     1      10.044  -9.547   1.917  1.00  0.00     0.202 HD
ENDBRANCH  28  30
ENDBRANCH   2  28
BRANCH   6  37
HETATM   37  O5  UNL     1       5.800  -5.788   0.696  1.00  0.00    -0.375 OA
ATOM     38  H5  UNL     1       5.038  -6.062   0.199  1.00  0.00     0.211 HD
ENDBRANCH   6  37
BRANCH   6  39
HETATM   39  C14 UNL     1       6.882  -7.827   0.452  1.00  0.00     0.298 C 
HETATM   40  O6  UNL     1       8.080  -8.207   0.529  1.00  0.00    -0.262 OA
BRANCH  39  41
HETATM   41  O7  UNL     1       6.162  -8.313  -0.621  1.00  0.00    -0.310 OA
BRANCH  41  42
HETATM   42  C15 UNL     1       6.417  -9.541  -1.265  1.00  0.00     0.296 C 
BRANCH  42  43
HETATM   43  C16 UNL     1       6.871  -9.201  -2.681  1.00  0.00     0.409 C 
HETATM   44  F1  UNL     1       5.824  -8.763  -3.440  1.00  0.00    -0.169 F 
HETATM   45  F2  UNL     1       7.835  -8.212  -2.665  1.00  0.00    -0.169 F 
HETATM   46  F3  UNL     1       7.455 -10.339  -3.229  1.00  0.00    -0.169 F 
ENDBRANCH  42  43
ENDBRANCH  41  42
ENDBRANCH  39  41
ENDBRANCH   6  39
BRANCH   3  47
HETATM   47  N10 UNL     1       6.306  -8.820   5.202  1.00  0.00    -0.073 N 
ATOM     48 3H10 UNL     1       7.202  -8.642   5.657  1.00  0.00     0.274 HD
ATOM     49 2H10 UNL     1       5.717  -8.735   6.030  1.00  0.00     0.274 HD
ATOM     50 1H10 UNL     1       6.255  -9.742   4.770  1.00  0.00     0.274 HD
ENDBRANCH   3  47
BRANCH   5  51
HETATM   51  N11 UNL     1       4.150  -7.999   0.913  1.00  0.00    -0.058 N 
ATOM     52 2H11 UNL     1       4.393  -7.528   0.042  1.00  0.00     0.278 HD
ATOM     53 1H11 UNL     1       4.407  -8.955   0.667  1.00  0.00     0.278 HD
BRANCH  51  54
HETATM   54  C11 UNL     1       2.748  -7.904   1.162  1.00  0.00     0.345 C 
BRANCH  54  55
HETATM   55  C12 UNL     1       2.035  -8.315  -0.076  1.00  0.00     0.199 C 
HETATM   56  O3  UNL     1       2.577  -9.028  -0.957  1.00  0.00    -0.647 OA
HETATM   57  O4  UNL     1       0.725  -7.916  -0.299  1.00  0.00    -0.647 OA
ENDBRANCH  54  55
ENDBRANCH  51  54
ENDBRANCH   5  51
TORSDOF 18
ENDMDL
