MODEL 1
REMARK VINA RESULT: -6.312792221      0.000      0.000
REMARK  13 active torsions:
REMARK  status: ('A' for Active; 'I' for Inactive)
REMARK    1  A    between atoms: C7_10  and  N2_11 
REMARK    2  A    between atoms: C11_22  and  N6_23 
REMARK    3  A    between atoms: N6_23  and  C12_24 
REMARK    4  A    between atoms: C12_24  and  C13_25 
REMARK    5  A    between atoms: C13_25  and  N7_26 
REMARK    6  A    between atoms: C13_25  and  C14_30 
REMARK    7  A    between atoms: C14_30  and  N8_31 
REMARK    8  A    between atoms: N8_31  and  C15_34 
REMARK    9  A    between atoms: C15_34  and  O1_35 
REMARK   10  A    between atoms: C15_34  and  C16_37 
REMARK   11  A    between atoms: C16_37  and  O3_39 
REMARK   12  A    between atoms: O3_39  and  S1_40 
REMARK   13  A    between atoms: C18_47  and  N10_48 
ROOT
HETATM    1  N2  UNL     1       5.820  -8.345  -0.299  1.00  0.00    -0.190 N 
ATOM      2  H2  UNL     1       5.885  -8.466  -1.310  1.00  0.00     0.184 HD
HETATM    3  C8  UNL     1       4.631  -8.285   0.124  1.00  0.00     0.685 A 
HETATM    4  N3  UNL     1       3.587  -8.381  -0.764  1.00  0.00    -0.174 N 
ATOM      5  H3  UNL     1       3.672  -8.505  -1.773  1.00  0.00     0.186 HD
HETATM    6  C9  UNL     1       2.445  -8.284  -0.085  1.00  0.00     0.154 A 
HETATM    7  N4  UNL     1       1.148  -8.314  -0.489  1.00  0.00    -0.336 N 
ATOM      8  H4  UNL     1       0.934  -8.436  -1.479  1.00  0.00     0.168 HD
HETATM    9  C10 UNL     1       0.148  -8.187   0.392  1.00  0.00     0.184 A 
HETATM   10  N5  UNL     1       0.402  -8.030   1.683  1.00  0.00    -0.325 N 
ATOM     11  H5  UNL     1      -0.380  -7.936   2.332  1.00  0.00     0.169 HD
HETATM   12  C11 UNL     1       1.684  -7.990   2.176  1.00  0.00     0.210 A 
HETATM   13  C17 UNL     1       2.725  -8.123   1.246  1.00  0.00     0.151 A 
HETATM   14  N9  UNL     1       4.073  -8.128   1.335  1.00  0.00    -0.183 N 
ATOM     15  H9  UNL     1       4.596  -8.027   2.205  1.00  0.00     0.184 HD
ENDROOT
BRANCH  12  16
HETATM   16  N6  UNL     1       1.848  -7.829   3.342  1.00  0.00    -0.399 NA
BRANCH  16  17
HETATM   17  C12 UNL     1       2.028  -7.654   4.658  1.00  0.00     0.192 C 
BRANCH  17  18
HETATM   18  C13 UNL     1       3.468  -7.495   5.129  1.00  0.00     0.260 C 
BRANCH  18  19
HETATM   19  N7  UNL     1       4.325  -8.572   4.760  1.00  0.00    -0.068 N 
ATOM     20  H73 UNL     1       3.980  -9.032   3.918  1.00  0.00     0.275 HD
ATOM     21  H72 UNL     1       5.216  -8.216   4.411  1.00  0.00     0.275 HD
ATOM     22  H71 UNL     1       4.480  -9.255   5.502  1.00  0.00     0.275 HD
ENDBRANCH  18  19
BRANCH  18  23
HETATM   23  C14 UNL     1       4.044  -6.137   4.846  1.00  0.00     0.275 C 
BRANCH  23  24
HETATM   24  N8  UNL     1       4.800  -6.197   3.608  1.00  0.00    -0.037 N 
ATOM     25  H82 UNL     1       5.756  -6.523   3.749  1.00  0.00     0.280 HD
ATOM     26  H81 UNL     1       4.485  -6.948   2.994  1.00  0.00     0.280 HD
BRANCH  24  27
HETATM   27  C15 UNL     1       4.745  -4.916   2.978  1.00  0.00     0.420 C 
BRANCH  27  28
HETATM   28  O1  UNL     1       4.764  -4.990   1.611  1.00  0.00    -0.362 OA
ATOM     29  H1  UNL     1       3.896  -5.017   1.227  1.00  0.00     0.212 HD
ENDBRANCH  27  28
BRANCH  27  30
HETATM   30  C16 UNL     1       5.874  -4.081   3.533  1.00  0.00     0.331 C 
HETATM   31  O2  UNL     1       5.648  -3.039   4.216  1.00  0.00    -0.259 OA
BRANCH  30  32
HETATM   32  O3  UNL     1       7.112  -4.507   3.259  1.00  0.00    -0.175 OA
BRANCH  32  33
HETATM   33  S1  UNL     1       8.661  -3.475   3.571  1.00  0.00     0.399 S 
HETATM   34  O4  UNL     1      10.083  -3.552   4.216  1.00  0.00    -0.174 OA
HETATM   35  F1  UNL     1       9.008  -3.366   2.083  1.00  0.00    -0.090 F 
HETATM   36  F2  UNL     1       9.038  -5.749   4.144  1.00  0.00    -0.090 F 
ENDBRANCH  32  33
ENDBRANCH  30  32
ENDBRANCH  27  30
ENDBRANCH  24  27
ENDBRANCH  23  24
ENDBRANCH  18  23
ENDBRANCH  17  18
ENDBRANCH  16  17
ENDBRANCH  12  16
BRANCH   1  37
HETATM   37  C7  UNL     1       7.050  -8.281   0.328  1.00  0.00     0.090 A 
HETATM   38  C6  UNL     1       8.069  -9.116   0.029  1.00  0.00     0.045 A 
HETATM   39  C1  UNL     1       8.168 -10.163  -0.885  1.00  0.00     0.082 A 
HETATM   40  C5  UNL     1       9.158  -8.803   0.794  1.00  0.00     0.066 A 
HETATM   41  N1  UNL     1       7.050 -10.506  -1.697  1.00  0.00    -0.100 NA
HETATM   42  C2  UNL     1       9.350 -10.870  -1.014  1.00  0.00     0.060 A 
HETATM   43 CL1  UNL     1       9.537 -12.186  -2.143  1.00  0.00    -0.082 Cl
HETATM   44  C3  UNL     1      10.444 -10.538  -0.229  1.00  0.00     0.052 A 
HETATM   45  C4  UNL     1      10.347  -9.505   0.675  1.00  0.00     0.063 A 
HETATM   46 CL2  UNL     1      11.732  -9.102   1.667  1.00  0.00    -0.082 Cl
HETATM   47  N11 UNL     1       8.908  -7.820   1.580  1.00  0.00    -0.356 N 
HETATM   48  C18 UNL     1       7.548  -7.380   1.389  1.00  0.00     0.334 A 
ATOM     49  H11 UNL     1       9.571  -7.413   2.240  1.00  0.00     0.162 HD
BRANCH  48  50
HETATM   50  N10 UNL     1       7.590  -6.046   0.838  1.00  0.00    -0.053 N 
ATOM     51 3H10 UNL     1       7.367  -6.019  -0.157  1.00  0.00     0.277 HD
ATOM     52 2H10 UNL     1       6.822  -5.457   1.162  1.00  0.00     0.277 HD
ATOM     53 1H10 UNL     1       8.508  -5.656   1.051  1.00  0.00     0.277 HD
ENDBRANCH  48  50
ENDBRANCH   1  37
TORSDOF 13
ENDMDL
MODEL 2
REMARK VINA RESULT: -6.100445187      5.096      7.006
REMARK  13 active torsions:
REMARK  status: ('A' for Active; 'I' for Inactive)
REMARK    1  A    between atoms: C7_10  and  N2_11 
REMARK    2  A    between atoms: C11_22  and  N6_23 
REMARK    3  A    between atoms: N6_23  and  C12_24 
REMARK    4  A    between atoms: C12_24  and  C13_25 
REMARK    5  A    between atoms: C13_25  and  N7_26 
REMARK    6  A    between atoms: C13_25  and  C14_30 
REMARK    7  A    between atoms: C14_30  and  N8_31 
REMARK    8  A    between atoms: N8_31  and  C15_34 
REMARK    9  A    between atoms: C15_34  and  O1_35 
REMARK   10  A    between atoms: C15_34  and  C16_37 
REMARK   11  A    between atoms: C16_37  and  O3_39 
REMARK   12  A    between atoms: O3_39  and  S1_40 
REMARK   13  A    between atoms: C18_47  and  N10_48 
ROOT
HETATM    1  N2  UNL     1       8.008  -4.826   2.369  1.00  0.00    -0.190 N 
ATOM      2  H2  UNL     1       8.721  -4.720   1.647  1.00  0.00     0.184 HD
HETATM    3  C8  UNL     1       7.050  -5.573   2.022  1.00  0.00     0.685 A 
HETATM    4  N3  UNL     1       7.050  -6.144   0.772  1.00  0.00    -0.174 N 
ATOM      5  H3  UNL     1       7.775  -6.029   0.064  1.00  0.00     0.186 HD
HETATM    6  C9  UNL     1       5.944  -6.875   0.643  1.00  0.00     0.154 A 
HETATM    7  N4  UNL     1       5.474  -7.627  -0.387  1.00  0.00    -0.336 N 
ATOM      8  H4  UNL     1       6.017  -7.695  -1.248  1.00  0.00     0.168 HD
HETATM    9  C10 UNL     1       4.308  -8.279  -0.289  1.00  0.00     0.184 A 
HETATM   10  N5  UNL     1       3.586  -8.207   0.820  1.00  0.00    -0.325 N 
ATOM     11  H5  UNL     1       2.702  -8.714   0.867  1.00  0.00     0.169 HD
HETATM   12  C11 UNL     1       3.989  -7.471   1.908  1.00  0.00     0.210 A 
HETATM   13  C17 UNL     1       5.210  -6.791   1.796  1.00  0.00     0.151 A 
HETATM   14  N9  UNL     1       5.919  -5.985   2.617  1.00  0.00    -0.183 N 
ATOM     15  H9  UNL     1       5.633  -5.725   3.560  1.00  0.00     0.184 HD
ENDROOT
BRANCH  12  16
HETATM   16  N6  UNL     1       3.290  -7.431   2.867  1.00  0.00    -0.399 NA
BRANCH  16  17
HETATM   17  C12 UNL     1       2.505  -7.381   3.952  1.00  0.00     0.192 C 
BRANCH  17  18
HETATM   18  C13 UNL     1       2.136  -8.717   4.584  1.00  0.00     0.260 C 
BRANCH  18  19
HETATM   19  N7  UNL     1       1.644  -8.616   5.918  1.00  0.00    -0.068 N 
ATOM     20  H73 UNL     1       1.323  -7.667   6.110  1.00  0.00     0.275 HD
ATOM     21  H72 UNL     1       0.762  -9.120   6.012  1.00  0.00     0.275 HD
ATOM     22  H71 UNL     1       2.307  -8.920   6.631  1.00  0.00     0.275 HD
ENDBRANCH  18  19
BRANCH  18  23
HETATM   23  C14 UNL     1       1.299  -9.590   3.694  1.00  0.00     0.275 C 
BRANCH  23  24
HETATM   24  N8  UNL     1       0.429  -8.748   2.894  1.00  0.00    -0.037 N 
ATOM     25  H82 UNL     1      -0.456  -8.546   3.360  1.00  0.00     0.280 HD
ATOM     26  H81 UNL     1       0.771  -7.790   2.822  1.00  0.00     0.280 HD
BRANCH  24  27
HETATM   27  C15 UNL     1       0.247  -9.363   1.618  1.00  0.00     0.420 C 
BRANCH  27  28
HETATM   28  O1  UNL     1       1.358 -10.038   1.185  1.00  0.00    -0.362 OA
ATOM     29  H1  UNL     1       1.613 -10.746   1.765  1.00  0.00     0.212 HD
ENDBRANCH  27  28
BRANCH  27  30
HETATM   30  C16 UNL     1      -0.199  -8.294   0.650  1.00  0.00     0.331 C 
HETATM   31  O2  UNL     1       0.583  -7.838  -0.235  1.00  0.00    -0.259 OA
BRANCH  30  32
HETATM   32  O3  UNL     1      -1.459  -7.864   0.787  1.00  0.00    -0.175 OA
BRANCH  32  33
HETATM   33  S1  UNL     1      -2.050  -6.171   0.200  1.00  0.00     0.399 S 
HETATM   34  O4  UNL     1      -3.176  -5.110   0.432  1.00  0.00    -0.174 OA
HETATM   35  F1  UNL     1      -0.825  -5.439   0.759  1.00  0.00    -0.090 F 
HETATM   36  F2  UNL     1      -3.287  -6.879   2.101  1.00  0.00    -0.090 F 
ENDBRANCH  32  33
ENDBRANCH  30  32
ENDBRANCH  27  30
ENDBRANCH  24  27
ENDBRANCH  23  24
ENDBRANCH  18  23
ENDBRANCH  17  18
ENDBRANCH  16  17
ENDBRANCH  12  16
BRANCH   1  37
HETATM   37  C7  UNL     1       8.287  -4.124   3.525  1.00  0.00     0.090 A 
HETATM   38  C6  UNL     1       9.548  -3.876   3.946  1.00  0.00     0.045 A 
HETATM   39  C1  UNL     1      10.785  -4.216   3.405  1.00  0.00     0.082 A 
HETATM   40  C5  UNL     1       9.510  -3.151   5.105  1.00  0.00     0.066 A 
HETATM   41  N1  UNL     1      10.852  -4.967   2.197  1.00  0.00    -0.100 NA
HETATM   42  C2  UNL     1      11.955  -3.824   4.032  1.00  0.00     0.060 A 
HETATM   43 CL1  UNL     1      13.533  -4.213   3.401  1.00  0.00    -0.082 Cl
HETATM   44  C3  UNL     1      11.897  -3.088   5.206  1.00  0.00     0.052 A 
HETATM   45  C4  UNL     1      10.675  -2.753   5.742  1.00  0.00     0.063 A 
HETATM   46 CL2  UNL     1      10.615  -1.833   7.230  1.00  0.00    -0.082 Cl
HETATM   47  N11 UNL     1       8.303  -2.918   5.470  1.00  0.00    -0.356 N 
HETATM   48  C18 UNL     1       7.388  -3.511   4.526  1.00  0.00     0.334 A 
ATOM     49  H11 UNL     1       8.031  -2.394   6.302  1.00  0.00     0.162 HD
BRANCH  48  50
HETATM   50  N10 UNL     1       6.677  -2.441   3.868  1.00  0.00    -0.053 N 
ATOM     51 3H10 UNL     1       7.065  -1.520   4.072  1.00  0.00     0.277 HD
ATOM     52 2H10 UNL     1       6.823  -2.427   2.859  1.00  0.00     0.277 HD
ATOM     53 1H10 UNL     1       5.693  -2.524   4.127  1.00  0.00     0.277 HD
ENDBRANCH  48  50
ENDBRANCH   1  37
TORSDOF 13
ENDMDL
MODEL 3
REMARK VINA RESULT: -6.050344983      1.371      1.620
REMARK  13 active torsions:
REMARK  status: ('A' for Active; 'I' for Inactive)
REMARK    1  A    between atoms: C7_10  and  N2_11 
REMARK    2  A    between atoms: C11_22  and  N6_23 
REMARK    3  A    between atoms: N6_23  and  C12_24 
REMARK    4  A    between atoms: C12_24  and  C13_25 
REMARK    5  A    between atoms: C13_25  and  N7_26 
REMARK    6  A    between atoms: C13_25  and  C14_30 
REMARK    7  A    between atoms: C14_30  and  N8_31 
REMARK    8  A    between atoms: N8_31  and  C15_34 
REMARK    9  A    between atoms: C15_34  and  O1_35 
REMARK   10  A    between atoms: C15_34  and  C16_37 
REMARK   11  A    between atoms: C16_37  and  O3_39 
REMARK   12  A    between atoms: O3_39  and  S1_40 
REMARK   13  A    between atoms: C18_47  and  N10_48 
ROOT
HETATM    1  N2  UNL     1       5.826  -8.255  -0.256  1.00  0.00    -0.190 N 
ATOM      2  H2  UNL     1       5.901  -8.338  -1.270  1.00  0.00     0.184 HD
HETATM    3  C8  UNL     1       4.634  -8.231   0.160  1.00  0.00     0.685 A 
HETATM    4  N3  UNL     1       3.598  -8.312  -0.740  1.00  0.00    -0.174 N 
ATOM      5  H3  UNL     1       3.693  -8.397  -1.752  1.00  0.00     0.186 HD
HETATM    6  C9  UNL     1       2.450  -8.260  -0.067  1.00  0.00     0.154 A 
HETATM    7  N4  UNL     1       1.157  -8.297  -0.482  1.00  0.00    -0.336 N 
ATOM      8  H4  UNL     1       0.951  -8.386  -1.477  1.00  0.00     0.168 HD
HETATM    9  C10 UNL     1       0.147  -8.220   0.395  1.00  0.00     0.184 A 
HETATM   10  N5  UNL     1       0.390  -8.107   1.693  1.00  0.00    -0.325 N 
ATOM     11  H5  UNL     1      -0.398  -8.050   2.339  1.00  0.00     0.169 HD
HETATM   12  C11 UNL     1       1.667  -8.063   2.198  1.00  0.00     0.210 A 
HETATM   13  C17 UNL     1       2.717  -8.144   1.272  1.00  0.00     0.151 A 
HETATM   14  N9  UNL     1       4.064  -8.129   1.371  1.00  0.00    -0.183 N 
ATOM     15  H9  UNL     1       4.579  -8.051   2.248  1.00  0.00     0.184 HD
ENDROOT
BRANCH  12  16
HETATM   16  N6  UNL     1       1.819  -7.943   3.369  1.00  0.00    -0.399 NA
BRANCH  16  17
HETATM   17  C12 UNL     1       1.986  -7.813   4.693  1.00  0.00     0.192 C 
BRANCH  17  18
HETATM   18  C13 UNL     1       3.383  -7.431   5.165  1.00  0.00     0.260 C 
BRANCH  18  19
HETATM   19  N7  UNL     1       4.390  -8.387   4.843  1.00  0.00    -0.068 N 
ATOM     20  H73 UNL     1       4.366  -8.611   3.848  1.00  0.00     0.275 HD
ATOM     21  H72 UNL     1       5.317  -7.964   4.903  1.00  0.00     0.275 HD
ATOM     22  H71 UNL     1       4.350  -9.240   5.401  1.00  0.00     0.275 HD
ENDBRANCH  18  19
BRANCH  18  23
HETATM   23  C14 UNL     1       3.762  -6.016   4.832  1.00  0.00     0.275 C 
BRANCH  23  24
HETATM   24  N8  UNL     1       4.929  -6.034   3.970  1.00  0.00    -0.037 N 
ATOM     25  H82 UNL     1       5.790  -6.234   4.480  1.00  0.00     0.280 HD
ATOM     26  H81 UNL     1       4.944  -6.842   3.349  1.00  0.00     0.280 HD
BRANCH  24  27
HETATM   27  C15 UNL     1       4.989  -4.796   3.260  1.00  0.00     0.420 C 
BRANCH  27  28
HETATM   28  O1  UNL     1       4.957  -4.957   1.900  1.00  0.00    -0.362 OA
ATOM     29  H1  UNL     1       5.014  -5.866   1.632  1.00  0.00     0.212 HD
ENDBRANCH  27  28
BRANCH  27  30
HETATM   30  C16 UNL     1       6.217  -4.053   3.730  1.00  0.00     0.331 C 
HETATM   31  O2  UNL     1       7.319  -4.147   3.116  1.00  0.00    -0.259 OA
BRANCH  30  32
HETATM   32  O3  UNL     1       6.065  -3.299   4.825  1.00  0.00    -0.175 OA
BRANCH  32  33
HETATM   33  S1  UNL     1       7.374  -3.152   6.176  1.00  0.00     0.399 S 
HETATM   34  O4  UNL     1       8.057  -2.110   7.122  1.00  0.00    -0.174 OA
HETATM   35  F1  UNL     1       6.576  -3.993   7.178  1.00  0.00    -0.090 F 
HETATM   36  F2  UNL     1       6.166  -1.118   5.953  1.00  0.00    -0.090 F 
ENDBRANCH  32  33
ENDBRANCH  30  32
ENDBRANCH  27  30
ENDBRANCH  24  27
ENDBRANCH  23  24
ENDBRANCH  18  23
ENDBRANCH  17  18
ENDBRANCH  16  17
ENDBRANCH  12  16
BRANCH   1  37
HETATM   37  C7  UNL     1       7.050  -8.193   0.382  1.00  0.00     0.090 A 
HETATM   38  C6  UNL     1       8.064  -9.044   0.108  1.00  0.00     0.045 A 
HETATM   39  C1  UNL     1       8.161 -10.106  -0.788  1.00  0.00     0.082 A 
HETATM   40  C5  UNL     1       9.149  -8.729   0.880  1.00  0.00     0.066 A 
HETATM   41  N1  UNL     1       7.048 -10.452  -1.606  1.00  0.00    -0.100 NA
HETATM   42  C2  UNL     1       9.337 -10.828  -0.893  1.00  0.00     0.060 A 
HETATM   43 CL1  UNL     1       9.522 -12.163  -1.998  1.00  0.00    -0.082 Cl
HETATM   44  C3  UNL     1      10.427 -10.494  -0.101  1.00  0.00     0.052 A 
HETATM   45  C4  UNL     1      10.331  -9.446   0.784  1.00  0.00     0.063 A 
HETATM   46 CL2  UNL     1      11.710  -9.040   1.784  1.00  0.00    -0.082 Cl
HETATM   47  N11 UNL     1       8.901  -7.732   1.647  1.00  0.00    -0.356 N 
HETATM   48  C18 UNL     1       7.547  -7.280   1.434  1.00  0.00     0.334 A 
ATOM     49  H11 UNL     1       9.560  -7.320   2.307  1.00  0.00     0.162 HD
BRANCH  48  50
HETATM   50  N10 UNL     1       7.608  -5.956   0.862  1.00  0.00    -0.053 N 
ATOM     51 3H10 UNL     1       7.094  -5.877  -0.015  1.00  0.00     0.277 HD
ATOM     52 2H10 UNL     1       7.074  -5.268   1.393  1.00  0.00     0.277 HD
ATOM     53 1H10 UNL     1       8.594  -5.709   0.769  1.00  0.00     0.277 HD
ENDBRANCH  48  50
ENDBRANCH   1  37
TORSDOF 13
ENDMDL
MODEL 4
REMARK VINA RESULT: -5.825780883      3.593      6.785
REMARK  13 active torsions:
REMARK  status: ('A' for Active; 'I' for Inactive)
REMARK    1  A    between atoms: C7_10  and  N2_11 
REMARK    2  A    between atoms: C11_22  and  N6_23 
REMARK    3  A    between atoms: N6_23  and  C12_24 
REMARK    4  A    between atoms: C12_24  and  C13_25 
REMARK    5  A    between atoms: C13_25  and  N7_26 
REMARK    6  A    between atoms: C13_25  and  C14_30 
REMARK    7  A    between atoms: C14_30  and  N8_31 
REMARK    8  A    between atoms: N8_31  and  C15_34 
REMARK    9  A    between atoms: C15_34  and  O1_35 
REMARK   10  A    between atoms: C15_34  and  C16_37 
REMARK   11  A    between atoms: C16_37  and  O3_39 
REMARK   12  A    between atoms: O3_39  and  S1_40 
REMARK   13  A    between atoms: C18_47  and  N10_48 
ROOT
HETATM    1  N2  UNL     1       2.691  -7.930   0.252  1.00  0.00    -0.190 N 
ATOM      2  H2  UNL     1       2.138  -7.387  -0.412  1.00  0.00     0.184 HD
HETATM    3  C8  UNL     1       3.773  -8.365  -0.233  1.00  0.00     0.685 A 
HETATM    4  N3  UNL     1       4.093  -8.086  -1.540  1.00  0.00    -0.174 N 
ATOM      5  H3  UNL     1       3.528  -7.538  -2.189  1.00  0.00     0.186 HD
HETATM    6  C9  UNL     1       5.267  -8.652  -1.816  1.00  0.00     0.154 A 
HETATM    7  N4  UNL     1       6.012  -8.679  -2.952  1.00  0.00    -0.336 N 
ATOM      8  H4  UNL     1       5.677  -8.193  -3.784  1.00  0.00     0.168 HD
HETATM    9  C10 UNL     1       7.180  -9.333  -2.997  1.00  0.00     0.184 A 
HETATM   10  N5  UNL     1       7.637  -9.970  -1.928  1.00  0.00    -0.325 N 
ATOM     11  H5  UNL     1       8.529 -10.460  -1.990  1.00  0.00     0.169 HD
HETATM   12  C11 UNL     1       6.947  -9.993  -0.740  1.00  0.00     0.210 A 
HETATM   13  C17 UNL     1       5.725  -9.305  -0.703  1.00  0.00     0.151 A 
HETATM   14  N9  UNL     1       4.784  -9.107   0.245  1.00  0.00    -0.183 N 
ATOM     15  H9  UNL     1       4.835  -9.472   1.196  1.00  0.00     0.184 HD
ENDROOT
BRANCH  12  16
HETATM   16  N6  UNL     1       7.400 -10.596   0.177  1.00  0.00    -0.399 NA
BRANCH  16  17
HETATM   17  C12 UNL     1       7.908 -11.272   1.217  1.00  0.00     0.192 C 
BRANCH  17  18
HETATM   18  C13 UNL     1       9.181 -10.707   1.835  1.00  0.00     0.260 C 
BRANCH  18  19
HETATM   19  N7  UNL     1      10.220 -10.447   0.895  1.00  0.00    -0.068 N 
ATOM     20  H73 UNL     1      10.090 -11.010   0.054  1.00  0.00     0.275 HD
ATOM     21  H72 UNL     1      10.116  -9.513   0.497  1.00  0.00     0.275 HD
ATOM     22  H71 UNL     1      11.161 -10.574   1.267  1.00  0.00     0.275 HD
ENDBRANCH  18  19
BRANCH  18  23
HETATM   23  C14 UNL     1       8.933  -9.577   2.792  1.00  0.00     0.275 C 
BRANCH  23  24
HETATM   24  N8  UNL     1       8.558  -8.397   2.037  1.00  0.00    -0.037 N 
ATOM     25  H82 UNL     1       9.309  -7.709   1.987  1.00  0.00     0.280 HD
ATOM     26  H81 UNL     1       8.472  -8.583   1.038  1.00  0.00     0.280 HD
BRANCH  24  27
HETATM   27  C15 UNL     1       7.360  -7.859   2.599  1.00  0.00     0.420 C 
BRANCH  27  28
HETATM   28  O1  UNL     1       6.396  -8.808   2.816  1.00  0.00    -0.362 OA
ATOM     29  H1  UNL     1       5.671  -8.748   2.206  1.00  0.00     0.212 HD
ENDBRANCH  27  28
BRANCH  27  30
HETATM   30  C16 UNL     1       6.887  -6.744   1.697  1.00  0.00     0.331 C 
HETATM   31  O2  UNL     1       7.469  -6.492   0.601  1.00  0.00    -0.259 OA
BRANCH  30  32
HETATM   32  O3  UNL     1       5.827  -6.049   2.125  1.00  0.00    -0.175 OA
BRANCH  32  33
HETATM   33  S1  UNL     1       5.922  -4.733   3.474  1.00  0.00     0.399 S 
HETATM   34  O4  UNL     1       5.219  -3.429   3.975  1.00  0.00    -0.174 OA
HETATM   35  F1  UNL     1       5.570  -5.716   4.596  1.00  0.00    -0.090 F 
HETATM   36  F2  UNL     1       3.931  -4.488   2.201  1.00  0.00    -0.090 F 
ENDBRANCH  32  33
ENDBRANCH  30  32
ENDBRANCH  27  30
ENDBRANCH  24  27
ENDBRANCH  23  24
ENDBRANCH  18  23
ENDBRANCH  17  18
ENDBRANCH  16  17
ENDBRANCH  12  16
BRANCH   1  37
HETATM   37  C7  UNL     1       2.103  -8.039   1.497  1.00  0.00     0.090 A 
HETATM   38  C6  UNL     1       1.006  -8.795   1.727  1.00  0.00     0.045 A 
HETATM   39  C1  UNL     1       0.238  -9.589   0.878  1.00  0.00     0.082 A 
HETATM   40  C5  UNL     1       0.667  -8.721   3.050  1.00  0.00     0.066 A 
HETATM   41  N1  UNL     1       0.573  -9.687  -0.502  1.00  0.00    -0.100 NA
HETATM   42  C2  UNL     1      -0.849 -10.289   1.370  1.00  0.00     0.060 A 
HETATM   43 CL1  UNL     1      -1.845 -11.304   0.360  1.00  0.00    -0.082 Cl
HETATM   44  C3  UNL     1      -1.179 -10.202   2.715  1.00  0.00     0.052 A 
HETATM   45  C4  UNL     1      -0.421  -9.417   3.553  1.00  0.00     0.063 A 
HETATM   46 CL2  UNL     1      -0.852  -9.307   5.246  1.00  0.00    -0.082 Cl
HETATM   47  N11 UNL     1       1.469  -7.955   3.694  1.00  0.00    -0.356 N 
HETATM   48  C18 UNL     1       2.463  -7.426   2.794  1.00  0.00     0.334 A 
ATOM     49  H11 UNL     1       1.412  -7.752   4.692  1.00  0.00     0.162 HD
BRANCH  48  50
HETATM   50  N10 UNL     1       3.744  -7.964   3.184  1.00  0.00    -0.053 N 
ATOM     51 3H10 UNL     1       3.846  -8.058   4.194  1.00  0.00     0.277 HD
ATOM     52 2H10 UNL     1       3.850  -8.951   2.948  1.00  0.00     0.277 HD
ATOM     53 1H10 UNL     1       4.464  -7.375   2.764  1.00  0.00     0.277 HD
ENDBRANCH  48  50
ENDBRANCH   1  37
TORSDOF 13
ENDMDL
MODEL 5
REMARK VINA RESULT: -5.805367951      3.341      5.410
REMARK  13 active torsions:
REMARK  status: ('A' for Active; 'I' for Inactive)
REMARK    1  A    between atoms: C7_10  and  N2_11 
REMARK    2  A    between atoms: C11_22  and  N6_23 
REMARK    3  A    between atoms: N6_23  and  C12_24 
REMARK    4  A    between atoms: C12_24  and  C13_25 
REMARK    5  A    between atoms: C13_25  and  N7_26 
REMARK    6  A    between atoms: C13_25  and  C14_30 
REMARK    7  A    between atoms: C14_30  and  N8_31 
REMARK    8  A    between atoms: N8_31  and  C15_34 
REMARK    9  A    between atoms: C15_34  and  O1_35 
REMARK   10  A    between atoms: C15_34  and  C16_37 
REMARK   11  A    between atoms: C16_37  and  O3_39 
REMARK   12  A    between atoms: O3_39  and  S1_40 
REMARK   13  A    between atoms: C18_47  and  N10_48 
ROOT
HETATM    1  N2  UNL     1       5.830  -5.715   5.250  1.00  0.00    -0.190 N 
ATOM      2  H2  UNL     1       6.173  -5.752   6.210  1.00  0.00     0.184 HD
HETATM    3  C8  UNL     1       4.756  -6.357   5.075  1.00  0.00     0.685 A 
HETATM    4  N3  UNL     1       4.176  -7.014   6.134  1.00  0.00    -0.174 N 
ATOM      5  H3  UNL     1       4.534  -7.037   7.089  1.00  0.00     0.186 HD
HETATM    6  C9  UNL     1       3.069  -7.615   5.702  1.00  0.00     0.154 A 
HETATM    7  N4  UNL     1       2.150  -8.384   6.341  1.00  0.00    -0.336 N 
ATOM      8  H4  UNL     1       2.261  -8.574   7.338  1.00  0.00     0.168 HD
HETATM    9  C10 UNL     1       1.101  -8.897   5.685  1.00  0.00     0.184 A 
HETATM   10  N5  UNL     1       0.936  -8.662   4.391  1.00  0.00    -0.325 N 
ATOM     11  H5  UNL     1       0.128  -9.066   3.916  1.00  0.00     0.169 HD
HETATM   12  C11 UNL     1       1.817  -7.894   3.669  1.00  0.00     0.210 A 
HETATM   13  C17 UNL     1       2.912  -7.362   4.365  1.00  0.00     0.151 A 
HETATM   14  N9  UNL     1       3.964  -6.589   4.017  1.00  0.00    -0.183 N 
ATOM     15  H9  UNL     1       4.133  -6.231   3.077  1.00  0.00     0.184 HD
ENDROOT
BRANCH  12  16
HETATM   16  N6  UNL     1       1.624  -7.735   2.508  1.00  0.00    -0.399 NA
BRANCH  16  17
HETATM   17  C12 UNL     1       1.410  -7.548   1.198  1.00  0.00     0.192 C 
BRANCH  17  18
HETATM   18  C13 UNL     1       1.937  -8.631   0.265  1.00  0.00     0.260 C 
BRANCH  18  19
HETATM   19  N7  UNL     1       1.010  -9.038  -0.739  1.00  0.00    -0.068 N 
ATOM     20  H73 UNL     1       0.138  -8.515  -0.653  1.00  0.00     0.275 HD
ATOM     21  H72 UNL     1       1.316  -8.716  -1.658  1.00  0.00     0.275 HD
ATOM     22  H71 UNL     1       0.825 -10.041  -0.754  1.00  0.00     0.275 HD
ENDBRANCH  18  19
BRANCH  18  23
HETATM   23  C14 UNL     1       3.315  -8.350  -0.261  1.00  0.00     0.275 C 
BRANCH  23  24
HETATM   24  N8  UNL     1       4.062  -7.620   0.747  1.00  0.00    -0.037 N 
ATOM     25  H82 UNL     1       4.188  -6.637   0.505  1.00  0.00     0.280 HD
ATOM     26  H81 UNL     1       3.530  -7.486   1.606  1.00  0.00     0.280 HD
BRANCH  24  27
HETATM   27  C15 UNL     1       5.303  -8.292   0.970  1.00  0.00     0.420 C 
BRANCH  27  28
HETATM   28  O1  UNL     1       5.519  -8.593   2.289  1.00  0.00    -0.362 OA
ATOM     29  H1  UNL     1       5.132  -9.421   2.549  1.00  0.00     0.212 HD
ENDBRANCH  27  28
BRANCH  27  30
HETATM   30  C16 UNL     1       6.401  -7.441   0.379  1.00  0.00     0.331 C 
HETATM   31  O2  UNL     1       6.458  -6.195   0.597  1.00  0.00    -0.259 OA
BRANCH  30  32
HETATM   32  O3  UNL     1       7.298  -8.081  -0.379  1.00  0.00    -0.175 OA
BRANCH  32  33
HETATM   33  S1  UNL     1       7.665  -9.925  -0.224  1.00  0.00     0.399 S 
HETATM   34  O4  UNL     1       7.253 -11.317  -0.805  1.00  0.00    -0.174 OA
HETATM   35  F1  UNL     1       9.095  -9.786  -0.756  1.00  0.00    -0.090 F 
HETATM   36  F2  UNL     1       6.252  -9.505  -2.087  1.00  0.00    -0.090 F 
ENDBRANCH  32  33
ENDBRANCH  30  32
ENDBRANCH  27  30
ENDBRANCH  24  27
ENDBRANCH  23  24
ENDBRANCH  18  23
ENDBRANCH  17  18
ENDBRANCH  16  17
ENDBRANCH  12  16
BRANCH   1  37
HETATM   37  C7  UNL     1       6.635  -4.973   4.407  1.00  0.00     0.090 A 
HETATM   38  C6  UNL     1       7.669  -5.508   3.721  1.00  0.00     0.045 A 
HETATM   39  C1  UNL     1       8.169  -6.808   3.670  1.00  0.00     0.082 A 
HETATM   40  C5  UNL     1       8.266  -4.541   2.961  1.00  0.00     0.066 A 
HETATM   41  N1  UNL     1       7.563  -7.835   4.448  1.00  0.00    -0.100 NA
HETATM   42  C2  UNL     1       9.251  -7.110   2.862  1.00  0.00     0.060 A 
HETATM   43 CL1  UNL     1       9.918  -8.717   2.751  1.00  0.00    -0.082 Cl
HETATM   44  C3  UNL     1       9.844  -6.115   2.098  1.00  0.00     0.052 A 
HETATM   45  C4  UNL     1       9.351  -4.831   2.149  1.00  0.00     0.063 A 
HETATM   46 CL2  UNL     1      10.113  -3.582   1.188  1.00  0.00    -0.082 Cl
HETATM   47  N11 UNL     1       7.690  -3.405   3.117  1.00  0.00    -0.356 N 
HETATM   48  C18 UNL     1       6.601  -3.538   4.053  1.00  0.00     0.334 A 
ATOM     49  H11 UNL     1       7.961  -2.540   2.650  1.00  0.00     0.162 HD
BRANCH  48  50
HETATM   50  N10 UNL     1       5.371  -3.299   3.336  1.00  0.00    -0.053 N 
ATOM     51 3H10 UNL     1       4.765  -4.119   3.300  1.00  0.00     0.277 HD
ATOM     52 2H10 UNL     1       4.731  -2.683   3.837  1.00  0.00     0.277 HD
ATOM     53 1H10 UNL     1       5.620  -2.948   2.411  1.00  0.00     0.277 HD
ENDBRANCH  48  50
ENDBRANCH   1  37
TORSDOF 13
ENDMDL
