MODEL 1
REMARK VINA RESULT: -6.463344500      0.000      0.000
REMARK  9 active torsions:
REMARK  status: ('A' for Active; 'I' for Inactive)
REMARK    1  A    between atoms: N1_1  and  C1_5 
REMARK    2  A    between atoms: C1_5  and  C2_6 
REMARK    3  A    between atoms: C1_5  and  C3_9 
REMARK    4  A    between atoms: C2_6  and  O1_7 
REMARK    5  A    between atoms: C3_9  and  C4_11 
REMARK    6  A    between atoms: C5_14  and  N3_15 
REMARK    7  A    between atoms: N3_15  and  C6_16 
REMARK    8  A    between atoms: C9_23  and  N6_24 
REMARK    9  A    between atoms: N7_29  and  N8_30 
ROOT
HETATM    1  C4  UNL     1      39.813  36.830  36.301  1.00  0.00     0.181 A 
HETATM    2  N2  UNL     1      40.850  37.550  36.746  1.00  0.00    -0.310 N 
ATOM      3  H2  UNL     1      41.521  37.097  37.367  1.00  0.00     0.170 HD
HETATM    4  C5  UNL     1      41.058  38.864  36.411  1.00  0.00     0.223 A 
HETATM    5  C9  UNL     1      40.076  39.394  35.552  1.00  0.00     0.230 A 
HETATM    6  C10 UNL     1      39.017  38.647  35.103  1.00  0.00     0.306 A 
HETATM    7  O5  UNL     1      38.157  39.172  34.327  1.00  0.00    -0.263 OA
HETATM    8  N7  UNL     1      38.882  37.367  35.473  1.00  0.00    -0.204 N 
ENDROOT
BRANCH   1   9
HETATM    9  C3  UNL     1      39.631  35.446  36.703  1.00  0.00     0.227 C 
HETATM   10  O2  UNL     1      38.689  35.166  37.489  1.00  0.00    -0.287 OA
BRANCH   9  11
HETATM   11  C1  UNL     1      40.488  34.333  36.246  1.00  0.00     0.284 C 
BRANCH  11  12
HETATM   12  N1  UNL     1      40.484  33.264  37.245  1.00  0.00    -0.066 N 
ATOM     13  H13 UNL     1      40.160  32.362  36.897  1.00  0.00     0.275 HD
ATOM     14  H12 UNL     1      41.411  32.943  37.524  1.00  0.00     0.275 HD
ATOM     15  H11 UNL     1      39.923  33.652  38.003  1.00  0.00     0.275 HD
ENDBRANCH  11  12
BRANCH  11  16
HETATM   16  C2  UNL     1      39.932  33.647  34.989  1.00  0.00     0.205 C 
BRANCH  16  17
HETATM   17  O1  UNL     1      38.606  33.878  34.769  1.00  0.00    -0.398 OA
ATOM     18  H1  UNL     1      38.254  33.427  34.010  1.00  0.00     0.209 HD
ENDBRANCH  16  17
ENDBRANCH  11  16
ENDBRANCH   9  11
ENDBRANCH   1   9
BRANCH   8  19
HETATM   19  N8  UNL     1      37.799  36.607  35.012  1.00  0.00    -0.334 N 
ATOM     20  H82 UNL     1      37.679  35.641  35.320  1.00  0.00     0.177 HD
ATOM     21  H81 UNL     1      37.118  37.001  34.364  1.00  0.00     0.177 HD
ENDBRANCH   8  19
BRANCH   4  22
HETATM   22  N3  UNL     1      42.054  39.579  36.839  1.00  0.00    -0.350 NA
BRANCH  22  23
HETATM   23  C6  UNL     1      42.971  40.249  37.239  1.00  0.00     0.253 C 
HETATM   24  N4  UNL     1      44.340  40.365  36.815  1.00  0.00    -0.349 N 
HETATM   25  C7  UNL     1      45.115  40.794  37.936  1.00  0.00     0.143 C 
ATOM     26  H4  UNL     1      44.696  40.175  35.878  1.00  0.00     0.163 HD
HETATM   27  C8  UNL     1      44.180  41.361  38.948  1.00  0.00     0.143 C 
HETATM   28  N5  UNL     1      42.883  41.194  38.351  1.00  0.00    -0.349 N 
ATOM     29  H5  UNL     1      42.031  41.663  38.658  1.00  0.00     0.163 HD
ENDBRANCH  22  23
ENDBRANCH   4  22
BRANCH   5  30
HETATM   30  N6  UNL     1      40.215  40.744  35.163  1.00  0.00    -0.105 N 
HETATM   31  O3  UNL     1      40.831  41.057  34.136  1.00  0.00    -0.531 OA
HETATM   32  O4  UNL     1      39.657  41.723  35.934  1.00  0.00    -0.531 OA
ENDBRANCH   5  30
TORSDOF 9
ENDMDL
MODEL 2
REMARK VINA RESULT: -6.099598950      3.568      7.368
REMARK  9 active torsions:
REMARK  status: ('A' for Active; 'I' for Inactive)
REMARK    1  A    between atoms: N1_1  and  C1_5 
REMARK    2  A    between atoms: C1_5  and  C2_6 
REMARK    3  A    between atoms: C1_5  and  C3_9 
REMARK    4  A    between atoms: C2_6  and  O1_7 
REMARK    5  A    between atoms: C3_9  and  C4_11 
REMARK    6  A    between atoms: C5_14  and  N3_15 
REMARK    7  A    between atoms: N3_15  and  C6_16 
REMARK    8  A    between atoms: C9_23  and  N6_24 
REMARK    9  A    between atoms: N7_29  and  N8_30 
ROOT
HETATM    1  C4  UNL     1      38.343  39.866  35.718  1.00  0.00     0.181 A 
HETATM    2  N2  UNL     1      38.100  39.568  34.436  1.00  0.00    -0.310 N 
ATOM      3  H2  UNL     1      37.823  40.323  33.808  1.00  0.00     0.170 HD
HETATM    4  C5  UNL     1      38.203  38.299  33.922  1.00  0.00     0.223 A 
HETATM    5  C9  UNL     1      38.589  37.332  34.869  1.00  0.00     0.230 A 
HETATM    6  C10 UNL     1      38.835  37.649  36.180  1.00  0.00     0.306 A 
HETATM    7  O5  UNL     1      39.183  36.739  36.997  1.00  0.00    -0.263 OA
HETATM    8  N7  UNL     1      38.715  38.913  36.608  1.00  0.00    -0.204 N 
ENDROOT
BRANCH   1   9
HETATM    9  C3  UNL     1      38.202  41.224  36.214  1.00  0.00     0.227 C 
HETATM   10  O2  UNL     1      39.237  41.849  36.562  1.00  0.00    -0.287 OA
BRANCH   9  11
HETATM   11  C1  UNL     1      36.909  41.929  36.339  1.00  0.00     0.284 C 
BRANCH  11  12
HETATM   12  N1  UNL     1      36.385  41.763  37.694  1.00  0.00    -0.066 N 
ATOM     13  H13 UNL     1      37.000  41.252  38.326  1.00  0.00     0.275 HD
ATOM     14  H12 UNL     1      36.358  42.622  38.245  1.00  0.00     0.275 HD
ATOM     15  H11 UNL     1      35.475  41.328  37.543  1.00  0.00     0.275 HD
ENDBRANCH  11  12
BRANCH  11  16
HETATM   16  C2  UNL     1      37.059  43.451  36.199  1.00  0.00     0.205 C 
BRANCH  16  17
HETATM   17  O1  UNL     1      37.745  44.039  37.221  1.00  0.00    -0.398 OA
ATOM     18  H1  UNL     1      37.193  44.479  37.857  1.00  0.00     0.209 HD
ENDBRANCH  16  17
ENDBRANCH  11  16
ENDBRANCH   9  11
ENDBRANCH   1   9
BRANCH   8  19
HETATM   19  N8  UNL     1      38.969  39.233  37.949  1.00  0.00    -0.334 N 
ATOM     20  H82 UNL     1      38.210  39.539  38.558  1.00  0.00     0.177 HD
ATOM     21  H81 UNL     1      39.910  39.168  38.336  1.00  0.00     0.177 HD
ENDBRANCH   8  19
BRANCH   4  22
HETATM   22  N3  UNL     1      37.962  37.991  32.683  1.00  0.00    -0.350 NA
BRANCH  22  23
HETATM   23  C6  UNL     1      37.732  37.713  31.535  1.00  0.00     0.253 C 
HETATM   24  N4  UNL     1      38.546  37.751  30.350  1.00  0.00    -0.349 N 
HETATM   25  C7  UNL     1      37.681  37.915  29.225  1.00  0.00     0.143 C 
ATOM     26  H4  UNL     1      39.562  37.673  30.318  1.00  0.00     0.163 HD
HETATM   27  C8  UNL     1      36.301  37.551  29.653  1.00  0.00     0.143 C 
HETATM   28  N5  UNL     1      36.447  37.220  31.044  1.00  0.00    -0.349 N 
ATOM     29  H5  UNL     1      35.758  36.718  31.604  1.00  0.00     0.163 HD
ENDBRANCH  22  23
ENDBRANCH   4  22
BRANCH   5  30
HETATM   30  N6  UNL     1      38.713  35.999  34.420  1.00  0.00    -0.105 N 
HETATM   31  O3  UNL     1      39.814  35.522  34.117  1.00  0.00    -0.531 OA
HETATM   32  O4  UNL     1      37.596  35.220  34.322  1.00  0.00    -0.531 OA
ENDBRANCH   5  30
TORSDOF 9
ENDMDL
MODEL 3
REMARK VINA RESULT: -5.632556333      1.036      1.117
REMARK  9 active torsions:
REMARK  status: ('A' for Active; 'I' for Inactive)
REMARK    1  A    between atoms: N1_1  and  C1_5 
REMARK    2  A    between atoms: C1_5  and  C2_6 
REMARK    3  A    between atoms: C1_5  and  C3_9 
REMARK    4  A    between atoms: C2_6  and  O1_7 
REMARK    5  A    between atoms: C3_9  and  C4_11 
REMARK    6  A    between atoms: C5_14  and  N3_15 
REMARK    7  A    between atoms: N3_15  and  C6_16 
REMARK    8  A    between atoms: C9_23  and  N6_24 
REMARK    9  A    between atoms: N7_29  and  N8_30 
ROOT
HETATM    1  C4  UNL     1      39.562  36.929  36.279  1.00  0.00     0.181 A 
HETATM    2  N2  UNL     1      40.641  37.597  36.707  1.00  0.00    -0.310 N 
ATOM      3  H2  UNL     1      41.297  37.113  37.321  1.00  0.00     0.170 HD
HETATM    4  C5  UNL     1      40.910  38.898  36.362  1.00  0.00     0.223 A 
HETATM    5  C9  UNL     1      39.945  39.473  35.513  1.00  0.00     0.230 A 
HETATM    6  C10 UNL     1      38.844  38.778  35.082  1.00  0.00     0.306 A 
HETATM    7  O5  UNL     1      38.000  39.342  34.316  1.00  0.00    -0.263 OA
HETATM    8  N7  UNL     1      38.649  37.508  35.461  1.00  0.00    -0.204 N 
ENDROOT
BRANCH   1   9
HETATM    9  C3  UNL     1      39.316  35.557  36.690  1.00  0.00     0.227 C 
HETATM   10  O2  UNL     1      38.811  35.350  37.823  1.00  0.00    -0.287 OA
BRANCH   9  11
HETATM   11  C1  UNL     1      39.623  34.376  35.858  1.00  0.00     0.284 C 
BRANCH  11  12
HETATM   12  N1  UNL     1      39.964  34.802  34.501  1.00  0.00    -0.066 N 
ATOM     13  H13 UNL     1      39.964  34.052  33.810  1.00  0.00     0.275 HD
ATOM     14  H12 UNL     1      39.249  35.368  34.043  1.00  0.00     0.275 HD
ATOM     15  H11 UNL     1      40.863  35.270  34.619  1.00  0.00     0.275 HD
ENDBRANCH  11  12
BRANCH  11  16
HETATM   16  C2  UNL     1      40.889  33.645  36.329  1.00  0.00     0.205 C 
BRANCH  16  17
HETATM   17  O1  UNL     1      40.922  33.395  37.669  1.00  0.00    -0.398 OA
ATOM     18  H1  UNL     1      40.098  33.555  38.114  1.00  0.00     0.209 HD
ENDBRANCH  16  17
ENDBRANCH  11  16
ENDBRANCH   9  11
ENDBRANCH   1   9
BRANCH   8  19
HETATM   19  N8  UNL     1      37.523  36.802  35.018  1.00  0.00    -0.334 N 
ATOM     20  H82 UNL     1      36.738  36.635  35.648  1.00  0.00     0.177 HD
ATOM     21  H81 UNL     1      37.468  36.444  34.065  1.00  0.00     0.177 HD
ENDBRANCH   8  19
BRANCH   4  22
HETATM   22  N3  UNL     1      41.947  39.563  36.774  1.00  0.00    -0.350 NA
BRANCH  22  23
HETATM   23  C6  UNL     1      42.909  40.183  37.146  1.00  0.00     0.253 C 
HETATM   24  N4  UNL     1      44.285  40.176  36.727  1.00  0.00    -0.349 N 
HETATM   25  C7  UNL     1      45.085  40.602  37.831  1.00  0.00     0.143 C 
ATOM     26  H4  UNL     1      44.629  39.913  35.804  1.00  0.00     0.163 HD
HETATM   27  C8  UNL     1      44.191  41.287  38.806  1.00  0.00     0.143 C 
HETATM   28  N5  UNL     1      42.887  41.186  38.209  1.00  0.00    -0.349 N 
ATOM     29  H5  UNL     1      42.071  41.732  38.485  1.00  0.00     0.163 HD
ENDBRANCH  22  23
ENDBRANCH   4  22
BRANCH   5  30
HETATM   30  N6  UNL     1      40.147  40.812  35.116  1.00  0.00    -0.105 N 
HETATM   31  O3  UNL     1      40.748  41.089  34.071  1.00  0.00    -0.531 OA
HETATM   32  O4  UNL     1      39.666  41.822  35.900  1.00  0.00    -0.531 OA
ENDBRANCH   5  30
TORSDOF 9
ENDMDL
MODEL 4
REMARK VINA RESULT: -5.580793712      3.083      5.933
REMARK  9 active torsions:
REMARK  status: ('A' for Active; 'I' for Inactive)
REMARK    1  A    between atoms: N1_1  and  C1_5 
REMARK    2  A    between atoms: C1_5  and  C2_6 
REMARK    3  A    between atoms: C1_5  and  C3_9 
REMARK    4  A    between atoms: C2_6  and  O1_7 
REMARK    5  A    between atoms: C3_9  and  C4_11 
REMARK    6  A    between atoms: C5_14  and  N3_15 
REMARK    7  A    between atoms: N3_15  and  C6_16 
REMARK    8  A    between atoms: C9_23  and  N6_24 
REMARK    9  A    between atoms: N7_29  and  N8_30 
ROOT
HETATM    1  C4  UNL     1      39.075  36.312  35.187  1.00  0.00     0.181 A 
HETATM    2  N2  UNL     1      38.464  36.322  33.996  1.00  0.00    -0.310 N 
ATOM      3  H2  UNL     1      38.217  35.427  33.572  1.00  0.00     0.170 HD
HETATM    4  C5  UNL     1      38.153  37.472  33.315  1.00  0.00     0.223 A 
HETATM    5  C9  UNL     1      38.537  38.650  33.984  1.00  0.00     0.230 A 
HETATM    6  C10 UNL     1      39.163  38.628  35.204  1.00  0.00     0.306 A 
HETATM    7  O5  UNL     1      39.489  39.720  35.768  1.00  0.00    -0.263 OA
HETATM    8  N7  UNL     1      39.432  37.463  35.808  1.00  0.00    -0.204 N 
ENDROOT
BRANCH   1   9
HETATM    9  C3  UNL     1      39.397  35.063  35.856  1.00  0.00     0.227 C 
HETATM   10  O2  UNL     1      38.962  34.876  37.021  1.00  0.00    -0.287 OA
BRANCH   9  11
HETATM   11  C1  UNL     1      40.211  33.988  35.254  1.00  0.00     0.284 C 
BRANCH  11  12
HETATM   12  N1  UNL     1      41.040  33.360  36.282  1.00  0.00    -0.066 N 
ATOM     13  H13 UNL     1      40.575  33.233  37.180  1.00  0.00     0.275 HD
ATOM     14  H12 UNL     1      41.234  32.371  36.122  1.00  0.00     0.275 HD
ATOM     15  H11 UNL     1      41.868  33.955  36.313  1.00  0.00     0.275 HD
ENDBRANCH  11  12
BRANCH  11  16
HETATM   16  C2  UNL     1      39.350  32.827  34.733  1.00  0.00     0.205 C 
BRANCH  16  17
HETATM   17  O1  UNL     1      38.971  31.940  35.697  1.00  0.00    -0.398 OA
ATOM     18  H1  UNL     1      39.669  31.368  35.994  1.00  0.00     0.209 HD
ENDBRANCH  16  17
ENDBRANCH  11  16
ENDBRANCH   9  11
ENDBRANCH   1   9
BRANCH   8  19
HETATM   19  N8  UNL     1      40.071  37.444  37.056  1.00  0.00    -0.334 N 
ATOM     20  H82 UNL     1      39.698  37.989  37.834  1.00  0.00     0.177 HD
ATOM     21  H81 UNL     1      40.914  36.890  37.207  1.00  0.00     0.177 HD
ENDBRANCH   8  19
BRANCH   4  22
HETATM   22  N3  UNL     1      37.568  37.500  32.155  1.00  0.00    -0.350 NA
BRANCH  22  23
HETATM   23  C6  UNL     1      37.033  37.518  31.078  1.00  0.00     0.253 C 
HETATM   24  N4  UNL     1      35.649  37.498  30.685  1.00  0.00    -0.349 N 
HETATM   25  C7  UNL     1      35.570  36.935  29.374  1.00  0.00     0.143 C 
ATOM     26  H4  UNL     1      34.863  37.828  31.244  1.00  0.00     0.163 HD
HETATM   27  C8  UNL     1      36.929  36.997  28.768  1.00  0.00     0.143 C 
HETATM   28  N5  UNL     1      37.743  37.577  29.801  1.00  0.00    -0.349 N 
ATOM     29  H5  UNL     1      38.674  37.969  29.665  1.00  0.00     0.163 HD
ENDBRANCH  22  23
ENDBRANCH   4  22
BRANCH   5  30
HETATM   30  N6  UNL     1      38.257  39.878  33.346  1.00  0.00    -0.105 N 
HETATM   31  O3  UNL     1      39.073  40.406  32.580  1.00  0.00    -0.531 OA
HETATM   32  O4  UNL     1      37.060  40.494  33.577  1.00  0.00    -0.531 OA
ENDBRANCH   5  30
TORSDOF 9
ENDMDL
MODEL 5
REMARK VINA RESULT: -5.575365862      2.762      6.874
REMARK  9 active torsions:
REMARK  status: ('A' for Active; 'I' for Inactive)
REMARK    1  A    between atoms: N1_1  and  C1_5 
REMARK    2  A    between atoms: C1_5  and  C2_6 
REMARK    3  A    between atoms: C1_5  and  C3_9 
REMARK    4  A    between atoms: C2_6  and  O1_7 
REMARK    5  A    between atoms: C3_9  and  C4_11 
REMARK    6  A    between atoms: C5_14  and  N3_15 
REMARK    7  A    between atoms: N3_15  and  C6_16 
REMARK    8  A    between atoms: C9_23  and  N6_24 
REMARK    9  A    between atoms: N7_29  and  N8_30 
ROOT
HETATM    1  C4  UNL     1      39.625  38.881  35.935  1.00  0.00     0.181 A 
HETATM    2  N2  UNL     1      39.249  38.839  34.651  1.00  0.00    -0.310 N 
ATOM      3  H2  UNL     1      39.419  39.661  34.070  1.00  0.00     0.170 HD
HETATM    4  C5  UNL     1      38.647  37.748  34.074  1.00  0.00     0.223 A 
HETATM    5  C9  UNL     1      38.457  36.670  34.959  1.00  0.00     0.230 A 
HETATM    6  C10 UNL     1      38.846  36.725  36.273  1.00  0.00     0.306 A 
HETATM    7  O5  UNL     1      38.653  35.723  37.032  1.00  0.00    -0.263 OA
HETATM    8  N7  UNL     1      39.430  37.826  36.764  1.00  0.00    -0.204 N 
ENDROOT
BRANCH   1   9
HETATM    9  C3  UNL     1      40.243  40.069  36.498  1.00  0.00     0.227 C 
HETATM   10  O2  UNL     1      39.502  40.947  37.011  1.00  0.00    -0.287 OA
BRANCH   9  11
HETATM   11  C1  UNL     1      41.698  40.318  36.510  1.00  0.00     0.284 C 
BRANCH  11  12
HETATM   12  N1  UNL     1      41.992  41.569  35.812  1.00  0.00    -0.066 N 
ATOM     13  H13 UNL     1      41.255  41.884  35.181  1.00  0.00     0.275 HD
ATOM     14  H12 UNL     1      41.982  42.398  36.407  1.00  0.00     0.275 HD
ATOM     15  H11 UNL     1      42.887  41.382  35.359  1.00  0.00     0.275 HD
ENDBRANCH  11  12
BRANCH  11  16
HETATM   16  C2  UNL     1      42.236  40.568  37.927  1.00  0.00     0.205 C 
BRANCH  16  17
HETATM   17  O1  UNL     1      41.271  40.598  38.891  1.00  0.00    -0.398 OA
ATOM     18  H1  UNL     1      41.086  39.751  39.280  1.00  0.00     0.209 HD
ENDBRANCH  16  17
ENDBRANCH  11  16
ENDBRANCH   9  11
ENDBRANCH   1   9
BRANCH   8  19
HETATM   19  N8  UNL     1      39.827  37.878  38.107  1.00  0.00    -0.334 N 
ATOM     20  H82 UNL     1      39.489  37.181  38.772  1.00  0.00     0.177 HD
ATOM     21  H81 UNL     1      40.456  38.607  38.442  1.00  0.00     0.177 HD
ENDBRANCH   8  19
BRANCH   4  22
HETATM   22  N3  UNL     1      38.269  37.694  32.832  1.00  0.00    -0.350 NA
BRANCH  22  23
HETATM   23  C6  UNL     1      37.913  37.652  31.684  1.00  0.00     0.253 C 
HETATM   24  N4  UNL     1      38.591  37.946  30.450  1.00  0.00    -0.349 N 
HETATM   25  C7  UNL     1      37.609  38.320  29.483  1.00  0.00     0.143 C 
ATOM     26  H4  UNL     1      39.598  37.896  30.293  1.00  0.00     0.163 HD
HETATM   27  C8  UNL     1      36.283  37.850  29.975  1.00  0.00     0.143 C 
HETATM   28  N5  UNL     1      36.580  37.245  31.244  1.00  0.00    -0.349 N 
ATOM     29  H5  UNL     1      35.955  36.626  31.760  1.00  0.00     0.163 HD
ENDBRANCH  22  23
ENDBRANCH   4  22
BRANCH   5  30
HETATM   30  N6  UNL     1      37.839  35.511  34.444  1.00  0.00    -0.105 N 
HETATM   31  O3  UNL     1      36.655  35.520  34.081  1.00  0.00    -0.531 OA
HETATM   32  O4  UNL     1      38.561  34.357  34.340  1.00  0.00    -0.531 OA
ENDBRANCH   5  30
TORSDOF 9
ENDMDL
