MODEL 1
REMARK VINA RESULT: -6.574359907      0.000      0.000
REMARK  7 active torsions:
REMARK  status: ('A' for Active; 'I' for Inactive)
REMARK    1  A    between atoms: O1_2  and  C2_3 
REMARK    2  A    between atoms: C4_5  and  N1_6 
REMARK       I    between atoms: N1_6  and  C5_8 
REMARK    3  A    between atoms: C5_8  and  C6_10 
REMARK    4  A    between atoms: N2_11  and  C7_13 
REMARK    5  A    between atoms: C8_16  and  N4_17 
REMARK    6  A    between atoms: C9_22  and  N6_23 
REMARK    7  A    between atoms: N6_23  and  N7_25 
ROOT
HETATM    1  C7  UNL     1      35.798  39.234  31.781  1.00  0.00     0.711 A 
HETATM    2  N3  UNL     1      35.662  40.468  31.273  1.00  0.00    -0.021 N 
ATOM      3  H3  UNL     1      36.264  41.218  31.613  1.00  0.00     0.203 HD
HETATM    4  C8  UNL     1      34.737  40.740  30.311  1.00  0.00     0.705 A 
HETATM    5  N5  UNL     1      33.941  39.744  29.862  1.00  0.00    -0.020 N 
ATOM      6  H5  UNL     1      33.245  39.937  29.143  1.00  0.00     0.203 HD
HETATM    7  C9  UNL     1      34.062  38.506  30.357  1.00  0.00     0.725 A 
HETATM    8  N8  UNL     1      34.989  38.268  31.311  1.00  0.00    -0.020 N 
ATOM      9  H8  UNL     1      35.079  37.324  31.686  1.00  0.00     0.203 HD
ENDROOT
BRANCH   1  10
HETATM   10  N2  UNL     1      36.738  38.879  32.782  1.00  0.00    -0.195 N 
HETATM   11  C6  UNL     1      37.216  37.682  32.814  1.00  0.00     0.180 C 
ATOM     12  H2  UNL     1      37.035  39.568  33.473  1.00  0.00     0.183 HD
BRANCH  11  13
HETATM   13  C5  UNL     1      38.173  37.310  33.826  1.00  0.00     0.258 C 
HETATM   14  N1  UNL     1      37.775  37.030  35.161  1.00  0.00    -0.335 N 
ATOM     15  H1  UNL     1      36.787  37.094  35.407  1.00  0.00     0.164 HD
HETATM   16  O2  UNL     1      39.402  37.224  33.543  1.00  0.00    -0.267 OA
BRANCH  14  17
HETATM   17  C4  UNL     1      38.730  36.656  36.178  1.00  0.00     0.192 C 
HETATM   18  C3  UNL     1      39.300  35.306  35.818  1.00  0.00     0.108 C 
HETATM   19  C2  UNL     1      40.316  34.958  36.906  1.00  0.00     0.272 C 
HETATM   20  O3  UNL     1      41.302  35.962  36.928  1.00  0.00    -0.293 OA
HETATM   21  C10 UNL     1      41.017  37.287  36.632  1.00  0.00     0.231 C 
HETATM   22  N9  UNL     1      39.813  37.587  36.285  1.00  0.00    -0.337 N 
HETATM   23  N10 UNL     1      42.022  38.307  36.705  1.00  0.00    -0.056 NA
ATOM     24  H9  UNL     1      39.615  38.565  36.071  1.00  0.00     0.164 HD
BRANCH  19  25
HETATM   25  O1  UNL     1      40.838  33.692  36.721  1.00  0.00    -0.365 OA
HETATM   26  C1  UNL     1      41.016  33.480  35.343  1.00  0.00     0.204 C 
ENDBRANCH  19  25
ENDBRANCH  14  17
ENDBRANCH  11  13
ENDBRANCH   1  10
BRANCH   4  27
HETATM   27  N4  UNL     1      34.654  41.949  29.861  1.00  0.00    -0.234 N 
ATOM     28  H42 UNL     1      34.571  42.156  28.866  1.00  0.00     0.174 HD
ATOM     29  H41 UNL     1      34.672  42.718  30.530  1.00  0.00     0.174 HD
ENDBRANCH   4  27
BRANCH   7  30
HETATM   30  N6  UNL     1      33.311  37.556  29.937  1.00  0.00    -0.138 N 
ATOM     31  H6  UNL     1      33.619  37.028  29.121  1.00  0.00     0.205 HD
BRANCH  30  32
HETATM   32  N7  UNL     1      32.104  37.203  30.526  1.00  0.00    -0.331 N 
ATOM     33  H72 UNL     1      32.032  37.318  31.537  1.00  0.00     0.177 HD
ATOM     34  H71 UNL     1      31.302  36.842  30.010  1.00  0.00     0.177 HD
ENDBRANCH  30  32
ENDBRANCH   7  30
TORSDOF 7
ENDMDL
MODEL 2
REMARK VINA RESULT: -6.563127923      1.310      1.310
REMARK  7 active torsions:
REMARK  status: ('A' for Active; 'I' for Inactive)
REMARK    1  A    between atoms: O1_2  and  C2_3 
REMARK    2  A    between atoms: C4_5  and  N1_6 
REMARK       I    between atoms: N1_6  and  C5_8 
REMARK    3  A    between atoms: C5_8  and  C6_10 
REMARK    4  A    between atoms: N2_11  and  C7_13 
REMARK    5  A    between atoms: C8_16  and  N4_17 
REMARK    6  A    between atoms: C9_22  and  N6_23 
REMARK    7  A    between atoms: N6_23  and  N7_25 
ROOT
HETATM    1  C7  UNL     1      35.291  38.728  31.119  1.00  0.00     0.711 A 
HETATM    2  N3  UNL     1      35.853  39.386  30.093  1.00  0.00    -0.021 N 
ATOM      3  H3  UNL     1      36.838  39.645  30.146  1.00  0.00     0.203 HD
HETATM    4  C8  UNL     1      35.135  39.713  28.983  1.00  0.00     0.705 A 
HETATM    5  N5  UNL     1      33.830  39.367  28.918  1.00  0.00    -0.020 N 
ATOM      6  H5  UNL     1      33.283  39.607  28.091  1.00  0.00     0.203 HD
HETATM    7  C9  UNL     1      33.252  38.710  29.931  1.00  0.00     0.725 A 
HETATM    8  N8  UNL     1      33.992  38.400  31.019  1.00  0.00    -0.020 N 
ATOM      9  H8  UNL     1      33.549  37.900  31.789  1.00  0.00     0.203 HD
ENDROOT
BRANCH   1  10
HETATM   10  N2  UNL     1      35.978  38.355  32.303  1.00  0.00    -0.195 N 
HETATM   11  C6  UNL     1      37.096  37.720  32.219  1.00  0.00     0.180 C 
ATOM     12  H2  UNL     1      35.589  38.589  33.216  1.00  0.00     0.183 HD
BRANCH  11  13
HETATM   13  C5  UNL     1      37.804  37.336  33.415  1.00  0.00     0.258 C 
HETATM   14  N1  UNL     1      37.265  36.391  34.329  1.00  0.00    -0.335 N 
ATOM     15  H1  UNL     1      36.354  35.976  34.132  1.00  0.00     0.164 HD
HETATM   16  O2  UNL     1      38.933  37.838  33.678  1.00  0.00    -0.267 OA
BRANCH  14  17
HETATM   17  C4  UNL     1      37.970  36.004  35.529  1.00  0.00     0.192 C 
HETATM   18  C3  UNL     1      39.226  35.272  35.123  1.00  0.00     0.108 C 
HETATM   19  C2  UNL     1      39.949  34.897  36.416  1.00  0.00     0.272 C 
HETATM   20  O3  UNL     1      40.229  36.080  37.125  1.00  0.00    -0.293 OA
HETATM   21  C10 UNL     1      39.390  37.184  37.085  1.00  0.00     0.231 C 
HETATM   22  N9  UNL     1      38.344  37.126  36.335  1.00  0.00    -0.337 N 
HETATM   23  N10 UNL     1      39.664  38.365  37.851  1.00  0.00    -0.056 NA
ATOM     24  H9  UNL     1      37.734  37.944  36.314  1.00  0.00     0.164 HD
BRANCH  19  25
HETATM   25  O1  UNL     1      41.077  34.141  36.161  1.00  0.00    -0.365 OA
HETATM   26  C1  UNL     1      40.857  33.391  34.992  1.00  0.00     0.204 C 
ENDBRANCH  19  25
ENDBRANCH  14  17
ENDBRANCH  11  13
ENDBRANCH   1  10
BRANCH   4  27
HETATM   27  N4  UNL     1      35.732  40.347  28.029  1.00  0.00    -0.234 N 
ATOM     28  H42 UNL     1      36.499  40.996  28.200  1.00  0.00     0.174 HD
ATOM     29  H41 UNL     1      35.420  40.188  27.070  1.00  0.00     0.174 HD
ENDBRANCH   4  27
BRANCH   7  30
HETATM   30  N6  UNL     1      32.015  38.379  29.877  1.00  0.00    -0.138 N 
ATOM     31  H6  UNL     1      31.351  39.065  29.516  1.00  0.00     0.205 HD
BRANCH  30  32
HETATM   32  N7  UNL     1      31.524  37.143  30.279  1.00  0.00    -0.331 N 
ATOM     33  H72 UNL     1      31.000  36.608  29.587  1.00  0.00     0.177 HD
ATOM     34  H71 UNL     1      31.659  36.752  31.210  1.00  0.00     0.177 HD
ENDBRANCH  30  32
ENDBRANCH   7  30
TORSDOF 7
ENDMDL
MODEL 3
REMARK VINA RESULT: -6.349005610      1.732      2.501
REMARK  7 active torsions:
REMARK  status: ('A' for Active; 'I' for Inactive)
REMARK    1  A    between atoms: O1_2  and  C2_3 
REMARK    2  A    between atoms: C4_5  and  N1_6 
REMARK       I    between atoms: N1_6  and  C5_8 
REMARK    3  A    between atoms: C5_8  and  C6_10 
REMARK    4  A    between atoms: N2_11  and  C7_13 
REMARK    5  A    between atoms: C8_16  and  N4_17 
REMARK    6  A    between atoms: C9_22  and  N6_23 
REMARK    7  A    between atoms: N6_23  and  N7_25 
ROOT
HETATM    1  C7  UNL     1      34.819  39.002  31.053  1.00  0.00     0.711 A 
HETATM    2  N3  UNL     1      34.920  40.274  30.639  1.00  0.00    -0.021 N 
ATOM      3  H3  UNL     1      35.745  40.819  30.892  1.00  0.00     0.203 HD
HETATM    4  C8  UNL     1      33.943  40.853  29.887  1.00  0.00     0.705 A 
HETATM    5  N5  UNL     1      32.853  40.129  29.553  1.00  0.00    -0.020 N 
ATOM      6  H5  UNL     1      32.116  40.553  28.990  1.00  0.00     0.203 HD
HETATM    7  C9  UNL     1      32.734  38.858  29.957  1.00  0.00     0.725 A 
HETATM    8  N8  UNL     1      33.721  38.312  30.702  1.00  0.00    -0.020 N 
ATOM      9  H8  UNL     1      33.628  37.344  31.009  1.00  0.00     0.203 HD
ENDROOT
BRANCH   1  10
HETATM   10  N2  UNL     1      35.796  38.336  31.837  1.00  0.00    -0.195 N 
HETATM   11  C6  UNL     1      37.048  38.546  31.612  1.00  0.00     0.180 C 
ATOM     12  H2  UNL     1      35.509  37.693  32.576  1.00  0.00     0.183 HD
BRANCH  11  13
HETATM   13  C5  UNL     1      38.050  37.875  32.402  1.00  0.00     0.258 C 
HETATM   14  N1  UNL     1      37.886  37.673  33.798  1.00  0.00    -0.335 N 
ATOM     15  H1  UNL     1      37.037  38.012  34.252  1.00  0.00     0.164 HD
HETATM   16  O2  UNL     1      39.109  37.448  31.861  1.00  0.00    -0.267 OA
BRANCH  14  17
HETATM   17  C4  UNL     1      38.887  37.002  34.594  1.00  0.00     0.192 C 
HETATM   18  C3  UNL     1      38.649  37.351  36.044  1.00  0.00     0.108 C 
HETATM   19  C2  UNL     1      39.714  36.608  36.851  1.00  0.00     0.272 C 
HETATM   20  O3  UNL     1      39.572  35.229  36.606  1.00  0.00    -0.293 OA
HETATM   21  C10 UNL     1      39.147  34.734  35.382  1.00  0.00     0.231 C 
HETATM   22  N9  UNL     1      38.833  35.577  34.460  1.00  0.00    -0.337 N 
HETATM   23  N10 UNL     1      39.054  33.325  35.133  1.00  0.00    -0.056 NA
ATOM     24  H9  UNL     1      38.522  35.201  33.564  1.00  0.00     0.164 HD
BRANCH  19  25
HETATM   25  O1  UNL     1      39.642  36.928  38.193  1.00  0.00    -0.365 OA
HETATM   26  C1  UNL     1      39.364  38.301  38.310  1.00  0.00     0.204 C 
ENDBRANCH  19  25
ENDBRANCH  14  17
ENDBRANCH  11  13
ENDBRANCH   1  10
BRANCH   4  27
HETATM   27  N4  UNL     1      34.098  42.082  29.518  1.00  0.00    -0.234 N 
ATOM     28  H42 UNL     1      33.900  42.867  30.138  1.00  0.00     0.174 HD
ATOM     29  H41 UNL     1      34.430  42.268  28.572  1.00  0.00     0.174 HD
ENDBRANCH   4  27
BRANCH   7  30
HETATM   30  N6  UNL     1      31.703  38.164  29.645  1.00  0.00    -0.138 N 
ATOM     31  H6  UNL     1      31.166  38.448  28.825  1.00  0.00     0.205 HD
BRANCH  30  32
HETATM   32  N7  UNL     1      31.273  37.051  30.354  1.00  0.00    -0.331 N 
ATOM     33  H72 UNL     1      31.517  36.137  29.972  1.00  0.00     0.177 HD
ATOM     34  H71 UNL     1      30.737  37.098  31.220  1.00  0.00     0.177 HD
ENDBRANCH  30  32
ENDBRANCH   7  30
TORSDOF 7
ENDMDL
MODEL 4
REMARK VINA RESULT: -6.277763165      5.641      6.783
REMARK  7 active torsions:
REMARK  status: ('A' for Active; 'I' for Inactive)
REMARK    1  A    between atoms: O1_2  and  C2_3 
REMARK    2  A    between atoms: C4_5  and  N1_6 
REMARK       I    between atoms: N1_6  and  C5_8 
REMARK    3  A    between atoms: C5_8  and  C6_10 
REMARK    4  A    between atoms: N2_11  and  C7_13 
REMARK    5  A    between atoms: C8_16  and  N4_17 
REMARK    6  A    between atoms: C9_22  and  N6_23 
REMARK    7  A    between atoms: N6_23  and  N7_25 
ROOT
HETATM    1  C7  UNL     1      38.300  41.214  36.047  1.00  0.00     0.711 A 
HETATM    2  N3  UNL     1      37.860  42.479  35.962  1.00  0.00    -0.021 N 
ATOM      3  H3  UNL     1      38.269  43.105  35.269  1.00  0.00     0.203 HD
HETATM    4  C8  UNL     1      36.878  42.943  36.784  1.00  0.00     0.705 A 
HETATM    5  N5  UNL     1      36.338  42.110  37.700  1.00  0.00    -0.020 N 
ATOM      6  H5  UNL     1      35.602  42.448  38.320  1.00  0.00     0.203 HD
HETATM    7  C9  UNL     1      36.764  40.845  37.800  1.00  0.00     0.725 A 
HETATM    8  N8  UNL     1      37.740  40.415  36.970  1.00  0.00    -0.020 N 
ATOM      9  H8  UNL     1      38.063  39.450  37.048  1.00  0.00     0.203 HD
ENDROOT
BRANCH   1  10
HETATM   10  N2  UNL     1      39.317  40.665  35.225  1.00  0.00    -0.195 N 
HETATM   11  C6  UNL     1      40.416  40.252  35.759  1.00  0.00     0.180 C 
ATOM     12  H2  UNL     1      39.180  40.595  34.217  1.00  0.00     0.183 HD
BRANCH  11  13
HETATM   13  C5  UNL     1      41.457  39.691  34.934  1.00  0.00     0.258 C 
HETATM   14  N1  UNL     1      41.542  39.975  33.545  1.00  0.00    -0.335 N 
ATOM     15  H1  UNL     1      40.848  40.591  33.122  1.00  0.00     0.164 HD
HETATM   16  O2  UNL     1      42.328  38.925  35.438  1.00  0.00    -0.267 OA
BRANCH  14  17
HETATM   17  C4  UNL     1      42.583  39.415  32.715  1.00  0.00     0.192 C 
HETATM   18  C3  UNL     1      41.976  38.323  31.869  1.00  0.00     0.108 C 
HETATM   19  C2  UNL     1      43.102  37.771  30.994  1.00  0.00     0.272 C 
HETATM   20  O3  UNL     1      43.612  38.826  30.214  1.00  0.00    -0.293 OA
HETATM   21  C10 UNL     1      43.658  40.134  30.675  1.00  0.00     0.231 C 
HETATM   22  N9  UNL     1      43.173  40.385  31.842  1.00  0.00    -0.337 N 
HETATM   23  N10 UNL     1      44.225  41.189  29.887  1.00  0.00    -0.056 NA
ATOM     24  H9  UNL     1      43.212  41.350  32.170  1.00  0.00     0.164 HD
BRANCH  19  25
HETATM   25  O1  UNL     1      42.672  36.699  30.237  1.00  0.00    -0.365 OA
HETATM   26  C1  UNL     1      43.762  36.213  29.493  1.00  0.00     0.204 C 
ENDBRANCH  19  25
ENDBRANCH  14  17
ENDBRANCH  11  13
ENDBRANCH   1  10
BRANCH   4  27
HETATM   27  N4  UNL     1      36.496  44.171  36.654  1.00  0.00    -0.234 N 
ATOM     28  H42 UNL     1      37.157  44.940  36.545  1.00  0.00     0.174 HD
ATOM     29  H41 UNL     1      35.496  44.373  36.663  1.00  0.00     0.174 HD
ENDBRANCH   4  27
BRANCH   7  30
HETATM   30  N6  UNL     1      36.257  40.049  38.667  1.00  0.00    -0.138 N 
ATOM     31  H6  UNL     1      36.870  39.354  39.094  1.00  0.00     0.205 HD
BRANCH  30  32
HETATM   32  N7  UNL     1      34.926  40.075  39.060  1.00  0.00    -0.331 N 
ATOM     33  H72 UNL     1      34.348  39.280  38.787  1.00  0.00     0.177 HD
ATOM     34  H71 UNL     1      34.505  40.831  39.599  1.00  0.00     0.177 HD
ENDBRANCH  30  32
ENDBRANCH   7  30
TORSDOF 7
ENDMDL
MODEL 5
REMARK VINA RESULT: -6.225184032      5.007      8.953
REMARK  7 active torsions:
REMARK  status: ('A' for Active; 'I' for Inactive)
REMARK    1  A    between atoms: O1_2  and  C2_3 
REMARK    2  A    between atoms: C4_5  and  N1_6 
REMARK       I    between atoms: N1_6  and  C5_8 
REMARK    3  A    between atoms: C5_8  and  C6_10 
REMARK    4  A    between atoms: N2_11  and  C7_13 
REMARK    5  A    between atoms: C8_16  and  N4_17 
REMARK    6  A    between atoms: C9_22  and  N6_23 
REMARK    7  A    between atoms: N6_23  and  N7_25 
ROOT
HETATM    1  C7  UNL     1      41.626  40.623  39.269  1.00  0.00     0.711 A 
HETATM    2  N3  UNL     1      41.535  41.338  40.400  1.00  0.00    -0.021 N 
ATOM      3  H3  UNL     1      40.681  41.288  40.956  1.00  0.00     0.203 HD
HETATM    4  C8  UNL     1      42.561  42.128  40.822  1.00  0.00     0.705 A 
HETATM    5  N5  UNL     1      43.691  42.191  40.084  1.00  0.00    -0.020 N 
ATOM      6  H5  UNL     1      44.465  42.780  40.391  1.00  0.00     0.203 HD
HETATM    7  C9  UNL     1      43.800  41.485  38.951  1.00  0.00     0.725 A 
HETATM    8  N8  UNL     1      42.764  40.710  38.560  1.00  0.00    -0.020 N 
ATOM      9  H8  UNL     1      42.849  40.173  37.697  1.00  0.00     0.203 HD
ENDROOT
BRANCH   1  10
HETATM   10  N2  UNL     1      40.599  39.780  38.770  1.00  0.00    -0.195 N 
HETATM   11  C6  UNL     1      40.499  39.578  37.501  1.00  0.00     0.180 C 
ATOM     12  H2  UNL     1      39.944  39.336  39.413  1.00  0.00     0.183 HD
BRANCH  11  13
HETATM   13  C5  UNL     1      39.460  38.723  36.983  1.00  0.00     0.258 C 
HETATM   14  N1  UNL     1      39.745  37.426  36.477  1.00  0.00    -0.335 N 
ATOM     15  H1  UNL     1      40.709  37.094  36.482  1.00  0.00     0.164 HD
HETATM   16  O2  UNL     1      38.259  39.115  36.967  1.00  0.00    -0.267 OA
BRANCH  14  17
HETATM   17  C4  UNL     1      38.708  36.566  35.956  1.00  0.00     0.192 C 
HETATM   18  C3  UNL     1      38.370  37.027  34.559  1.00  0.00     0.108 C 
HETATM   19  C2  UNL     1      37.287  36.083  34.039  1.00  0.00     0.272 C 
HETATM   20  O3  UNL     1      37.798  34.771  34.057  1.00  0.00    -0.293 OA
HETATM   21  C10 UNL     1      38.701  34.341  35.018  1.00  0.00     0.231 C 
HETATM   22  N9  UNL     1      39.111  35.194  35.892  1.00  0.00    -0.337 N 
HETATM   23  N10 UNL     1      39.176  32.988  35.051  1.00  0.00    -0.056 NA
ATOM     24  H9  UNL     1      39.775  34.866  36.594  1.00  0.00     0.164 HD
BRANCH  19  25
HETATM   25  O1  UNL     1      36.838  36.470  32.791  1.00  0.00    -0.365 OA
HETATM   26  C1  UNL     1      37.580  37.590  32.378  1.00  0.00     0.204 C 
ENDBRANCH  19  25
ENDBRANCH  14  17
ENDBRANCH  11  13
ENDBRANCH   1  10
BRANCH   4  27
HETATM   27  N4  UNL     1      42.414  42.793  41.921  1.00  0.00    -0.234 N 
ATOM     28  H42 UNL     1      43.201  43.034  42.523  1.00  0.00     0.174 HD
ATOM     29  H41 UNL     1      41.475  43.085  42.190  1.00  0.00     0.174 HD
ENDBRANCH   4  27
BRANCH   7  30
HETATM   30  N6  UNL     1      44.867  41.540  38.245  1.00  0.00    -0.138 N 
ATOM     31  H6  UNL     1      45.621  42.150  38.562  1.00  0.00     0.205 HD
BRANCH  30  32
HETATM   32  N7  UNL     1      45.061  40.818  37.074  1.00  0.00    -0.331 N 
ATOM     33  H72 UNL     1      44.595  39.913  37.007  1.00  0.00     0.177 HD
ATOM     34  H71 UNL     1      45.633  41.140  36.294  1.00  0.00     0.177 HD
ENDBRANCH  30  32
ENDBRANCH   7  30
TORSDOF 7
ENDMDL
