MODEL 1
REMARK VINA RESULT: -5.887835885      0.000      0.000
REMARK  3 active torsions:
REMARK  status: ('A' for Active; 'I' for Inactive)
REMARK    1  A    between atoms: O1_2  and  C2_3 
REMARK    2  A    between atoms: C2_3  and  N2_7 
REMARK    3  A    between atoms: N2_7  and  C3_9 
ROOT
HETATM    1  C3  UNL     1      23.004 -23.486  72.785  1.00  0.00     0.085 C 
HETATM    2  C4  UNL     1      22.980 -24.067  74.191  1.00  0.00     0.025 C 
HETATM    3  C5  UNL     1      24.136 -23.554  75.004  1.00  0.00     0.002 C 
HETATM    4  C6  UNL     1      25.471 -23.766  74.390  1.00  0.00     0.000 C 
HETATM    5  C7  UNL     1      25.595 -24.936  73.491  1.00  0.00     0.000 C 
HETATM    6  C8  UNL     1      25.538 -24.440  72.042  1.00  0.00     0.000 C 
HETATM    7  C9  UNL     1      24.365 -25.018  71.326  1.00  0.00     0.002 C 
HETATM    8  C10 UNL     1      23.039 -24.610  71.819  1.00  0.00     0.025 C 
ENDROOT
BRANCH   1   9
HETATM    9  N2  UNL     1      21.756 -22.723  72.619  1.00  0.00    -0.352 N 
ATOM     10  H2  UNL     1      20.870 -23.225  72.570  1.00  0.00     0.163 HD
BRANCH   9  11
HETATM   11  C2  UNL     1      21.756 -21.304  72.524  1.00  0.00     0.212 C 
HETATM   12  N1  UNL     1      22.513 -20.627  73.327  1.00  0.00    -0.366 N 
ATOM     13  H12 UNL     1      22.513 -19.609  73.258  1.00  0.00     0.159 HD
ATOM     14  H11 UNL     1      23.075 -21.157  73.991  1.00  0.00     0.159 HD
BRANCH  11  15
HETATM   15  O1  UNL     1      20.998 -20.587  71.626  1.00  0.00    -0.328 OA
HETATM   16  C1  UNL     1      19.577 -20.518  71.694  1.00  0.00     0.213 C 
ENDBRANCH  11  15
ENDBRANCH   9  11
ENDBRANCH   1   9
TORSDOF 3
ENDMDL
MODEL 2
REMARK VINA RESULT: -5.870164039      1.191      1.460
REMARK  3 active torsions:
REMARK  status: ('A' for Active; 'I' for Inactive)
REMARK    1  A    between atoms: O1_2  and  C2_3 
REMARK    2  A    between atoms: C2_3  and  N2_7 
REMARK    3  A    between atoms: N2_7  and  C3_9 
ROOT
HETATM    1  C3  UNL     1      22.432 -23.657  72.695  1.00  0.00     0.085 C 
HETATM    2  C4  UNL     1      22.348 -24.262  74.088  1.00  0.00     0.025 C 
HETATM    3  C5  UNL     1      23.271 -23.551  75.039  1.00  0.00     0.002 C 
HETATM    4  C6  UNL     1      24.688 -23.487  74.598  1.00  0.00     0.000 C 
HETATM    5  C7  UNL     1      25.148 -24.591  73.726  1.00  0.00     0.000 C 
HETATM    6  C8  UNL     1      25.176 -24.086  72.280  1.00  0.00     0.000 C 
HETATM    7  C9  UNL     1      24.236 -24.864  71.423  1.00  0.00     0.002 C 
HETATM    8  C10 UNL     1      22.806 -24.733  71.744  1.00  0.00     0.025 C 
ENDROOT
BRANCH   1   9
HETATM    9  N2  UNL     1      21.090 -23.148  72.370  1.00  0.00    -0.352 N 
ATOM     10  H2  UNL     1      20.317 -23.807  72.280  1.00  0.00     0.163 HD
BRANCH   9  11
HETATM   11  C2  UNL     1      20.845 -21.760  72.179  1.00  0.00     0.212 C 
HETATM   12  N1  UNL     1      19.636 -21.370  71.932  1.00  0.00    -0.366 N 
ATOM     13  H12 UNL     1      19.460 -20.375  71.795  1.00  0.00     0.159 HD
ATOM     14  H11 UNL     1      18.916 -22.091  71.888  1.00  0.00     0.159 HD
BRANCH  11  15
HETATM   15  O1  UNL     1      21.816 -20.786  72.238  1.00  0.00    -0.328 OA
HETATM   16  C1  UNL     1      22.358 -20.307  73.465  1.00  0.00     0.213 C 
ENDBRANCH  11  15
ENDBRANCH   9  11
ENDBRANCH   1   9
TORSDOF 3
ENDMDL
MODEL 3
REMARK VINA RESULT: -5.564944750      3.084      4.301
REMARK  3 active torsions:
REMARK  status: ('A' for Active; 'I' for Inactive)
REMARK    1  A    between atoms: O1_2  and  C2_3 
REMARK    2  A    between atoms: C2_3  and  N2_7 
REMARK    3  A    between atoms: N2_7  and  C3_9 
ROOT
HETATM    1  C3  UNL     1      24.080 -24.949  72.531  1.00  0.00     0.085 C 
HETATM    2  C4  UNL     1      25.027 -23.775  72.726  1.00  0.00     0.025 C 
HETATM    3  C5  UNL     1      25.544 -23.729  74.137  1.00  0.00     0.002 C 
HETATM    4  C6  UNL     1      24.492 -23.710  75.184  1.00  0.00     0.000 C 
HETATM    5  C7  UNL     1      23.199 -23.102  74.795  1.00  0.00     0.000 C 
HETATM    6  C8  UNL     1      22.205 -24.229  74.494  1.00  0.00     0.000 C 
HETATM    7  C9  UNL     1      21.749 -24.175  73.076  1.00  0.00     0.002 C 
HETATM    8  C10 UNL     1      22.779 -24.421  72.053  1.00  0.00     0.025 C 
ENDROOT
BRANCH   1   9
HETATM    9  N2  UNL     1      24.678 -25.813  71.500  1.00  0.00    -0.352 N 
ATOM     10  H2  UNL     1      24.936 -26.769  71.742  1.00  0.00     0.163 HD
BRANCH   9  11
HETATM   11  C2  UNL     1      24.905 -25.347  70.176  1.00  0.00     0.212 C 
HETATM   12  N1  UNL     1      26.124 -25.210  69.764  1.00  0.00    -0.366 N 
ATOM     13  H12 UNL     1      26.286 -24.876  68.815  1.00  0.00     0.159 HD
ATOM     14  H11 UNL     1      26.864 -25.448  70.424  1.00  0.00     0.159 HD
BRANCH  11  15
HETATM   15  O1  UNL     1      23.905 -25.026  69.285  1.00  0.00    -0.328 OA
HETATM   16  C1  UNL     1      23.484 -25.902  68.245  1.00  0.00     0.213 C 
ENDBRANCH  11  15
ENDBRANCH   9  11
ENDBRANCH   1   9
TORSDOF 3
ENDMDL
MODEL 4
REMARK VINA RESULT: -5.561127957      2.665      4.281
REMARK  3 active torsions:
REMARK  status: ('A' for Active; 'I' for Inactive)
REMARK    1  A    between atoms: O1_2  and  C2_3 
REMARK    2  A    between atoms: C2_3  and  N2_7 
REMARK    3  A    between atoms: N2_7  and  C3_9 
ROOT
HETATM    1  C3  UNL     1      23.587 -24.206  72.362  1.00  0.00     0.085 C 
HETATM    2  C4  UNL     1      25.034 -24.016  71.932  1.00  0.00     0.025 C 
HETATM    3  C5  UNL     1      25.940 -24.969  72.659  1.00  0.00     0.002 C 
HETATM    4  C6  UNL     1      25.841 -24.916  74.139  1.00  0.00     0.000 C 
HETATM    5  C7  UNL     1      25.436 -23.614  74.717  1.00  0.00     0.000 C 
HETATM    6  C8  UNL     1      23.954 -23.694  75.099  1.00  0.00     0.000 C 
HETATM    7  C9  UNL     1      23.150 -22.701  74.331  1.00  0.00     0.002 C 
HETATM    8  C10 UNL     1      23.081 -22.909  72.875  1.00  0.00     0.025 C 
ENDROOT
BRANCH   1   9
HETATM    9  N2  UNL     1      22.833 -24.596  71.160  1.00  0.00    -0.352 N 
ATOM     10  H2  UNL     1      21.893 -24.226  71.022  1.00  0.00     0.163 HD
BRANCH   9  11
HETATM   11  C2  UNL     1      23.382 -25.476  70.187  1.00  0.00     0.212 C 
HETATM   12  N1  UNL     1      23.570 -26.716  70.505  1.00  0.00    -0.366 N 
ATOM     13  H12 UNL     1      23.964 -27.346  69.807  1.00  0.00     0.159 HD
ATOM     14  H11 UNL     1      23.309 -26.997  71.450  1.00  0.00     0.159 HD
BRANCH  11  15
HETATM   15  O1  UNL     1      23.735 -25.097  68.911  1.00  0.00    -0.328 OA
HETATM   16  C1  UNL     1      24.344 -25.986  67.980  1.00  0.00     0.213 C 
ENDBRANCH  11  15
ENDBRANCH   9  11
ENDBRANCH   1   9
TORSDOF 3
ENDMDL
MODEL 5
REMARK VINA RESULT: -5.446449885      1.430      2.609
REMARK  3 active torsions:
REMARK  status: ('A' for Active; 'I' for Inactive)
REMARK    1  A    between atoms: O1_2  and  C2_3 
REMARK    2  A    between atoms: C2_3  and  N2_7 
REMARK    3  A    between atoms: N2_7  and  C3_9 
ROOT
HETATM    1  C3  UNL     1      23.087 -23.759  73.072  1.00  0.00     0.085 C 
HETATM    2  C4  UNL     1      24.360 -23.424  72.310  1.00  0.00     0.025 C 
HETATM    3  C5  UNL     1      25.395 -24.499  72.494  1.00  0.00     0.002 C 
HETATM    4  C6  UNL     1      25.719 -24.815  73.907  1.00  0.00     0.000 C 
HETATM    5  C7  UNL     1      25.548 -23.709  74.877  1.00  0.00     0.000 C 
HETATM    6  C8  UNL     1      24.231 -23.927  75.631  1.00  0.00     0.000 C 
HETATM    7  C9  UNL     1      23.285 -22.801  75.390  1.00  0.00     0.002 C 
HETATM    8  C10 UNL     1      22.799 -22.646  74.009  1.00  0.00     0.025 C 
ENDROOT
BRANCH   1   9
HETATM    9  N2  UNL     1      22.009 -23.865  72.076  1.00  0.00    -0.352 N 
ATOM     10  H2  UNL     1      22.045 -24.611  71.383  1.00  0.00     0.163 HD
BRANCH   9  11
HETATM   11  C2  UNL     1      20.919 -22.952  72.056  1.00  0.00     0.212 C 
HETATM   12  N1  UNL     1      19.741 -23.381  72.376  1.00  0.00    -0.366 N 
ATOM     13  H12 UNL     1      18.960 -22.726  72.362  1.00  0.00     0.159 HD
ATOM     14  H11 UNL     1      19.660 -24.366  72.628  1.00  0.00     0.159 HD
BRANCH  11  15
HETATM   15  O1  UNL     1      21.028 -21.621  71.717  1.00  0.00    -0.328 OA
HETATM   16  C1  UNL     1      19.941 -20.707  71.812  1.00  0.00     0.213 C 
ENDBRANCH  11  15
ENDBRANCH   9  11
ENDBRANCH   1   9
TORSDOF 3
ENDMDL
