MODEL 1
REMARK VINA RESULT: -5.637155196      0.000      0.000
REMARK  1 active torsions:
REMARK  status: ('A' for Active; 'I' for Inactive)
REMARK    1  A    between atoms: C5_5  and  N1_6 
ROOT
HETATM    1  C1  UNL     1      19.567 -21.143  72.092  1.00  0.00     0.038 C 
HETATM    2  C2  UNL     1      19.577 -22.660  71.858  1.00  0.00    -0.030 C 
HETATM    3  C3  UNL     1      20.294 -23.561  72.714  1.00  0.00    -0.028 C 
HETATM    4  C4  UNL     1      21.728 -23.999  72.445  1.00  0.00     0.064 C 
HETATM    5  C5  UNL     1      22.699 -22.766  72.414  1.00  0.00     0.153 C 
HETATM    6  C8  UNL     1      21.895 -21.633  72.216  1.00  0.00    -0.158 C 
HETATM    7  C9  UNL     1      21.015 -20.551  72.030  1.00  0.00     0.086 C 
ENDROOT
BRANCH   5   8
HETATM    8  N1  UNL     1      23.493 -22.855  73.651  1.00  0.00    -0.364 N 
HETATM    9  C6  UNL     1      24.622 -23.463  73.693  1.00  0.00     0.095 C 
HETATM   10  C7  UNL     1      25.685 -23.775  74.662  1.00  0.00     0.174 C 
HETATM   11  N2  UNL     1      25.367 -24.151  72.695  1.00  0.00    -0.319 N 
HETATM   12  S1  UNL     1      26.005 -25.342  73.818  1.00  0.00    -0.047 SA
ATOM     13  H2  UNL     1      25.487 -24.006  71.693  1.00  0.00     0.175 HD
ATOM     14  H1  UNL     1      23.134 -22.420  74.501  1.00  0.00     0.162 HD
ENDBRANCH   5   8
TORSDOF 1
ENDMDL
MODEL 2
REMARK VINA RESULT: -5.607439580      3.017      4.481
REMARK  1 active torsions:
REMARK  status: ('A' for Active; 'I' for Inactive)
REMARK    1  A    between atoms: C5_5  and  N1_6 
ROOT
HETATM    1  C1  UNL     1      24.739 -23.635  75.117  1.00  0.00     0.038 C 
HETATM    2  C2  UNL     1      23.248 -23.281  75.025  1.00  0.00    -0.030 C 
HETATM    3  C3  UNL     1      22.294 -24.145  74.391  1.00  0.00    -0.028 C 
HETATM    4  C4  UNL     1      21.916 -24.027  72.921  1.00  0.00     0.064 C 
HETATM    5  C5  UNL     1      23.170 -24.223  71.996  1.00  0.00     0.153 C 
HETATM    6  C8  UNL     1      24.295 -24.017  72.808  1.00  0.00    -0.158 C 
HETATM    7  C9  UNL     1      25.368 -23.809  73.694  1.00  0.00     0.086 C 
ENDROOT
BRANCH   5   8
HETATM    8  N1  UNL     1      22.993 -25.540  71.363  1.00  0.00    -0.364 N 
HETATM    9  C6  UNL     1      23.668 -25.895  70.331  1.00  0.00     0.095 C 
HETATM   10  C7  UNL     1      23.803 -27.050  69.429  1.00  0.00     0.174 C 
HETATM   11  N2  UNL     1      24.667 -25.221  69.572  1.00  0.00    -0.319 N 
HETATM   12  S1  UNL     1      24.169 -25.941  68.048  1.00  0.00    -0.047 SA
ATOM     13  H2  UNL     1      25.403 -24.561  69.822  1.00  0.00     0.175 HD
ATOM     14  H1  UNL     1      22.314 -26.190  71.756  1.00  0.00     0.162 HD
ENDBRANCH   5   8
TORSDOF 1
ENDMDL
MODEL 3
REMARK VINA RESULT: -5.599625701      3.059      4.470
REMARK  1 active torsions:
REMARK  status: ('A' for Active; 'I' for Inactive)
REMARK    1  A    between atoms: C5_5  and  N1_6 
ROOT
HETATM    1  C1  UNL     1      23.118 -22.557  74.493  1.00  0.00     0.038 C 
HETATM    2  C2  UNL     1      24.251 -23.430  75.050  1.00  0.00    -0.030 C 
HETATM    3  C3  UNL     1      25.433 -23.722  74.291  1.00  0.00    -0.028 C 
HETATM    4  C4  UNL     1      25.570 -24.956  73.409  1.00  0.00     0.064 C 
HETATM    5  C5  UNL     1      24.472 -24.972  72.286  1.00  0.00     0.153 C 
HETATM    6  C8  UNL     1      23.465 -24.090  72.705  1.00  0.00    -0.158 C 
HETATM    7  C9  UNL     1      22.510 -23.178  73.191  1.00  0.00     0.086 C 
ENDROOT
BRANCH   5   8
HETATM    8  N1  UNL     1      25.184 -24.680  71.031  1.00  0.00    -0.364 N 
HETATM    9  C6  UNL     1      25.192 -25.500  70.045  1.00  0.00     0.095 C 
HETATM   10  C7  UNL     1      25.743 -25.605  68.684  1.00  0.00     0.174 C 
HETATM   11  N2  UNL     1      24.596 -26.782  69.872  1.00  0.00    -0.319 N 
HETATM   12  S1  UNL     1      25.909 -27.395  68.879  1.00  0.00    -0.047 SA
ATOM     13  H2  UNL     1      23.724 -27.193  70.203  1.00  0.00     0.175 HD
ATOM     14  H1  UNL     1      25.688 -23.797  70.943  1.00  0.00     0.162 HD
ENDBRANCH   5   8
TORSDOF 1
ENDMDL
MODEL 4
REMARK VINA RESULT: -5.586934339      3.600      4.908
REMARK  1 active torsions:
REMARK  status: ('A' for Active; 'I' for Inactive)
REMARK    1  A    between atoms: C5_5  and  N1_6 
ROOT
HETATM    1  C1  UNL     1      26.141 -25.540  68.618  1.00  0.00     0.038 C 
HETATM    2  C2  UNL     1      24.769 -26.155  68.311  1.00  0.00    -0.030 C 
HETATM    3  C3  UNL     1      23.542 -25.474  68.608  1.00  0.00    -0.028 C 
HETATM    4  C4  UNL     1      22.789 -25.653  69.920  1.00  0.00     0.064 C 
HETATM    5  C5  UNL     1      23.677 -25.232  71.144  1.00  0.00     0.153 C 
HETATM    6  C8  UNL     1      25.005 -25.237  70.689  1.00  0.00    -0.158 C 
HETATM    7  C9  UNL     1      26.304 -25.252  70.149  1.00  0.00     0.086 C 
ENDROOT
BRANCH   5   8
HETATM    8  N1  UNL     1      23.107 -23.967  71.632  1.00  0.00    -0.364 N 
HETATM    9  C6  UNL     1      23.381 -23.500  72.796  1.00  0.00     0.095 C 
HETATM   10  C7  UNL     1      23.051 -22.338  73.638  1.00  0.00     0.174 C 
HETATM   11  N2  UNL     1      24.211 -23.989  73.843  1.00  0.00    -0.319 N 
HETATM   12  S1  UNL     1      23.177 -23.367  75.120  1.00  0.00    -0.047 SA
ATOM     13  H2  UNL     1      25.087 -24.511  73.850  1.00  0.00     0.175 HD
ATOM     14  H1  UNL     1      22.474 -23.444  71.027  1.00  0.00     0.162 HD
ENDBRANCH   5   8
TORSDOF 1
ENDMDL
MODEL 5
REMARK VINA RESULT: -5.491067821      3.229      4.524
REMARK  1 active torsions:
REMARK  status: ('A' for Active; 'I' for Inactive)
REMARK    1  A    between atoms: C5_5  and  N1_6 
ROOT
HETATM    1  C1  UNL     1      24.078 -23.498  75.351  1.00  0.00     0.038 C 
HETATM    2  C2  UNL     1      22.937 -23.257  74.353  1.00  0.00    -0.030 C 
HETATM    3  C3  UNL     1      22.536 -24.247  73.396  1.00  0.00    -0.028 C 
HETATM    4  C4  UNL     1      23.106 -24.317  71.985  1.00  0.00     0.064 C 
HETATM    5  C5  UNL     1      24.662 -24.529  72.013  1.00  0.00     0.153 C 
HETATM    6  C8  UNL     1      25.087 -24.159  73.298  1.00  0.00    -0.158 C 
HETATM    7  C9  UNL     1      25.428 -23.784  74.611  1.00  0.00     0.086 C 
ENDROOT
BRANCH   5   8
HETATM    8  N1  UNL     1      24.881 -25.916  71.573  1.00  0.00    -0.364 N 
HETATM    9  C6  UNL     1      25.298 -26.198  70.393  1.00  0.00     0.095 C 
HETATM   10  C7  UNL     1      25.634 -27.379  69.581  1.00  0.00     0.174 C 
HETATM   11  N2  UNL     1      25.635 -25.373  69.283  1.00  0.00    -0.319 N 
HETATM   12  S1  UNL     1      25.060 -26.529  68.091  1.00  0.00    -0.047 SA
ATOM     13  H2  UNL     1      26.058 -24.448  69.207  1.00  0.00     0.175 HD
ATOM     14  H1  UNL     1      24.697 -26.677  72.227  1.00  0.00     0.162 HD
ENDBRANCH   5   8
TORSDOF 1
ENDMDL
