MODEL 1
REMARK VINA RESULT: -6.380499446      0.000      0.000
REMARK  11 active torsions:
REMARK  status: ('A' for Active; 'I' for Inactive)
REMARK    1  A    between atoms: C2_2  and  N1_3 
REMARK    2  A    between atoms: C2_2  and  C3_7 
REMARK    3  A    between atoms: C3_7  and  C4_8 
REMARK    4  A    between atoms: C4_8  and  N2_9 
REMARK    5  A    between atoms: N2_9  and  C5_10 
REMARK    6  A    between atoms: N2_9  and  C7_16 
REMARK    7  A    between atoms: C5_10  and  C6_11 
REMARK    8  A    between atoms: C6_11  and  N3_12 
REMARK    9  A    between atoms: C8_19  and  N5_20 
REMARK   10  A    between atoms: N6_23  and  N7_24 
REMARK   11  A    between atoms: C9_27  and  N8_28 
ROOT
HETATM    1  C7  UNL     1      19.102  10.794  28.851  1.00  0.00     0.709 A 
HETATM    2  N4  UNL     1      20.294  10.791  29.526  1.00  0.00    -0.020 N 
ATOM      3  H4  UNL     1      20.792  11.671  29.656  1.00  0.00     0.203 HD
HETATM    4  C8  UNL     1      20.825   9.654  30.026  1.00  0.00     0.726 A 
HETATM    5  N6  UNL     1      20.121   8.525  29.822  1.00  0.00     0.084 N 
HETATM    6  C9  UNL     1      18.945   8.517  29.156  1.00  0.00     0.726 A 
HETATM    7  N9  UNL     1      18.426   9.657  28.664  1.00  0.00    -0.020 N 
ATOM      8  H9  UNL     1      17.539   9.652  28.161  1.00  0.00     0.203 HD
ENDROOT
BRANCH   1   9
HETATM    9  N2  UNL     1      18.631  12.035  28.390  1.00  0.00    -0.215 N 
BRANCH   9  10
HETATM   10  C4  UNL     1      17.183  12.143  28.200  1.00  0.00     0.143 C 
BRANCH  10  11
HETATM   11  C3  UNL     1      16.443  12.051  29.500  1.00  0.00     0.052 C 
BRANCH  11  12
HETATM   12  C2  UNL     1      15.107  11.394  29.234  1.00  0.00     0.181 C 
HETATM   13  C1  UNL     1      14.962  11.007  27.782  1.00  0.00     0.039 C 
BRANCH  12  14
HETATM   14  N1  UNL     1      15.056  10.226  30.103  1.00  0.00    -0.075 N 
ATOM     15  H13 UNL     1      15.017  10.493  31.086  1.00  0.00     0.274 HD
ATOM     16  H12 UNL     1      14.158   9.747  30.034  1.00  0.00     0.274 HD
ATOM     17  H11 UNL     1      15.833   9.590  29.919  1.00  0.00     0.274 HD
ENDBRANCH  12  14
ENDBRANCH  11  12
ENDBRANCH  10  11
ENDBRANCH   9  10
BRANCH   9  18
HETATM   18  C5  UNL     1      19.511  13.128  28.140  1.00  0.00     0.168 C 
BRANCH  18  19
HETATM   19  C6  UNL     1      18.950  14.426  28.614  1.00  0.00     0.250 C 
BRANCH  19  20
HETATM   20  N3  UNL     1      19.063  14.610  30.051  1.00  0.00    -0.078 N 
ATOM     21  H33 UNL     1      19.577  13.838  30.476  1.00  0.00     0.274 HD
ATOM     22  H32 UNL     1      19.699  15.376  30.269  1.00  0.00     0.274 HD
ATOM     23  H31 UNL     1      18.163  14.743  30.512  1.00  0.00     0.274 HD
ENDBRANCH  19  20
ENDBRANCH  18  19
ENDBRANCH   9  18
ENDBRANCH   1   9
BRANCH   4  24
HETATM   24  N5  UNL     1      21.947   9.693  30.663  1.00  0.00    -0.232 N 
ATOM     25  H52 UNL     1      22.748  10.250  30.365  1.00  0.00     0.174 HD
ATOM     26  H51 UNL     1      22.070   9.143  31.514  1.00  0.00     0.174 HD
ENDBRANCH   4  24
BRANCH   6  27
HETATM   27  N8  UNL     1      18.292   7.419  28.975  1.00  0.00    -0.232 N 
ATOM     28  H82 UNL     1      18.734   6.542  29.250  1.00  0.00     0.174 HD
ATOM     29  H81 UNL     1      17.356   7.425  28.568  1.00  0.00     0.174 HD
ENDBRANCH   6  27
BRANCH   5  30
HETATM   30  N7  UNL     1      20.651   7.338  30.345  1.00  0.00    -0.309 N 
ATOM     31  H72 UNL     1      20.257   6.923  31.190  1.00  0.00     0.178 HD
ATOM     32  H71 UNL     1      21.441   6.923  29.851  1.00  0.00     0.178 HD
ENDBRANCH   5  30
TORSDOF 11
ENDMDL
MODEL 2
REMARK VINA RESULT: -6.342950986      0.088      1.902
REMARK  11 active torsions:
REMARK  status: ('A' for Active; 'I' for Inactive)
REMARK    1  A    between atoms: C2_2  and  N1_3 
REMARK    2  A    between atoms: C2_2  and  C3_7 
REMARK    3  A    between atoms: C3_7  and  C4_8 
REMARK    4  A    between atoms: C4_8  and  N2_9 
REMARK    5  A    between atoms: N2_9  and  C5_10 
REMARK    6  A    between atoms: N2_9  and  C7_16 
REMARK    7  A    between atoms: C5_10  and  C6_11 
REMARK    8  A    between atoms: C6_11  and  N3_12 
REMARK    9  A    between atoms: C8_19  and  N5_20 
REMARK   10  A    between atoms: N6_23  and  N7_24 
REMARK   11  A    between atoms: C9_27  and  N8_28 
ROOT
HETATM    1  C7  UNL     1      19.212  10.845  28.880  1.00  0.00     0.709 A 
HETATM    2  N4  UNL     1      18.519   9.679  28.684  1.00  0.00    -0.020 N 
ATOM      3  H4  UNL     1      17.641   9.706  28.167  1.00  0.00     0.203 HD
HETATM    4  C8  UNL     1      18.969   8.497  29.155  1.00  0.00     0.726 A 
HETATM    5  N6  UNL     1      20.134   8.525  29.829  1.00  0.00     0.084 N 
HETATM    6  C9  UNL     1      20.825   9.670  30.030  1.00  0.00     0.726 A 
HETATM    7  N9  UNL     1      20.366  10.842  29.554  1.00  0.00    -0.020 N 
ATOM      8  H9  UNL     1      20.886  11.706  29.704  1.00  0.00     0.203 HD
ENDROOT
BRANCH   1   9
HETATM    9  N2  UNL     1      18.664  12.016  28.330  1.00  0.00    -0.215 N 
BRANCH   9  10
HETATM   10  C4  UNL     1      17.219  12.003  28.098  1.00  0.00     0.143 C 
BRANCH  10  11
HETATM   11  C3  UNL     1      16.450  12.048  29.384  1.00  0.00     0.052 C 
BRANCH  11  12
HETATM   12  C2  UNL     1      15.121  11.360  29.160  1.00  0.00     0.181 C 
HETATM   13  C1  UNL     1      14.972  10.902  27.730  1.00  0.00     0.039 C 
BRANCH  12  14
HETATM   14  N1  UNL     1      15.093  10.234  30.084  1.00  0.00    -0.075 N 
ATOM     15  H13 UNL     1      14.243   9.682  29.976  1.00  0.00     0.274 HD
ATOM     16  H12 UNL     1      15.777   9.522  29.827  1.00  0.00     0.274 HD
ATOM     17  H11 UNL     1      15.219  10.541  31.049  1.00  0.00     0.274 HD
ENDBRANCH  12  14
ENDBRANCH  11  12
ENDBRANCH  10  11
ENDBRANCH   9  10
BRANCH   9  18
HETATM   18  C5  UNL     1      19.469  13.154  28.032  1.00  0.00     0.168 C 
BRANCH  18  19
HETATM   19  C6  UNL     1      18.876  14.418  28.556  1.00  0.00     0.250 C 
BRANCH  19  20
HETATM   20  N3  UNL     1      19.039  14.578  29.991  1.00  0.00    -0.078 N 
ATOM     21  H33 UNL     1      18.727  13.743  30.487  1.00  0.00     0.274 HD
ATOM     22  H32 UNL     1      20.026  14.566  30.247  1.00  0.00     0.274 HD
ATOM     23  H31 UNL     1      18.580  15.411  30.359  1.00  0.00     0.274 HD
ENDBRANCH  19  20
ENDBRANCH  18  19
ENDBRANCH   9  18
ENDBRANCH   1   9
BRANCH   4  24
HETATM   24  N5  UNL     1      18.291   7.418  28.944  1.00  0.00    -0.232 N 
ATOM     25  H52 UNL     1      17.337   7.412  28.584  1.00  0.00     0.174 HD
ATOM     26  H51 UNL     1      18.705   6.508  29.144  1.00  0.00     0.174 HD
ENDBRANCH   4  24
BRANCH   6  27
HETATM   27  N8  UNL     1      21.939   9.668  30.681  1.00  0.00    -0.232 N 
ATOM     28  H82 UNL     1      22.786   9.958  30.191  1.00  0.00     0.174 HD
ATOM     29  H81 UNL     1      21.975   9.385  31.660  1.00  0.00     0.174 HD
ENDBRANCH   6  27
BRANCH   5  30
HETATM   30  N7  UNL     1      20.622   7.305  30.316  1.00  0.00    -0.309 N 
ATOM     31  H72 UNL     1      20.175   6.849  31.111  1.00  0.00     0.178 HD
ATOM     32  H71 UNL     1      21.437   6.910  29.848  1.00  0.00     0.178 HD
ENDBRANCH   5  30
TORSDOF 11
ENDMDL
MODEL 3
REMARK VINA RESULT: -6.321971390      1.006      2.236
REMARK  11 active torsions:
REMARK  status: ('A' for Active; 'I' for Inactive)
REMARK    1  A    between atoms: C2_2  and  N1_3 
REMARK    2  A    between atoms: C2_2  and  C3_7 
REMARK    3  A    between atoms: C3_7  and  C4_8 
REMARK    4  A    between atoms: C4_8  and  N2_9 
REMARK    5  A    between atoms: N2_9  and  C5_10 
REMARK    6  A    between atoms: N2_9  and  C7_16 
REMARK    7  A    between atoms: C5_10  and  C6_11 
REMARK    8  A    between atoms: C6_11  and  N3_12 
REMARK    9  A    between atoms: C8_19  and  N5_20 
REMARK   10  A    between atoms: N6_23  and  N7_24 
REMARK   11  A    between atoms: C9_27  and  N8_28 
ROOT
HETATM    1  C7  UNL     1      19.191  10.676  29.037  1.00  0.00     0.709 A 
HETATM    2  N4  UNL     1      18.509   9.492  28.945  1.00  0.00    -0.020 N 
ATOM      3  H4  UNL     1      17.591   9.481  28.502  1.00  0.00     0.203 HD
HETATM    4  C8  UNL     1      19.021   8.337  29.424  1.00  0.00     0.726 A 
HETATM    5  N6  UNL     1      20.236   8.415  29.998  1.00  0.00     0.084 N 
HETATM    6  C9  UNL     1      20.917   9.578  30.096  1.00  0.00     0.726 A 
HETATM    7  N9  UNL     1      20.396  10.722  29.613  1.00  0.00    -0.020 N 
ATOM      8  H9  UNL     1      20.908  11.600  29.686  1.00  0.00     0.203 HD
ENDROOT
BRANCH   1   9
HETATM    9  N2  UNL     1      18.575  11.814  28.489  1.00  0.00    -0.215 N 
BRANCH   9  10
HETATM   10  C4  UNL     1      17.717  11.583  27.325  1.00  0.00     0.143 C 
BRANCH  10  11
HETATM   11  C3  UNL     1      16.318  12.065  27.562  1.00  0.00     0.052 C 
BRANCH  11  12
HETATM   12  C2  UNL     1      15.574  10.989  28.321  1.00  0.00     0.181 C 
HETATM   13  C1  UNL     1      15.391  11.364  29.771  1.00  0.00     0.039 C 
BRANCH  12  14
HETATM   14  N1  UNL     1      14.293  10.835  27.645  1.00  0.00    -0.075 N 
ATOM     15  H13 UNL     1      14.150  11.563  26.946  1.00  0.00     0.274 HD
ATOM     16  H12 UNL     1      14.291  10.022  27.029  1.00  0.00     0.274 HD
ATOM     17  H11 UNL     1      13.522  10.800  28.312  1.00  0.00     0.274 HD
ENDBRANCH  12  14
ENDBRANCH  11  12
ENDBRANCH  10  11
ENDBRANCH   9  10
BRANCH   9  18
HETATM   18  C5  UNL     1      18.763  13.113  29.046  1.00  0.00     0.168 C 
BRANCH  18  19
HETATM   19  C6  UNL     1      19.247  14.097  28.035  1.00  0.00     0.250 C 
BRANCH  19  20
HETATM   20  N3  UNL     1      18.460  15.318  27.998  1.00  0.00    -0.078 N 
ATOM     21  H33 UNL     1      18.944  16.045  27.471  1.00  0.00     0.274 HD
ATOM     22  H32 UNL     1      17.638  15.201  27.407  1.00  0.00     0.274 HD
ATOM     23  H31 UNL     1      18.197  15.656  28.924  1.00  0.00     0.274 HD
ENDBRANCH  19  20
ENDBRANCH  18  19
ENDBRANCH   9  18
ENDBRANCH   1   9
BRANCH   4  24
HETATM   24  N5  UNL     1      18.350   7.239  29.312  1.00  0.00    -0.232 N 
ATOM     25  H52 UNL     1      17.600   7.102  28.635  1.00  0.00     0.174 HD
ATOM     26  H51 UNL     1      18.558   6.451  29.925  1.00  0.00     0.174 HD
ENDBRANCH   4  24
BRANCH   6  27
HETATM   27  N8  UNL     1      22.080   9.623  30.652  1.00  0.00    -0.232 N 
ATOM     28  H82 UNL     1      22.323  10.449  31.201  1.00  0.00     0.174 HD
ATOM     29  H81 UNL     1      22.742   8.854  30.549  1.00  0.00     0.174 HD
ENDBRANCH   6  27
BRANCH   5  30
HETATM   30  N7  UNL     1      20.788   7.224  30.491  1.00  0.00    -0.309 N 
ATOM     31  H72 UNL     1      21.755   7.198  30.816  1.00  0.00     0.178 HD
ATOM     32  H71 UNL     1      20.188   6.400  30.497  1.00  0.00     0.178 HD
ENDBRANCH   5  30
TORSDOF 11
ENDMDL
MODEL 4
REMARK VINA RESULT: -6.288731859      1.293      3.252
REMARK  11 active torsions:
REMARK  status: ('A' for Active; 'I' for Inactive)
REMARK    1  A    between atoms: C2_2  and  N1_3 
REMARK    2  A    between atoms: C2_2  and  C3_7 
REMARK    3  A    between atoms: C3_7  and  C4_8 
REMARK    4  A    between atoms: C4_8  and  N2_9 
REMARK    5  A    between atoms: N2_9  and  C5_10 
REMARK    6  A    between atoms: N2_9  and  C7_16 
REMARK    7  A    between atoms: C5_10  and  C6_11 
REMARK    8  A    between atoms: C6_11  and  N3_12 
REMARK    9  A    between atoms: C8_19  and  N5_20 
REMARK   10  A    between atoms: N6_23  and  N7_24 
REMARK   11  A    between atoms: C9_27  and  N8_28 
ROOT
HETATM    1  C7  UNL     1      18.851  10.707  28.960  1.00  0.00     0.709 A 
HETATM    2  N4  UNL     1      20.079  10.767  29.563  1.00  0.00    -0.020 N 
ATOM      3  H4  UNL     1      20.531  11.673  29.680  1.00  0.00     0.203 HD
HETATM    4  C8  UNL     1      20.708   9.658  30.009  1.00  0.00     0.726 A 
HETATM    5  N6  UNL     1      20.063   8.490  29.827  1.00  0.00     0.084 N 
HETATM    6  C9  UNL     1      18.851   8.420  29.231  1.00  0.00     0.726 A 
HETATM    7  N9  UNL     1      18.235   9.533  28.792  1.00  0.00    -0.020 N 
ATOM      8  H9  UNL     1      17.321   9.481  28.343  1.00  0.00     0.203 HD
ENDROOT
BRANCH   1   9
HETATM    9  N2  UNL     1      18.278  11.922  28.551  1.00  0.00    -0.215 N 
BRANCH   9  10
HETATM   10  C4  UNL     1      19.216  12.982  28.176  1.00  0.00     0.143 C 
BRANCH  10  11
HETATM   11  C3  UNL     1      18.514  14.152  27.556  1.00  0.00     0.052 C 
BRANCH  11  12
HETATM   12  C2  UNL     1      19.184  15.416  28.048  1.00  0.00     0.181 C 
HETATM   13  C1  UNL     1      20.519  15.629  27.378  1.00  0.00     0.039 C 
BRANCH  12  14
HETATM   14  N1  UNL     1      18.260  16.501  27.750  1.00  0.00    -0.075 N 
ATOM     15  H13 UNL     1      18.415  17.303  28.360  1.00  0.00     0.274 HD
ATOM     16  H12 UNL     1      18.475  16.940  26.854  1.00  0.00     0.274 HD
ATOM     17  H11 UNL     1      17.290  16.186  27.787  1.00  0.00     0.274 HD
ENDBRANCH  12  14
ENDBRANCH  11  12
ENDBRANCH  10  11
ENDBRANCH   9  10
BRANCH   9  18
HETATM   18  C5  UNL     1      16.865  12.105  28.490  1.00  0.00     0.168 C 
BRANCH  18  19
HETATM   19  C6  UNL     1      16.237  12.113  29.843  1.00  0.00     0.250 C 
BRANCH  19  20
HETATM   20  N3  UNL     1      16.538  13.310  30.610  1.00  0.00    -0.078 N 
ATOM     21  H33 UNL     1      16.376  14.148  30.051  1.00  0.00     0.274 HD
ATOM     22  H32 UNL     1      15.841  13.456  31.340  1.00  0.00     0.274 HD
ATOM     23  H31 UNL     1      17.480  13.312  31.001  1.00  0.00     0.274 HD
ENDBRANCH  19  20
ENDBRANCH  18  19
ENDBRANCH   9  18
ENDBRANCH   1   9
BRANCH   4  24
HETATM   24  N5  UNL     1      21.862   9.756  30.579  1.00  0.00    -0.232 N 
ATOM     25  H52 UNL     1      22.419  10.610  30.585  1.00  0.00     0.174 HD
ATOM     26  H51 UNL     1      22.267   8.948  31.053  1.00  0.00     0.174 HD
ENDBRANCH   4  24
BRANCH   6  27
HETATM   27  N8  UNL     1      18.256   7.287  29.069  1.00  0.00    -0.232 N 
ATOM     28  H82 UNL     1      18.803   6.432  29.178  1.00  0.00     0.174 HD
ATOM     29  H81 UNL     1      17.263   7.243  28.839  1.00  0.00     0.174 HD
ENDBRANCH   6  27
BRANCH   5  30
HETATM   30  N7  UNL     1      20.694   7.330  30.294  1.00  0.00    -0.309 N 
ATOM     31  H72 UNL     1      21.502   7.394  30.913  1.00  0.00     0.178 HD
ATOM     32  H71 UNL     1      20.317   6.436  29.981  1.00  0.00     0.178 HD
ENDBRANCH   5  30
TORSDOF 11
ENDMDL
MODEL 5
REMARK VINA RESULT: -6.278470541      1.578      3.956
REMARK  11 active torsions:
REMARK  status: ('A' for Active; 'I' for Inactive)
REMARK    1  A    between atoms: C2_2  and  N1_3 
REMARK    2  A    between atoms: C2_2  and  C3_7 
REMARK    3  A    between atoms: C3_7  and  C4_8 
REMARK    4  A    between atoms: C4_8  and  N2_9 
REMARK    5  A    between atoms: N2_9  and  C5_10 
REMARK    6  A    between atoms: N2_9  and  C7_16 
REMARK    7  A    between atoms: C5_10  and  C6_11 
REMARK    8  A    between atoms: C6_11  and  N3_12 
REMARK    9  A    between atoms: C8_19  and  N5_20 
REMARK   10  A    between atoms: N6_23  and  N7_24 
REMARK   11  A    between atoms: C9_27  and  N8_28 
ROOT
HETATM    1  C7  UNL     1      17.864  10.518  29.244  1.00  0.00     0.709 A 
HETATM    2  N4  UNL     1      17.163   9.585  29.961  1.00  0.00    -0.020 N 
ATOM      3  H4  UNL     1      16.151   9.531  29.850  1.00  0.00     0.203 HD
HETATM    4  C8  UNL     1      17.777   8.734  30.811  1.00  0.00     0.726 A 
HETATM    5  N6  UNL     1      19.114   8.853  30.916  1.00  0.00     0.084 N 
HETATM    6  C9  UNL     1      19.815   9.771  30.214  1.00  0.00     0.726 A 
HETATM    7  N9  UNL     1      19.191  10.613  29.370  1.00  0.00    -0.020 N 
ATOM      8  H9  UNL     1      19.718  11.306  28.840  1.00  0.00     0.203 HD
ENDROOT
BRANCH   1   9
HETATM    9  N2  UNL     1      17.129  11.341  28.374  1.00  0.00    -0.215 N 
BRANCH   9  10
HETATM   10  C4  UNL     1      17.853  11.856  27.210  1.00  0.00     0.143 C 
BRANCH  10  11
HETATM   11  C3  UNL     1      17.867  13.354  27.182  1.00  0.00     0.052 C 
BRANCH  11  12
HETATM   12  C2  UNL     1      19.078  13.826  27.956  1.00  0.00     0.181 C 
HETATM   13  C1  UNL     1      19.929  14.761  27.131  1.00  0.00     0.039 C 
BRANCH  12  14
HETATM   14  N1  UNL     1      18.559  14.488  29.145  1.00  0.00    -0.075 N 
ATOM     15  H13 UNL     1      18.521  13.852  29.941  1.00  0.00     0.274 HD
ATOM     16  H12 UNL     1      19.226  15.165  29.517  1.00  0.00     0.274 HD
ATOM     17  H11 UNL     1      17.651  14.918  28.966  1.00  0.00     0.274 HD
ENDBRANCH  12  14
ENDBRANCH  11  12
ENDBRANCH  10  11
ENDBRANCH   9  10
BRANCH   9  18
HETATM   18  C5  UNL     1      15.754  11.640  28.604  1.00  0.00     0.168 C 
BRANCH  18  19
HETATM   19  C6  UNL     1      14.873  11.112  27.523  1.00  0.00     0.250 C 
BRANCH  19  20
HETATM   20  N3  UNL     1      14.124   9.931  27.918  1.00  0.00    -0.078 N 
ATOM     21  H33 UNL     1      13.361  10.179  28.548  1.00  0.00     0.274 HD
ATOM     22  H32 UNL     1      13.582   9.567  27.134  1.00  0.00     0.274 HD
ATOM     23  H31 UNL     1      14.708   9.201  28.325  1.00  0.00     0.274 HD
ENDBRANCH  19  20
ENDBRANCH  18  19
ENDBRANCH   9  18
ENDBRANCH   1   9
BRANCH   4  24
HETATM   24  N5  UNL     1      17.082   7.863  31.464  1.00  0.00    -0.232 N 
ATOM     25  H52 UNL     1      17.282   6.863  31.461  1.00  0.00     0.174 HD
ATOM     26  H51 UNL     1      16.281   8.163  32.019  1.00  0.00     0.174 HD
ENDBRANCH   4  24
BRANCH   6  27
HETATM   27  N8  UNL     1      21.096   9.864  30.335  1.00  0.00    -0.232 N 
ATOM     28  H82 UNL     1      21.502  10.788  30.484  1.00  0.00     0.174 HD
ATOM     29  H81 UNL     1      21.689   9.036  30.284  1.00  0.00     0.174 HD
ENDBRANCH   6  27
BRANCH   5  30
HETATM   30  N7  UNL     1      19.769   7.969  31.785  1.00  0.00    -0.309 N 
ATOM     31  H72 UNL     1      19.445   7.852  32.745  1.00  0.00     0.178 HD
ATOM     32  H71 UNL     1      20.577   7.467  31.416  1.00  0.00     0.178 HD
ENDBRANCH   5  30
TORSDOF 11
ENDMDL
