MODEL 1
REMARK VINA RESULT: -9.391621471      0.000      0.000
REMARK  11 active torsions:
REMARK  status: ('A' for Active; 'I' for Inactive)
REMARK    1  A    between atoms: N1_1  and  C1_5 
REMARK    2  A    between atoms: C1_5  and  C2_6 
REMARK    3  A    between atoms: C2_6  and  C3_7 
REMARK    4  A    between atoms: C3_7  and  C4_8 
REMARK    5  A    between atoms: C4_8  and  C5_9 
REMARK    6  A    between atoms: C5_9  and  C6_10 
REMARK    7  A    between atoms: C10_14  and  N2_15 
REMARK    8  A    between atoms: N3_17  and  C11_19 
REMARK    9  A    between atoms: C16_24  and  C17_25 
REMARK   10  A    between atoms: C17_25  and  C18_26 
REMARK   11  A    between atoms: C17_25  and  C24_32 
ROOT
HETATM    1  C11 UNL     1      13.186  22.139  43.423  1.00  0.00     0.055 A 
HETATM    2  C12 UNL     1      12.062  22.450  44.187  1.00  0.00     0.031 A 
HETATM    3  C13 UNL     1      12.190  22.866  45.493  1.00  0.00     0.002 A 
HETATM    4  C14 UNL     1      13.460  22.964  46.016  1.00  0.00     0.001 A 
HETATM    5  C15 UNL     1      14.587  22.651  45.243  1.00  0.00     0.010 A 
HETATM    6  C16 UNL     1      14.456  22.237  43.946  1.00  0.00    -0.017 A 
ENDROOT
BRANCH   1   7
HETATM    7  N3  UNL     1      13.016  21.712  42.085  1.00  0.00    -0.300 N 
HETATM    8  N2  UNL     1      12.617  20.521  41.868  1.00  0.00    -0.300 N 
ATOM      9  H2  UNL     1      12.428  19.903  42.657  1.00  0.00     0.187 HD
ATOM     10  H3  UNL     1      13.210  22.344  41.309  1.00  0.00     0.187 HD
BRANCH   8  11
HETATM   11  C10 UNL     1      12.431  20.041  40.541  1.00  0.00     0.048 A 
HETATM   12  C9  UNL     1      13.531  19.846  39.723  1.00  0.00     0.031 A 
HETATM   13  C8  UNL     1      13.424  19.383  38.433  1.00  0.00     0.003 A 
HETATM   14  C7  UNL     1      12.187  19.096  37.912  1.00  0.00     0.007 A 
HETATM   15  C6  UNL     1      11.060  19.283  38.716  1.00  0.00    -0.056 A 
HETATM   16  C30 UNL     1      11.197  19.749  40.006  1.00  0.00     0.038 A 
BRANCH  15  17
HETATM   17  C5  UNL     1       9.742  18.961  38.114  1.00  0.00     0.038 C 
BRANCH  17  18
HETATM   18  C4  UNL     1       9.097  20.267  37.687  1.00  0.00     0.005 C 
BRANCH  18  19
HETATM   19  C3  UNL     1       7.611  20.270  38.035  1.00  0.00     0.002 C 
BRANCH  19  20
HETATM   20  C2  UNL     1       7.388  19.134  39.020  1.00  0.00     0.027 C 
BRANCH  20  21
HETATM   21  C1  UNL     1       6.235  18.255  38.581  1.00  0.00     0.229 C 
BRANCH  21  22
HETATM   22  N1  UNL     1       6.498  16.889  38.995  1.00  0.00    -0.079 N 
ATOM     23  H13 UNL     1       7.481  16.636  38.898  1.00  0.00     0.274 HD
ATOM     24  H12 UNL     1       6.417  16.766  40.004  1.00  0.00     0.274 HD
ATOM     25  H11 UNL     1       5.882  16.261  38.477  1.00  0.00     0.274 HD
ENDBRANCH  21  22
ENDBRANCH  20  21
ENDBRANCH  19  20
ENDBRANCH  18  19
ENDBRANCH  17  18
ENDBRANCH  15  17
ENDBRANCH   8  11
ENDBRANCH   1   7
BRANCH   6  26
HETATM   26  C17 UNL     1      15.622  21.901  43.095  1.00  0.00     0.087 C 
BRANCH  26  27
HETATM   27  C18 UNL     1      15.964  22.911  42.094  1.00  0.00    -0.045 A 
HETATM   28  C19 UNL     1      16.051  24.265  42.376  1.00  0.00     0.008 A 
HETATM   29  C20 UNL     1      16.366  25.148  41.372  1.00  0.00     0.001 A 
HETATM   30  C21 UNL     1      16.605  24.743  40.072  1.00  0.00     0.000 A 
HETATM   31  C22 UNL     1      16.523  23.413  39.775  1.00  0.00     0.001 A 
HETATM   32  C23 UNL     1      16.201  22.514  40.798  1.00  0.00     0.008 A 
ENDBRANCH  26  27
BRANCH  26  33
HETATM   33  C24 UNL     1      16.806  21.601  43.932  1.00  0.00    -0.045 A 
HETATM   34  C25 UNL     1      17.933  22.373  43.865  1.00  0.00     0.008 A 
HETATM   35  C26 UNL     1      19.049  22.092  44.660  1.00  0.00     0.001 A 
HETATM   36  C27 UNL     1      19.014  21.029  45.513  1.00  0.00     0.000 A 
HETATM   37  C28 UNL     1      17.881  20.272  45.563  1.00  0.00     0.001 A 
HETATM   38  C29 UNL     1      16.781  20.540  44.789  1.00  0.00     0.008 A 
ENDBRANCH  26  33
ENDBRANCH   6  26
TORSDOF 11
ENDMDL
MODEL 2
REMARK VINA RESULT: -9.010696760      1.227      1.394
REMARK  11 active torsions:
REMARK  status: ('A' for Active; 'I' for Inactive)
REMARK    1  A    between atoms: N1_1  and  C1_5 
REMARK    2  A    between atoms: C1_5  and  C2_6 
REMARK    3  A    between atoms: C2_6  and  C3_7 
REMARK    4  A    between atoms: C3_7  and  C4_8 
REMARK    5  A    between atoms: C4_8  and  C5_9 
REMARK    6  A    between atoms: C5_9  and  C6_10 
REMARK    7  A    between atoms: C10_14  and  N2_15 
REMARK    8  A    between atoms: N3_17  and  C11_19 
REMARK    9  A    between atoms: C16_24  and  C17_25 
REMARK   10  A    between atoms: C17_25  and  C18_26 
REMARK   11  A    between atoms: C17_25  and  C24_32 
ROOT
HETATM    1  C11 UNL     1      13.146  22.060  43.249  1.00  0.00     0.055 A 
HETATM    2  C12 UNL     1      11.999  22.353  43.986  1.00  0.00     0.031 A 
HETATM    3  C13 UNL     1      12.090  22.792  45.288  1.00  0.00     0.002 A 
HETATM    4  C14 UNL     1      13.347  22.932  45.834  1.00  0.00     0.001 A 
HETATM    5  C15 UNL     1      14.496  22.636  45.088  1.00  0.00     0.010 A 
HETATM    6  C16 UNL     1      14.403  22.200  43.795  1.00  0.00    -0.017 A 
ENDROOT
BRANCH   1   7
HETATM    7  N3  UNL     1      13.014  21.608  41.915  1.00  0.00    -0.300 N 
HETATM    8  N2  UNL     1      12.502  20.460  41.705  1.00  0.00    -0.300 N 
ATOM      9  H2  UNL     1      12.198  19.893  42.496  1.00  0.00     0.187 HD
ATOM     10  H3  UNL     1      13.324  22.189  41.137  1.00  0.00     0.187 HD
BRANCH   8  11
HETATM   11  C10 UNL     1      12.347  19.957  40.382  1.00  0.00     0.048 A 
HETATM   12  C9  UNL     1      13.460  19.815  39.569  1.00  0.00     0.031 A 
HETATM   13  C8  UNL     1      13.383  19.335  38.284  1.00  0.00     0.003 A 
HETATM   14  C7  UNL     1      12.167  18.976  37.762  1.00  0.00     0.007 A 
HETATM   15  C6  UNL     1      11.028  19.108  38.560  1.00  0.00    -0.056 A 
HETATM   16  C30 UNL     1      11.133  19.593  39.846  1.00  0.00     0.038 A 
BRANCH  15  17
HETATM   17  C5  UNL     1       9.732  18.709  37.956  1.00  0.00     0.038 C 
BRANCH  17  18
HETATM   18  C4  UNL     1       8.626  19.384  38.746  1.00  0.00     0.005 C 
BRANCH  18  19
HETATM   19  C3  UNL     1       8.033  20.545  37.952  1.00  0.00     0.002 C 
BRANCH  19  20
HETATM   20  C2  UNL     1       7.280  19.937  36.781  1.00  0.00     0.027 C 
BRANCH  20  21
HETATM   21  C1  UNL     1       7.149  20.931  35.646  1.00  0.00     0.229 C 
BRANCH  21  22
HETATM   22  N1  UNL     1       8.337  21.763  35.606  1.00  0.00    -0.079 N 
ATOM     23  H13 UNL     1       8.302  22.524  36.285  1.00  0.00     0.274 HD
ATOM     24  H12 UNL     1       9.160  21.284  35.971  1.00  0.00     0.274 HD
ATOM     25  H11 UNL     1       8.476  22.101  34.653  1.00  0.00     0.274 HD
ENDBRANCH  21  22
ENDBRANCH  20  21
ENDBRANCH  19  20
ENDBRANCH  18  19
ENDBRANCH  17  18
ENDBRANCH  15  17
ENDBRANCH   8  11
ENDBRANCH   1   7
BRANCH   6  26
HETATM   26  C17 UNL     1      15.594  21.882  42.973  1.00  0.00     0.087 C 
BRANCH  26  27
HETATM   27  C18 UNL     1      15.956  22.906  41.994  1.00  0.00    -0.045 A 
HETATM   28  C19 UNL     1      16.030  24.256  42.295  1.00  0.00     0.008 A 
HETATM   29  C20 UNL     1      16.365  25.154  41.311  1.00  0.00     0.001 A 
HETATM   30  C21 UNL     1      16.639  24.767  40.012  1.00  0.00     0.000 A 
HETATM   31  C22 UNL     1      16.571  23.440  39.696  1.00  0.00     0.001 A 
HETATM   32  C23 UNL     1      16.228  22.527  40.699  1.00  0.00     0.008 A 
ENDBRANCH  26  27
BRANCH  26  33
HETATM   33  C24 UNL     1      16.757  21.579  43.838  1.00  0.00    -0.045 A 
HETATM   34  C25 UNL     1      17.896  22.334  43.780  1.00  0.00     0.008 A 
HETATM   35  C26 UNL     1      18.992  22.050  44.602  1.00  0.00     0.001 A 
HETATM   36  C27 UNL     1      18.924  21.003  45.472  1.00  0.00     0.000 A 
HETATM   37  C28 UNL     1      17.779  20.263  45.513  1.00  0.00     0.001 A 
HETATM   38  C29 UNL     1      16.699  20.534  44.712  1.00  0.00     0.008 A 
ENDBRANCH  26  33
ENDBRANCH   6  26
TORSDOF 11
ENDMDL
MODEL 3
REMARK VINA RESULT: -8.736208604      2.235      3.811
REMARK  11 active torsions:
REMARK  status: ('A' for Active; 'I' for Inactive)
REMARK    1  A    between atoms: N1_1  and  C1_5 
REMARK    2  A    between atoms: C1_5  and  C2_6 
REMARK    3  A    between atoms: C2_6  and  C3_7 
REMARK    4  A    between atoms: C3_7  and  C4_8 
REMARK    5  A    between atoms: C4_8  and  C5_9 
REMARK    6  A    between atoms: C5_9  and  C6_10 
REMARK    7  A    between atoms: C10_14  and  N2_15 
REMARK    8  A    between atoms: N3_17  and  C11_19 
REMARK    9  A    between atoms: C16_24  and  C17_25 
REMARK   10  A    between atoms: C17_25  and  C18_26 
REMARK   11  A    between atoms: C17_25  and  C24_32 
ROOT
HETATM    1  C11 UNL     1      13.156  22.066  43.201  1.00  0.00     0.055 A 
HETATM    2  C12 UNL     1      12.008  22.351  43.939  1.00  0.00     0.031 A 
HETATM    3  C13 UNL     1      12.097  22.778  45.245  1.00  0.00     0.002 A 
HETATM    4  C14 UNL     1      13.353  22.914  45.794  1.00  0.00     0.001 A 
HETATM    5  C15 UNL     1      14.504  22.626  45.047  1.00  0.00     0.010 A 
HETATM    6  C16 UNL     1      14.412  22.202  43.750  1.00  0.00    -0.017 A 
ENDROOT
BRANCH   1   7
HETATM    7  N3  UNL     1      13.027  21.627  41.863  1.00  0.00    -0.300 N 
HETATM    8  N2  UNL     1      12.585  20.451  41.644  1.00  0.00    -0.300 N 
ATOM      9  H2  UNL     1      12.335  19.854  42.431  1.00  0.00     0.187 HD
ATOM     10  H3  UNL     1      13.282  22.238  41.088  1.00  0.00     0.187 HD
BRANCH   8  11
HETATM   11  C10 UNL     1      12.436  19.960  40.316  1.00  0.00     0.048 A 
HETATM   12  C9  UNL     1      11.186  19.566  39.868  1.00  0.00     0.031 A 
HETATM   13  C8  UNL     1      10.971  19.084  38.598  1.00  0.00     0.003 A 
HETATM   14  C7  UNL     1      12.021  18.980  37.722  1.00  0.00     0.007 A 
HETATM   15  C6  UNL     1      13.293  19.371  38.147  1.00  0.00    -0.056 A 
HETATM   16  C30 UNL     1      13.480  19.851  39.426  1.00  0.00     0.038 A 
BRANCH  15  17
HETATM   17  C5  UNL     1      14.400  19.242  37.168  1.00  0.00     0.038 C 
BRANCH  17  18
HETATM   18  C4  UNL     1      14.249  17.903  36.471  1.00  0.00     0.005 C 
BRANCH  18  19
HETATM   19  C3  UNL     1      15.617  17.298  36.166  1.00  0.00     0.002 C 
BRANCH  19  20
HETATM   20  C2  UNL     1      15.469  15.791  36.293  1.00  0.00     0.027 C 
BRANCH  20  21
HETATM   21  C1  UNL     1      16.628  15.196  37.065  1.00  0.00     0.229 C 
BRANCH  21  22
HETATM   22  N1  UNL     1      16.743  13.787  36.737  1.00  0.00    -0.079 N 
ATOM     23  H13 UNL     1      15.862  13.288  36.855  1.00  0.00     0.274 HD
ATOM     24  H12 UNL     1      16.863  13.630  35.736  1.00  0.00     0.274 HD
ATOM     25  H11 UNL     1      17.499  13.378  37.287  1.00  0.00     0.274 HD
ENDBRANCH  21  22
ENDBRANCH  20  21
ENDBRANCH  19  20
ENDBRANCH  18  19
ENDBRANCH  17  18
ENDBRANCH  15  17
ENDBRANCH   8  11
ENDBRANCH   1   7
BRANCH   6  26
HETATM   26  C17 UNL     1      15.604  21.893  42.926  1.00  0.00     0.087 C 
BRANCH  26  27
HETATM   27  C18 UNL     1      15.960  22.922  41.949  1.00  0.00    -0.045 A 
HETATM   28  C19 UNL     1      16.034  24.271  42.255  1.00  0.00     0.008 A 
HETATM   29  C20 UNL     1      16.363  25.172  41.273  1.00  0.00     0.001 A 
HETATM   30  C21 UNL     1      16.628  24.791  39.970  1.00  0.00     0.000 A 
HETATM   31  C22 UNL     1      16.559  23.465  39.649  1.00  0.00     0.001 A 
HETATM   32  C23 UNL     1      16.223  22.547  40.651  1.00  0.00     0.008 A 
ENDBRANCH  26  27
BRANCH  26  33
HETATM   33  C24 UNL     1      16.770  21.596  43.790  1.00  0.00    -0.045 A 
HETATM   34  C25 UNL     1      17.911  22.347  43.720  1.00  0.00     0.008 A 
HETATM   35  C26 UNL     1      19.009  22.068  44.540  1.00  0.00     0.001 A 
HETATM   36  C27 UNL     1      18.942  21.031  45.422  1.00  0.00     0.000 A 
HETATM   37  C28 UNL     1      17.795  20.294  45.474  1.00  0.00     0.001 A 
HETATM   38  C29 UNL     1      16.713  20.560  44.675  1.00  0.00     0.008 A 
ENDBRANCH  26  33
ENDBRANCH   6  26
TORSDOF 11
ENDMDL
MODEL 4
REMARK VINA RESULT: -8.425600587      1.633      2.856
REMARK  11 active torsions:
REMARK  status: ('A' for Active; 'I' for Inactive)
REMARK    1  A    between atoms: N1_1  and  C1_5 
REMARK    2  A    between atoms: C1_5  and  C2_6 
REMARK    3  A    between atoms: C2_6  and  C3_7 
REMARK    4  A    between atoms: C3_7  and  C4_8 
REMARK    5  A    between atoms: C4_8  and  C5_9 
REMARK    6  A    between atoms: C5_9  and  C6_10 
REMARK    7  A    between atoms: C10_14  and  N2_15 
REMARK    8  A    between atoms: N3_17  and  C11_19 
REMARK    9  A    between atoms: C16_24  and  C17_25 
REMARK   10  A    between atoms: C17_25  and  C18_26 
REMARK   11  A    between atoms: C17_25  and  C24_32 
ROOT
HETATM    1  C11 UNL     1      13.145  22.125  43.342  1.00  0.00     0.055 A 
HETATM    2  C12 UNL     1      12.026  22.433  44.115  1.00  0.00     0.031 A 
HETATM    3  C13 UNL     1      12.164  22.850  45.420  1.00  0.00     0.002 A 
HETATM    4  C14 UNL     1      13.438  22.951  45.933  1.00  0.00     0.001 A 
HETATM    5  C15 UNL     1      14.559  22.639  45.151  1.00  0.00     0.010 A 
HETATM    6  C16 UNL     1      14.420  22.226  43.855  1.00  0.00    -0.017 A 
ENDROOT
BRANCH   1   7
HETATM    7  N3  UNL     1      12.966  21.696  42.006  1.00  0.00    -0.300 N 
HETATM    8  N2  UNL     1      12.610  20.492  41.791  1.00  0.00    -0.300 N 
ATOM      9  H2  UNL     1      12.462  19.863  42.580  1.00  0.00     0.187 HD
ATOM     10  H3  UNL     1      13.119  22.339  41.229  1.00  0.00     0.187 HD
BRANCH   8  11
HETATM   11  C10 UNL     1      12.417  20.010  40.465  1.00  0.00     0.048 A 
HETATM   12  C9  UNL     1      11.139  19.705  40.027  1.00  0.00     0.031 A 
HETATM   13  C8  UNL     1      10.880  19.238  38.760  1.00  0.00     0.003 A 
HETATM   14  C7  UNL     1      11.913  19.058  37.876  1.00  0.00     0.007 A 
HETATM   15  C6  UNL     1      13.213  19.359  38.291  1.00  0.00    -0.056 A 
HETATM   16  C30 UNL     1      13.444  19.825  39.568  1.00  0.00     0.038 A 
BRANCH  15  17
HETATM   17  C5  UNL     1      14.301  19.149  37.304  1.00  0.00     0.038 C 
BRANCH  17  18
HETATM   18  C4  UNL     1      13.742  18.312  36.169  1.00  0.00     0.005 C 
BRANCH  18  19
HETATM   19  C3  UNL     1      14.220  16.867  36.282  1.00  0.00     0.002 C 
BRANCH  19  20
HETATM   20  C2  UNL     1      13.176  16.004  35.593  1.00  0.00     0.027 C 
BRANCH  20  21
HETATM   21  C1  UNL     1      12.150  16.860  34.881  1.00  0.00     0.229 C 
BRANCH  21  22
HETATM   22  N1  UNL     1      10.821  16.381  35.212  1.00  0.00    -0.079 N 
ATOM     23  H13 UNL     1      10.769  15.363  35.235  1.00  0.00     0.274 HD
ATOM     24  H12 UNL     1      10.576  16.559  36.187  1.00  0.00     0.274 HD
ATOM     25  H11 UNL     1      10.148  16.789  34.562  1.00  0.00     0.274 HD
ENDBRANCH  21  22
ENDBRANCH  20  21
ENDBRANCH  19  20
ENDBRANCH  18  19
ENDBRANCH  17  18
ENDBRANCH  15  17
ENDBRANCH   8  11
ENDBRANCH   1   7
BRANCH   6  26
HETATM   26  C17 UNL     1      15.579  21.892  42.995  1.00  0.00     0.087 C 
BRANCH  26  27
HETATM   27  C18 UNL     1      15.912  22.903  41.992  1.00  0.00    -0.045 A 
HETATM   28  C19 UNL     1      16.006  24.256  42.275  1.00  0.00     0.008 A 
HETATM   29  C20 UNL     1      16.311  25.140  41.270  1.00  0.00     0.001 A 
HETATM   30  C21 UNL     1      16.533  24.737  39.966  1.00  0.00     0.000 A 
HETATM   31  C22 UNL     1      16.444  23.408  39.667  1.00  0.00     0.001 A 
HETATM   32  C23 UNL     1      16.132  22.508  40.693  1.00  0.00     0.008 A 
ENDBRANCH  26  27
BRANCH  26  33
HETATM   33  C24 UNL     1      16.771  21.593  43.823  1.00  0.00    -0.045 A 
HETATM   34  C25 UNL     1      17.891  22.375  43.756  1.00  0.00     0.008 A 
HETATM   35  C26 UNL     1      19.014  22.095  44.542  1.00  0.00     0.001 A 
HETATM   36  C27 UNL     1      18.991  21.024  45.386  1.00  0.00     0.000 A 
HETATM   37  C28 UNL     1      17.864  20.258  45.436  1.00  0.00     0.001 A 
HETATM   38  C29 UNL     1      16.758  20.525  44.670  1.00  0.00     0.008 A 
ENDBRANCH  26  33
ENDBRANCH   6  26
TORSDOF 11
ENDMDL
MODEL 5
REMARK VINA RESULT: -8.407242981      1.864      3.880
REMARK  11 active torsions:
REMARK  status: ('A' for Active; 'I' for Inactive)
REMARK    1  A    between atoms: N1_1  and  C1_5 
REMARK    2  A    between atoms: C1_5  and  C2_6 
REMARK    3  A    between atoms: C2_6  and  C3_7 
REMARK    4  A    between atoms: C3_7  and  C4_8 
REMARK    5  A    between atoms: C4_8  and  C5_9 
REMARK    6  A    between atoms: C5_9  and  C6_10 
REMARK    7  A    between atoms: C10_14  and  N2_15 
REMARK    8  A    between atoms: N3_17  and  C11_19 
REMARK    9  A    between atoms: C16_24  and  C17_25 
REMARK   10  A    between atoms: C17_25  and  C18_26 
REMARK   11  A    between atoms: C17_25  and  C24_32 
ROOT
HETATM    1  C11 UNL     1      13.118  22.075  43.185  1.00  0.00     0.055 A 
HETATM    2  C12 UNL     1      11.974  22.367  43.927  1.00  0.00     0.031 A 
HETATM    3  C13 UNL     1      12.070  22.789  45.234  1.00  0.00     0.002 A 
HETATM    4  C14 UNL     1      13.328  22.913  45.780  1.00  0.00     0.001 A 
HETATM    5  C15 UNL     1      14.475  22.618  45.029  1.00  0.00     0.010 A 
HETATM    6  C16 UNL     1      14.376  22.198  43.731  1.00  0.00    -0.017 A 
ENDROOT
BRANCH   1   7
HETATM    7  N3  UNL     1      12.981  21.640  41.845  1.00  0.00    -0.300 N 
HETATM    8  N2  UNL     1      12.604  20.443  41.625  1.00  0.00    -0.300 N 
ATOM      9  H2  UNL     1      12.409  19.825  42.412  1.00  0.00     0.187 HD
ATOM     10  H3  UNL     1      13.180  22.273  41.071  1.00  0.00     0.187 HD
BRANCH   8  11
HETATM   11  C10 UNL     1      12.451  19.955  40.296  1.00  0.00     0.048 A 
HETATM   12  C9  UNL     1      11.192  19.605  39.836  1.00  0.00     0.031 A 
HETATM   13  C8  UNL     1      10.973  19.129  38.565  1.00  0.00     0.003 A 
HETATM   14  C7  UNL     1      12.027  18.988  37.699  1.00  0.00     0.007 A 
HETATM   15  C6  UNL     1      13.308  19.334  38.137  1.00  0.00    -0.056 A 
HETATM   16  C30 UNL     1      13.499  19.808  39.417  1.00  0.00     0.038 A 
BRANCH  15  17
HETATM   17  C5  UNL     1      14.420  19.165  37.169  1.00  0.00     0.038 C 
BRANCH  17  18
HETATM   18  C4  UNL     1      13.971  19.746  35.841  1.00  0.00     0.005 C 
BRANCH  18  19
HETATM   19  C3  UNL     1      15.024  20.704  35.291  1.00  0.00     0.002 C 
BRANCH  19  20
HETATM   20  C2  UNL     1      16.099  20.834  36.357  1.00  0.00     0.027 C 
BRANCH  20  21
HETATM   21  C1  UNL     1      16.910  22.097  36.157  1.00  0.00     0.229 C 
BRANCH  21  22
HETATM   22  N1  UNL     1      16.006  23.212  35.945  1.00  0.00    -0.079 N 
ATOM     23  H13 UNL     1      15.033  22.914  35.866  1.00  0.00     0.274 HD
ATOM     24  H12 UNL     1      15.909  23.797  36.775  1.00  0.00     0.274 HD
ATOM     25  H11 UNL     1      16.317  23.743  35.131  1.00  0.00     0.274 HD
ENDBRANCH  21  22
ENDBRANCH  20  21
ENDBRANCH  19  20
ENDBRANCH  18  19
ENDBRANCH  17  18
ENDBRANCH  15  17
ENDBRANCH   8  11
ENDBRANCH   1   7
BRANCH   6  26
HETATM   26  C17 UNL     1      15.563  21.882  42.903  1.00  0.00     0.087 C 
BRANCH  26  27
HETATM   27  C18 UNL     1      15.925  22.911  41.928  1.00  0.00    -0.045 A 
HETATM   28  C19 UNL     1      16.022  24.257  42.241  1.00  0.00     0.008 A 
HETATM   29  C20 UNL     1      16.355  25.159  41.260  1.00  0.00     0.001 A 
HETATM   30  C21 UNL     1      16.603  24.781  39.954  1.00  0.00     0.000 A 
HETATM   31  C22 UNL     1      16.512  23.459  39.626  1.00  0.00     0.001 A 
HETATM   32  C23 UNL     1      16.171  22.540  40.626  1.00  0.00     0.008 A 
ENDBRANCH  26  27
BRANCH  26  33
HETATM   33  C24 UNL     1      16.729  21.571  43.762  1.00  0.00    -0.045 A 
HETATM   34  C25 UNL     1      17.867  22.327  43.708  1.00  0.00     0.008 A 
HETATM   35  C26 UNL     1      18.966  22.036  44.525  1.00  0.00     0.001 A 
HETATM   36  C27 UNL     1      18.900  20.982  45.386  1.00  0.00     0.000 A 
HETATM   37  C28 UNL     1      17.755  20.242  45.423  1.00  0.00     0.001 A 
HETATM   38  C29 UNL     1      16.673  20.519  44.628  1.00  0.00     0.008 A 
ENDBRANCH  26  33
ENDBRANCH   6  26
TORSDOF 11
ENDMDL
