MODEL 1
REMARK VINA RESULT: -8.767254768      0.000      0.000
REMARK  12 active torsions:
REMARK  status: ('A' for Active; 'I' for Inactive)
REMARK    1  A    between atoms: C1_2  and  N1_3 
REMARK    2  A    between atoms: C1_2  and  O1_21 
REMARK    3  A    between atoms: N1_3  and  C2_5 
REMARK    4  A    between atoms: C2_5  and  C3_6 
REMARK    5  A    between atoms: C3_6  and  C4_7 
REMARK    6  A    between atoms: C4_7  and  C5_8 
REMARK    7  A    between atoms: C5_8  and  C6_9 
REMARK    8  A    between atoms: C6_9  and  C7_10 
REMARK    9  A    between atoms: C7_10  and  C8_11 
REMARK   10  A    between atoms: C8_11  and  C9_12 
REMARK   11  A    between atoms: C9_12  and  C10_13 
REMARK   12  A    between atoms: O1_21  and  C18_22 
ROOT
HETATM    1  C2  UNL     1      12.918  22.455  44.784  1.00  0.00     0.122 C 
ENDROOT
BRANCH   1   2
HETATM    2  N1  UNL     1      13.443  23.586  45.523  1.00  0.00    -0.361 N 
ATOM      3  H1  UNL     1      12.885  24.433  45.638  1.00  0.00     0.162 HD
BRANCH   2   4
HETATM    4  C1  UNL     1      14.734  23.501  46.082  1.00  0.00     0.215 C 
HETATM    5  S1  UNL     1      14.925  22.815  47.542  1.00  0.00    -0.033 SA
BRANCH   4   6
HETATM    6  O1  UNL     1      15.825  23.985  45.412  1.00  0.00    -0.284 OA
BRANCH   6   7
HETATM    7  C18 UNL     1      16.610  23.169  44.639  1.00  0.00     0.089 A 
HETATM    8  C19 UNL     1      17.356  22.174  45.226  1.00  0.00     0.038 A 
HETATM    9  C20 UNL     1      18.155  21.337  44.464  1.00  0.00     0.004 A 
HETATM   10  C21 UNL     1      18.180  21.531  43.102  1.00  0.00     0.012 A 
HETATM   11  C22 UNL     1      17.431  22.531  42.501  1.00  0.00    -0.023 A 
HETATM   12  C23 UNL     1      17.479  22.699  41.125  1.00  0.00     0.012 A 
HETATM   13  C27 UNL     1      16.637  23.362  43.257  1.00  0.00     0.008 A 
HETATM   14  C24 UNL     1      16.742  23.687  40.510  1.00  0.00     0.001 A 
HETATM   15  C25 UNL     1      15.944  24.518  41.297  1.00  0.00     0.001 A 
HETATM   16  C26 UNL     1      15.888  24.359  42.682  1.00  0.00     0.015 A 
ENDBRANCH   6   7
ENDBRANCH   4   6
ENDBRANCH   2   4
ENDBRANCH   1   2
BRANCH   1  17
HETATM   17  C3  UNL     1      12.321  22.825  43.457  1.00  0.00     0.020 C 
BRANCH  17  18
HETATM   18  C4  UNL     1      13.152  22.193  42.365  1.00  0.00     0.002 C 
BRANCH  18  19
HETATM   19  C5  UNL     1      13.823  20.921  42.783  1.00  0.00     0.000 C 
BRANCH  19  20
HETATM   20  C6  UNL     1      13.312  19.723  42.000  1.00  0.00     0.000 C 
BRANCH  20  21
HETATM   21  C7  UNL     1      13.160  20.155  40.566  1.00  0.00     0.000 C 
BRANCH  21  22
HETATM   22  C8  UNL     1      11.847  19.708  39.985  1.00  0.00     0.000 C 
BRANCH  22  23
HETATM   23  C9  UNL     1      12.024  19.108  38.635  1.00  0.00     0.004 C 
BRANCH  23  24
HETATM   24  C10 UNL     1      10.677  18.963  37.902  1.00  0.00    -0.014 C 
HETATM   25  C11 UNL     1       9.685  19.809  38.614  1.00  0.00     0.004 C 
HETATM   26  C12 UNL     1       8.681  20.450  37.643  1.00  0.00     0.000 C 
HETATM   27  C13 UNL     1       7.468  19.601  37.447  1.00  0.00     0.000 C 
HETATM   28  C14 UNL     1       7.839  18.482  36.482  1.00  0.00     0.000 C 
HETATM   29  C15 UNL     1       7.894  17.157  37.163  1.00  0.00     0.000 C 
HETATM   30  C16 UNL     1       9.047  17.049  38.156  1.00  0.00     0.000 C 
HETATM   31  C17 UNL     1      10.330  17.562  37.641  1.00  0.00     0.004 C 
ENDBRANCH  23  24
ENDBRANCH  22  23
ENDBRANCH  21  22
ENDBRANCH  20  21
ENDBRANCH  19  20
ENDBRANCH  18  19
ENDBRANCH  17  18
ENDBRANCH   1  17
TORSDOF 12
ENDMDL
MODEL 2
REMARK VINA RESULT: -8.696617567      3.287     10.007
REMARK  12 active torsions:
REMARK  status: ('A' for Active; 'I' for Inactive)
REMARK    1  A    between atoms: C1_2  and  N1_3 
REMARK    2  A    between atoms: C1_2  and  O1_21 
REMARK    3  A    between atoms: N1_3  and  C2_5 
REMARK    4  A    between atoms: C2_5  and  C3_6 
REMARK    5  A    between atoms: C3_6  and  C4_7 
REMARK    6  A    between atoms: C4_7  and  C5_8 
REMARK    7  A    between atoms: C5_8  and  C6_9 
REMARK    8  A    between atoms: C6_9  and  C7_10 
REMARK    9  A    between atoms: C7_10  and  C8_11 
REMARK   10  A    between atoms: C8_11  and  C9_12 
REMARK   11  A    between atoms: C9_12  and  C10_13 
REMARK   12  A    between atoms: O1_21  and  C18_22 
ROOT
HETATM    1  C2  UNL     1      12.857  19.935  40.433  1.00  0.00     0.122 C 
ENDROOT
BRANCH   1   2
HETATM    2  N1  UNL     1      11.870  19.126  39.747  1.00  0.00    -0.361 N 
ATOM      3  H1  UNL     1      11.080  18.729  40.257  1.00  0.00     0.162 HD
BRANCH   2   4
HETATM    4  C1  UNL     1      12.014  18.894  38.364  1.00  0.00     0.215 C 
HETATM    5  S1  UNL     1      13.433  19.224  37.646  1.00  0.00    -0.033 SA
BRANCH   4   6
HETATM    6  O1  UNL     1      10.978  18.394  37.621  1.00  0.00    -0.284 OA
BRANCH   6   7
HETATM    7  C18 UNL     1       9.681  18.766  37.861  1.00  0.00     0.089 A 
HETATM    8  C19 UNL     1       9.344  20.099  37.906  1.00  0.00     0.038 A 
HETATM    9  C20 UNL     1       8.039  20.499  38.146  1.00  0.00     0.004 A 
HETATM   10  C21 UNL     1       7.089  19.522  38.338  1.00  0.00     0.012 A 
HETATM   11  C22 UNL     1       7.419  18.176  38.293  1.00  0.00    -0.023 A 
HETATM   12  C23 UNL     1       6.436  17.216  38.490  1.00  0.00     0.012 A 
HETATM   13  C27 UNL     1       8.715  17.779  38.054  1.00  0.00     0.008 A 
HETATM   14  C24 UNL     1       6.744  15.874  38.449  1.00  0.00     0.001 A 
HETATM   15  C25 UNL     1       8.065  15.495  38.206  1.00  0.00     0.001 A 
HETATM   16  C26 UNL     1       9.062  16.451  38.007  1.00  0.00     0.015 A 
ENDBRANCH   6   7
ENDBRANCH   4   6
ENDBRANCH   2   4
ENDBRANCH   1   2
BRANCH   1  17
HETATM   17  C3  UNL     1      13.108  19.507  41.851  1.00  0.00     0.020 C 
BRANCH  17  18
HETATM   18  C4  UNL     1      13.372  20.741  42.683  1.00  0.00     0.002 C 
BRANCH  18  19
HETATM   19  C5  UNL     1      12.703  21.973  42.157  1.00  0.00     0.000 C 
BRANCH  19  20
HETATM   20  C6  UNL     1      12.671  23.088  43.189  1.00  0.00     0.000 C 
BRANCH  20  21
HETATM   21  C7  UNL     1      12.624  22.443  44.548  1.00  0.00     0.000 C 
BRANCH  21  22
HETATM   22  C8  UNL     1      13.695  22.978  45.458  1.00  0.00     0.000 C 
BRANCH  22  23
HETATM   23  C9  UNL     1      14.690  23.791  44.708  1.00  0.00     0.004 C 
BRANCH  23  24
HETATM   24  C10 UNL     1      16.062  23.092  44.655  1.00  0.00    -0.014 C 
HETATM   25  C11 UNL     1      16.393  22.860  43.226  1.00  0.00     0.004 C 
HETATM   26  C12 UNL     1      17.898  23.013  42.957  1.00  0.00     0.000 C 
HETATM   27  C13 UNL     1      18.629  21.718  43.095  1.00  0.00     0.000 C 
HETATM   28  C14 UNL     1      18.821  21.453  44.583  1.00  0.00     0.000 C 
HETATM   29  C15 UNL     1      17.982  20.316  45.057  1.00  0.00     0.000 C 
HETATM   30  C16 UNL     1      16.489  20.630  45.030  1.00  0.00     0.000 C 
HETATM   31  C17 UNL     1      16.147  21.955  45.578  1.00  0.00     0.004 C 
ENDBRANCH  23  24
ENDBRANCH  22  23
ENDBRANCH  21  22
ENDBRANCH  20  21
ENDBRANCH  19  20
ENDBRANCH  18  19
ENDBRANCH  17  18
ENDBRANCH   1  17
TORSDOF 12
ENDMDL
MODEL 3
REMARK VINA RESULT: -8.665299214      0.681      1.580
REMARK  12 active torsions:
REMARK  status: ('A' for Active; 'I' for Inactive)
REMARK    1  A    between atoms: C1_2  and  N1_3 
REMARK    2  A    between atoms: C1_2  and  O1_21 
REMARK    3  A    between atoms: N1_3  and  C2_5 
REMARK    4  A    between atoms: C2_5  and  C3_6 
REMARK    5  A    between atoms: C3_6  and  C4_7 
REMARK    6  A    between atoms: C4_7  and  C5_8 
REMARK    7  A    between atoms: C5_8  and  C6_9 
REMARK    8  A    between atoms: C6_9  and  C7_10 
REMARK    9  A    between atoms: C7_10  and  C8_11 
REMARK   10  A    between atoms: C8_11  and  C9_12 
REMARK   11  A    between atoms: C9_12  and  C10_13 
REMARK   12  A    between atoms: O1_21  and  C18_22 
ROOT
HETATM    1  C2  UNL     1      12.529  22.854  45.720  1.00  0.00     0.122 C 
ENDROOT
BRANCH   1   2
HETATM    2  N1  UNL     1      13.447  23.908  46.104  1.00  0.00    -0.361 N 
ATOM      3  H1  UNL     1      13.145  24.882  46.101  1.00  0.00     0.162 HD
BRANCH   2   4
HETATM    4  C1  UNL     1      14.761  23.569  46.481  1.00  0.00     0.215 C 
HETATM    5  S1  UNL     1      14.998  22.640  47.792  1.00  0.00    -0.033 SA
BRANCH   4   6
HETATM    6  O1  UNL     1      15.838  24.009  45.758  1.00  0.00    -0.284 OA
BRANCH   6   7
HETATM    7  C18 UNL     1      16.606  23.145  45.022  1.00  0.00     0.089 A 
HETATM    8  C19 UNL     1      17.322  22.153  45.650  1.00  0.00     0.038 A 
HETATM    9  C20 UNL     1      18.105  21.268  44.926  1.00  0.00     0.004 A 
HETATM   10  C21 UNL     1      18.144  21.412  43.558  1.00  0.00     0.012 A 
HETATM   11  C22 UNL     1      17.425  22.409  42.915  1.00  0.00    -0.023 A 
HETATM   12  C23 UNL     1      17.487  22.525  41.534  1.00  0.00     0.012 A 
HETATM   13  C27 UNL     1      16.648  23.287  43.635  1.00  0.00     0.008 A 
HETATM   14  C24 UNL     1      16.780  23.509  40.878  1.00  0.00     0.001 A 
HETATM   15  C25 UNL     1      15.999  24.388  41.628  1.00  0.00     0.001 A 
HETATM   16  C26 UNL     1      15.929  24.281  43.018  1.00  0.00     0.015 A 
ENDBRANCH   6   7
ENDBRANCH   4   6
ENDBRANCH   2   4
ENDBRANCH   1   2
BRANCH   1  17
HETATM   17  C3  UNL     1      12.986  22.058  44.531  1.00  0.00     0.020 C 
BRANCH  17  18
HETATM   18  C4  UNL     1      12.554  22.782  43.277  1.00  0.00     0.002 C 
BRANCH  18  19
HETATM   19  C5  UNL     1      13.098  22.178  42.019  1.00  0.00     0.000 C 
BRANCH  19  20
HETATM   20  C6  UNL     1      14.025  21.008  42.303  1.00  0.00     0.000 C 
BRANCH  20  21
HETATM   21  C7  UNL     1      13.438  19.795  41.632  1.00  0.00     0.000 C 
BRANCH  21  22
HETATM   22  C8  UNL     1      12.395  20.171  40.616  1.00  0.00     0.000 C 
BRANCH  22  23
HETATM   23  C9  UNL     1      12.583  19.427  39.341  1.00  0.00     0.004 C 
BRANCH  23  24
HETATM   24  C10 UNL     1      11.248  18.867  38.814  1.00  0.00    -0.014 C 
HETATM   25  C11 UNL     1      11.541  18.095  37.580  1.00  0.00     0.004 C 
HETATM   26  C12 UNL     1      10.632  16.862  37.449  1.00  0.00     0.000 C 
HETATM   27  C13 UNL     1       9.384  17.162  36.686  1.00  0.00     0.000 C 
HETATM   28  C14 UNL     1       8.431  17.888  37.628  1.00  0.00     0.000 C 
HETATM   29  C15 UNL     1       8.264  19.321  37.251  1.00  0.00     0.000 C 
HETATM   30  C16 UNL     1       9.532  20.142  37.467  1.00  0.00     0.000 C 
HETATM   31  C17 UNL     1      10.196  19.888  38.758  1.00  0.00     0.004 C 
ENDBRANCH  23  24
ENDBRANCH  22  23
ENDBRANCH  21  22
ENDBRANCH  20  21
ENDBRANCH  19  20
ENDBRANCH  18  19
ENDBRANCH  17  18
ENDBRANCH   1  17
TORSDOF 12
ENDMDL
MODEL 4
REMARK VINA RESULT: -8.497897268      3.701     10.522
REMARK  12 active torsions:
REMARK  status: ('A' for Active; 'I' for Inactive)
REMARK    1  A    between atoms: C1_2  and  N1_3 
REMARK    2  A    between atoms: C1_2  and  O1_21 
REMARK    3  A    between atoms: N1_3  and  C2_5 
REMARK    4  A    between atoms: C2_5  and  C3_6 
REMARK    5  A    between atoms: C3_6  and  C4_7 
REMARK    6  A    between atoms: C4_7  and  C5_8 
REMARK    7  A    between atoms: C5_8  and  C6_9 
REMARK    8  A    between atoms: C6_9  and  C7_10 
REMARK    9  A    between atoms: C7_10  and  C8_11 
REMARK   10  A    between atoms: C8_11  and  C9_12 
REMARK   11  A    between atoms: C9_12  and  C10_13 
REMARK   12  A    between atoms: O1_21  and  C18_22 
ROOT
HETATM    1  C2  UNL     1      11.863  19.784  39.774  1.00  0.00     0.122 C 
ENDROOT
BRANCH   1   2
HETATM    2  N1  UNL     1      12.100  18.690  38.854  1.00  0.00    -0.361 N 
ATOM      3  H1  UNL     1      12.922  18.096  38.958  1.00  0.00     0.162 HD
BRANCH   2   4
HETATM    4  C1  UNL     1      11.179  18.458  37.813  1.00  0.00     0.215 C 
HETATM    5  S1  UNL     1      11.191  19.426  36.509  1.00  0.00    -0.033 SA
BRANCH   4   6
HETATM    6  O1  UNL     1      10.277  17.429  37.885  1.00  0.00    -0.284 OA
BRANCH   6   7
HETATM    7  C18 UNL     1       8.969  17.648  38.230  1.00  0.00     0.089 A 
HETATM    8  C19 UNL     1       8.559  18.903  38.618  1.00  0.00     0.038 A 
HETATM    9  C20 UNL     1       7.241  19.147  38.970  1.00  0.00     0.004 A 
HETATM   10  C21 UNL     1       6.354  18.097  38.919  1.00  0.00     0.012 A 
HETATM   11  C22 UNL     1       6.758  16.829  38.528  1.00  0.00    -0.023 A 
HETATM   12  C23 UNL     1       5.836  15.792  38.487  1.00  0.00     0.012 A 
HETATM   13  C27 UNL     1       8.066  16.586  38.178  1.00  0.00     0.008 A 
HETATM   14  C24 UNL     1       6.218  14.525  38.102  1.00  0.00     0.001 A 
HETATM   15  C25 UNL     1       7.551  14.303  37.752  1.00  0.00     0.001 A 
HETATM   16  C26 UNL     1       8.485  15.338  37.789  1.00  0.00     0.015 A 
ENDBRANCH   6   7
ENDBRANCH   4   6
ENDBRANCH   2   4
ENDBRANCH   1   2
BRANCH   1  17
HETATM   17  C3  UNL     1      13.065  20.154  40.595  1.00  0.00     0.020 C 
BRANCH  17  18
HETATM   18  C4  UNL     1      12.776  19.827  42.042  1.00  0.00     0.002 C 
BRANCH  18  19
HETATM   19  C5  UNL     1      13.572  20.644  43.011  1.00  0.00     0.000 C 
BRANCH  19  20
HETATM   20  C6  UNL     1      12.702  21.624  43.780  1.00  0.00     0.000 C 
BRANCH  20  21
HETATM   21  C7  UNL     1      12.721  22.929  43.030  1.00  0.00     0.000 C 
BRANCH  21  22
HETATM   22  C8  UNL     1      14.125  23.410  42.785  1.00  0.00     0.000 C 
BRANCH  22  23
HETATM   23  C9  UNL     1      14.757  23.905  44.038  1.00  0.00     0.004 C 
BRANCH  23  24
HETATM   24  C10 UNL     1      16.115  23.222  44.290  1.00  0.00    -0.014 C 
HETATM   25  C11 UNL     1      16.587  22.668  42.995  1.00  0.00     0.004 C 
HETATM   26  C12 UNL     1      18.115  22.765  42.857  1.00  0.00     0.000 C 
HETATM   27  C13 UNL     1      18.805  21.542  43.364  1.00  0.00     0.000 C 
HETATM   28  C14 UNL     1      18.837  21.629  44.886  1.00  0.00     0.000 C 
HETATM   29  C15 UNL     1      17.934  20.626  45.518  1.00  0.00     0.000 C 
HETATM   30  C16 UNL     1      16.458  20.915  45.264  1.00  0.00     0.000 C 
HETATM   31  C17 UNL     1      16.084  22.329  45.454  1.00  0.00     0.004 C 
ENDBRANCH  23  24
ENDBRANCH  22  23
ENDBRANCH  21  22
ENDBRANCH  20  21
ENDBRANCH  19  20
ENDBRANCH  18  19
ENDBRANCH  17  18
ENDBRANCH   1  17
TORSDOF 12
ENDMDL
MODEL 5
REMARK VINA RESULT: -8.457903336      0.782      1.618
REMARK  12 active torsions:
REMARK  status: ('A' for Active; 'I' for Inactive)
REMARK    1  A    between atoms: C1_2  and  N1_3 
REMARK    2  A    between atoms: C1_2  and  O1_21 
REMARK    3  A    between atoms: N1_3  and  C2_5 
REMARK    4  A    between atoms: C2_5  and  C3_6 
REMARK    5  A    between atoms: C3_6  and  C4_7 
REMARK    6  A    between atoms: C4_7  and  C5_8 
REMARK    7  A    between atoms: C5_8  and  C6_9 
REMARK    8  A    between atoms: C6_9  and  C7_10 
REMARK    9  A    between atoms: C7_10  and  C8_11 
REMARK   10  A    between atoms: C8_11  and  C9_12 
REMARK   11  A    between atoms: C9_12  and  C10_13 
REMARK   12  A    between atoms: O1_21  and  C18_22 
ROOT
HETATM    1  C2  UNL     1      12.681  22.427  44.898  1.00  0.00     0.122 C 
ENDROOT
BRANCH   1   2
HETATM    2  N1  UNL     1      13.339  23.611  45.413  1.00  0.00    -0.361 N 
ATOM      3  H1  UNL     1      12.898  24.526  45.327  1.00  0.00     0.162 HD
BRANCH   2   4
HETATM    4  C1  UNL     1      14.596  23.480  46.036  1.00  0.00     0.215 C 
HETATM    5  S1  UNL     1      14.702  22.707  47.460  1.00  0.00    -0.033 SA
BRANCH   4   6
HETATM    6  O1  UNL     1      15.727  23.993  45.457  1.00  0.00    -0.284 OA
BRANCH   6   7
HETATM    7  C18 UNL     1      16.579  23.203  44.730  1.00  0.00     0.089 A 
HETATM    8  C19 UNL     1      17.396  22.300  45.370  1.00  0.00     0.038 A 
HETATM    9  C20 UNL     1      18.264  21.491  44.655  1.00  0.00     0.004 A 
HETATM   10  C21 UNL     1      18.285  21.618  43.285  1.00  0.00     0.012 A 
HETATM   11  C22 UNL     1      17.465  22.525  42.631  1.00  0.00    -0.023 A 
HETATM   12  C23 UNL     1      17.510  22.626  41.248  1.00  0.00     0.012 A 
HETATM   13  C27 UNL     1      16.602  23.328  43.341  1.00  0.00     0.008 A 
HETATM   14  C24 UNL     1      16.703  23.522  40.580  1.00  0.00     0.001 A 
HETATM   15  C25 UNL     1      15.836  24.326  41.321  1.00  0.00     0.001 A 
HETATM   16  C26 UNL     1      15.782  24.232  42.712  1.00  0.00     0.015 A 
ENDBRANCH   6   7
ENDBRANCH   4   6
ENDBRANCH   2   4
ENDBRANCH   1   2
BRANCH   1  17
HETATM   17  C3  UNL     1      12.698  22.330  43.399  1.00  0.00     0.020 C 
BRANCH  17  18
HETATM   18  C4  UNL     1      13.614  21.195  43.004  1.00  0.00     0.002 C 
BRANCH  18  19
HETATM   19  C5  UNL     1      13.708  20.990  41.524  1.00  0.00     0.000 C 
BRANCH  19  20
HETATM   20  C6  UNL     1      12.705  19.963  41.026  1.00  0.00     0.000 C 
BRANCH  20  21
HETATM   21  C7  UNL     1      12.909  19.818  39.541  1.00  0.00     0.000 C 
BRANCH  21  22
HETATM   22  C8  UNL     1      11.836  18.973  38.911  1.00  0.00     0.000 C 
BRANCH  22  23
HETATM   23  C9  UNL     1      10.568  19.735  38.748  1.00  0.00     0.004 C 
BRANCH  23  24
HETATM   24  C10 UNL     1       9.346  18.797  38.737  1.00  0.00    -0.014 C 
HETATM   25  C11 UNL     1       9.628  17.703  37.772  1.00  0.00     0.004 C 
HETATM   26  C12 UNL     1       9.038  16.364  38.241  1.00  0.00     0.000 C 
HETATM   27  C13 UNL     1       7.653  16.147  37.724  1.00  0.00     0.000 C 
HETATM   28  C14 UNL     1       6.706  16.978  38.581  1.00  0.00     0.000 C 
HETATM   29  C15 UNL     1       6.140  18.131  37.825  1.00  0.00     0.000 C 
HETATM   30  C16 UNL     1       7.187  19.186  37.482  1.00  0.00     0.000 C 
HETATM   31  C17 UNL     1       8.081  19.528  38.604  1.00  0.00     0.004 C 
ENDBRANCH  23  24
ENDBRANCH  22  23
ENDBRANCH  21  22
ENDBRANCH  20  21
ENDBRANCH  19  20
ENDBRANCH  18  19
ENDBRANCH  17  18
ENDBRANCH   1  17
TORSDOF 12
ENDMDL
