MODEL 1
REMARK VINA RESULT: -5.037019285      0.000      0.000
REMARK  2 active torsions:
REMARK  status: ('A' for Active; 'I' for Inactive)
REMARK    1  A    between atoms: C2_2  and  C3_3 
REMARK    2  A    between atoms: C8_8  and  N1_9 
ROOT
HETATM    1  C3  UNL     1       5.718  -5.921  29.156  1.00  0.00     0.009 A 
HETATM    2  C4  UNL     1       5.598  -6.352  27.724  1.00  0.00     0.021 A 
HETATM    3  C5  UNL     1       4.638  -5.390  28.319  1.00  0.00     0.001 A 
HETATM    4  C6  UNL     1       4.884  -3.946  28.026  1.00  0.00     0.008 C 
HETATM    5  C7  UNL     1       6.222  -3.634  28.611  1.00  0.00     0.034 C 
HETATM    6  C8  UNL     1       6.606  -4.788  29.487  1.00  0.00     0.196 C 
ENDROOT
BRANCH   6   7
HETATM    7  N1  UNL     1       6.331  -4.383  30.868  1.00  0.00    -0.074 N 
ATOM      8  H13 UNL     1       6.221  -3.374  30.969  1.00  0.00     0.274 HD
ATOM      9  H12 UNL     1       5.398  -4.653  31.180  1.00  0.00     0.274 HD
ATOM     10  H11 UNL     1       7.069  -4.760  31.462  1.00  0.00     0.274 HD
ENDBRANCH   6   7
BRANCH   1  11
HETATM   11  C2  UNL     1       5.492  -7.022  30.124  1.00  0.00    -0.025 C 
HETATM   12  C1  UNL     1       6.478  -7.824  30.485  1.00  0.00     0.008 C 
ENDBRANCH   1  11
TORSDOF 2
ENDMDL
MODEL 2
REMARK VINA RESULT: -4.938813677      0.977      2.985
REMARK  2 active torsions:
REMARK  status: ('A' for Active; 'I' for Inactive)
REMARK    1  A    between atoms: C2_2  and  C3_3 
REMARK    2  A    between atoms: C8_8  and  N1_9 
ROOT
HETATM    1  C3  UNL     1       5.279  -4.630  28.712  1.00  0.00     0.009 A 
HETATM    2  C4  UNL     1       4.247  -5.281  27.840  1.00  0.00     0.021 A 
HETATM    3  C5  UNL     1       5.652  -5.758  27.853  1.00  0.00     0.001 A 
HETATM    4  C6  UNL     1       5.932  -6.963  28.689  1.00  0.00     0.008 C 
HETATM    5  C7  UNL     1       5.598  -6.573  30.092  1.00  0.00     0.034 C 
HETATM    6  C8  UNL     1       5.420  -5.085  30.110  1.00  0.00     0.196 C 
ENDROOT
BRANCH   6   7
HETATM    7  N1  UNL     1       6.658  -4.516  30.650  1.00  0.00    -0.074 N 
ATOM      8  H13 UNL     1       7.391  -4.429  29.947  1.00  0.00     0.274 HD
ATOM      9  H12 UNL     1       6.570  -3.526  30.879  1.00  0.00     0.274 HD
ATOM     10  H11 UNL     1       6.944  -5.082  31.449  1.00  0.00     0.274 HD
ENDBRANCH   6   7
BRANCH   1  11
HETATM   11  C2  UNL     1       5.568  -3.225  28.333  1.00  0.00    -0.025 C 
HETATM   12  C1  UNL     1       6.647  -2.915  27.637  1.00  0.00     0.008 C 
ENDBRANCH   1  11
TORSDOF 2
ENDMDL
MODEL 3
REMARK VINA RESULT: -4.676381171      1.298      2.935
REMARK  2 active torsions:
REMARK  status: ('A' for Active; 'I' for Inactive)
REMARK    1  A    between atoms: C2_2  and  C3_3 
REMARK    2  A    between atoms: C8_8  and  N1_9 
ROOT
HETATM    1  C3  UNL     1       4.497  -4.787  29.340  1.00  0.00     0.009 A 
HETATM    2  C4  UNL     1       3.341  -5.292  28.529  1.00  0.00     0.021 A 
HETATM    3  C5  UNL     1       4.653  -5.004  27.899  1.00  0.00     0.001 A 
HETATM    4  C6  UNL     1       5.540  -6.180  27.654  1.00  0.00     0.008 C 
HETATM    5  C7  UNL     1       5.828  -6.760  29.000  1.00  0.00     0.034 C 
HETATM    6  C8  UNL     1       5.369  -5.764  30.022  1.00  0.00     0.196 C 
ENDROOT
BRANCH   6   7
HETATM    7  N1  UNL     1       6.564  -5.056  30.492  1.00  0.00    -0.074 N 
ATOM      8  H13 UNL     1       7.218  -4.843  29.738  1.00  0.00     0.274 HD
ATOM      9  H12 UNL     1       6.367  -4.097  30.778  1.00  0.00     0.274 HD
ATOM     10  H11 UNL     1       6.989  -5.611  31.236  1.00  0.00     0.274 HD
ENDBRANCH   6   7
BRANCH   1  11
HETATM   11  C2  UNL     1       4.270  -3.437  29.912  1.00  0.00    -0.025 C 
HETATM   12  C1  UNL     1       4.773  -2.360  29.335  1.00  0.00     0.008 C 
ENDBRANCH   1  11
TORSDOF 2
ENDMDL
MODEL 4
REMARK VINA RESULT: -4.544727067      1.526      2.098
REMARK  2 active torsions:
REMARK  status: ('A' for Active; 'I' for Inactive)
REMARK    1  A    between atoms: C2_2  and  C3_3 
REMARK    2  A    between atoms: C8_8  and  N1_9 
ROOT
HETATM    1  C3  UNL     1       4.841  -4.999  28.003  1.00  0.00     0.009 A 
HETATM    2  C4  UNL     1       3.369  -5.150  27.758  1.00  0.00     0.021 A 
HETATM    3  C5  UNL     1       3.889  -4.752  29.090  1.00  0.00     0.001 A 
HETATM    4  C6  UNL     1       3.845  -3.294  29.407  1.00  0.00     0.008 C 
HETATM    5  C7  UNL     1       4.715  -2.629  28.391  1.00  0.00     0.034 C 
HETATM    6  C8  UNL     1       5.487  -3.708  27.691  1.00  0.00     0.196 C 
ENDROOT
BRANCH   6   7
HETATM    7  N1  UNL     1       6.830  -3.717  28.278  1.00  0.00    -0.074 N 
ATOM      8  H13 UNL     1       7.110  -2.804  28.636  1.00  0.00     0.274 HD
ATOM      9  H12 UNL     1       6.871  -4.229  29.160  1.00  0.00     0.274 HD
ATOM     10  H11 UNL     1       7.478  -4.082  27.580  1.00  0.00     0.274 HD
ENDBRANCH   6   7
BRANCH   1  11
HETATM   11  C2  UNL     1       5.591  -6.274  27.889  1.00  0.00    -0.025 C 
HETATM   12  C1  UNL     1       5.987  -6.929  28.966  1.00  0.00     0.008 C 
ENDBRANCH   1  11
TORSDOF 2
ENDMDL
MODEL 5
REMARK VINA RESULT: -4.406750145      1.579      2.281
REMARK  2 active torsions:
REMARK  status: ('A' for Active; 'I' for Inactive)
REMARK    1  A    between atoms: C2_2  and  C3_3 
REMARK    2  A    between atoms: C8_8  and  N1_9 
ROOT
HETATM    1  C3  UNL     1       5.566  -5.431  29.481  1.00  0.00     0.009 A 
HETATM    2  C4  UNL     1       5.474  -4.334  30.499  1.00  0.00     0.021 A 
HETATM    3  C5  UNL     1       6.729  -4.579  29.747  1.00  0.00     0.001 A 
HETATM    4  C6  UNL     1       6.983  -3.685  28.578  1.00  0.00     0.008 C 
HETATM    5  C7  UNL     1       5.857  -3.928  27.626  1.00  0.00     0.034 C 
HETATM    6  C8  UNL     1       5.135  -5.155  28.096  1.00  0.00     0.196 C 
ENDROOT
BRANCH   6   7
HETATM    7  N1  UNL     1       5.586  -6.264  27.249  1.00  0.00    -0.074 N 
ATOM      8  H13 UNL     1       5.875  -5.958  26.320  1.00  0.00     0.274 HD
ATOM      9  H12 UNL     1       6.481  -6.650  27.551  1.00  0.00     0.274 HD
ATOM     10  H11 UNL     1       4.844  -6.963  27.221  1.00  0.00     0.274 HD
ENDBRANCH   6   7
BRANCH   1  11
HETATM   11  C2  UNL     1       5.436  -6.789  30.064  1.00  0.00    -0.025 C 
HETATM   12  C1  UNL     1       6.491  -7.571  30.210  1.00  0.00     0.008 C 
ENDBRANCH   1  11
TORSDOF 2
ENDMDL
