MODEL 1
REMARK VINA RESULT: -5.146716118      0.000      0.000
REMARK  2 active torsions:
REMARK  status: ('A' for Active; 'I' for Inactive)
REMARK    1  A    between atoms: C2_2  and  C3_3 
REMARK    2  A    between atoms: C5_5  and  N1_6 
ROOT
HETATM    1  C3  UNL     1       4.436  -5.696  28.937  1.00  0.00    -0.008 C 
HETATM    2  C4  UNL     1       5.054  -4.446  29.601  1.00  0.00     0.038 C 
HETATM    3  C5  UNL     1       6.509  -4.857  29.918  1.00  0.00     0.188 C 
HETATM    4  C6  UNL     1       6.288  -6.312  30.033  1.00  0.00     0.021 A 
HETATM    5  C7  UNL     1       6.453  -7.413  29.179  1.00  0.00     0.012 A 
HETATM    6  C8  UNL     1       5.672  -6.421  28.576  1.00  0.00    -0.004 A 
ENDROOT
BRANCH   3   7
HETATM    7  N1  UNL     1       6.959  -4.198  31.097  1.00  0.00    -0.075 N 
ATOM      8  H13 UNL     1       7.651  -3.478  30.891  1.00  0.00     0.274 HD
ATOM      9  H12 UNL     1       6.237  -3.600  31.499  1.00  0.00     0.274 HD
ATOM     10  H11 UNL     1       7.307  -4.881  31.770  1.00  0.00     0.274 HD
ENDBRANCH   3   7
BRANCH   1  11
HETATM   11  C2  UNL     1       3.674  -5.186  27.734  1.00  0.00     0.000 C 
HETATM   12  C1  UNL     1       2.225  -4.959  27.994  1.00  0.00     0.005 C 
ENDBRANCH   1  11
TORSDOF 2
ENDMDL
MODEL 2
REMARK VINA RESULT: -5.085918782      1.912      3.429
REMARK  2 active torsions:
REMARK  status: ('A' for Active; 'I' for Inactive)
REMARK    1  A    between atoms: C2_2  and  C3_3 
REMARK    2  A    between atoms: C5_5  and  N1_6 
ROOT
HETATM    1  C3  UNL     1       5.184  -6.050  28.004  1.00  0.00    -0.008 C 
HETATM    2  C4  UNL     1       5.948  -4.735  27.741  1.00  0.00     0.038 C 
HETATM    3  C5  UNL     1       4.907  -3.624  28.001  1.00  0.00     0.188 C 
HETATM    4  C6  UNL     1       3.695  -4.408  27.695  1.00  0.00     0.021 A 
HETATM    5  C7  UNL     1       2.741  -5.100  28.457  1.00  0.00     0.012 A 
HETATM    6  C8  UNL     1       4.037  -5.521  28.772  1.00  0.00    -0.004 A 
ENDROOT
BRANCH   3   7
HETATM    7  N1  UNL     1       5.160  -2.507  27.155  1.00  0.00    -0.075 N 
ATOM      8  H13 UNL     1       4.984  -2.724  26.174  1.00  0.00     0.274 HD
ATOM      9  H12 UNL     1       4.462  -1.773  27.273  1.00  0.00     0.274 HD
ATOM     10  H11 UNL     1       6.108  -2.161  27.305  1.00  0.00     0.274 HD
ENDBRANCH   3   7
BRANCH   1  11
HETATM   11  C2  UNL     1       6.113  -6.905  28.838  1.00  0.00     0.000 C 
HETATM   12  C1  UNL     1       5.668  -7.072  30.249  1.00  0.00     0.005 C 
ENDBRANCH   1  11
TORSDOF 2
ENDMDL
MODEL 3
REMARK VINA RESULT: -4.970659096      2.171      3.291
REMARK  2 active torsions:
REMARK  status: ('A' for Active; 'I' for Inactive)
REMARK    1  A    between atoms: C2_2  and  C3_3 
REMARK    2  A    between atoms: C5_5  and  N1_6 
ROOT
HETATM    1  C3  UNL     1       5.629  -4.606  28.755  1.00  0.00    -0.008 C 
HETATM    2  C4  UNL     1       6.159  -3.843  27.521  1.00  0.00     0.038 C 
HETATM    3  C5  UNL     1       7.344  -3.012  28.060  1.00  0.00     0.188 C 
HETATM    4  C6  UNL     1       6.889  -2.895  29.458  1.00  0.00     0.021 A 
HETATM    5  C7  UNL     1       7.174  -3.569  30.656  1.00  0.00     0.012 A 
HETATM    6  C8  UNL     1       6.795  -4.466  29.651  1.00  0.00    -0.004 A 
ENDROOT
BRANCH   3   7
HETATM    7  N1  UNL     1       7.457  -1.792  27.334  1.00  0.00    -0.075 N 
ATOM      8  H13 UNL     1       7.992  -1.908  26.474  1.00  0.00     0.274 HD
ATOM      9  H12 UNL     1       6.568  -1.511  26.920  1.00  0.00     0.274 HD
ATOM     10  H11 UNL     1       7.848  -1.064  27.931  1.00  0.00     0.274 HD
ENDBRANCH   3   7
BRANCH   1  11
HETATM   11  C2  UNL     1       5.403  -6.029  28.292  1.00  0.00     0.000 C 
HETATM   12  C1  UNL     1       6.175  -7.040  29.065  1.00  0.00     0.005 C 
ENDBRANCH   1  11
TORSDOF 2
ENDMDL
MODEL 4
REMARK VINA RESULT: -4.961471612      0.989      3.010
REMARK  2 active torsions:
REMARK  status: ('A' for Active; 'I' for Inactive)
REMARK    1  A    between atoms: C2_2  and  C3_3 
REMARK    2  A    between atoms: C5_5  and  N1_6 
ROOT
HETATM    1  C3  UNL     1       6.020  -6.184  28.897  1.00  0.00    -0.008 C 
HETATM    2  C4  UNL     1       6.561  -5.165  29.925  1.00  0.00     0.038 C 
HETATM    3  C5  UNL     1       5.335  -4.300  30.293  1.00  0.00     0.188 C 
HETATM    4  C6  UNL     1       4.579  -4.476  29.038  1.00  0.00     0.021 A 
HETATM    5  C7  UNL     1       3.525  -5.303  28.621  1.00  0.00     0.012 A 
HETATM    6  C8  UNL     1       4.572  -6.057  29.162  1.00  0.00    -0.004 A 
ENDROOT
BRANCH   3   7
HETATM    7  N1  UNL     1       5.747  -2.971  30.594  1.00  0.00    -0.075 N 
ATOM      8  H13 UNL     1       6.761  -2.891  30.660  1.00  0.00     0.274 HD
ATOM      9  H12 UNL     1       5.598  -2.338  29.809  1.00  0.00     0.274 HD
ATOM     10  H11 UNL     1       5.282  -2.643  31.441  1.00  0.00     0.274 HD
ENDBRANCH   3   7
BRANCH   1  11
HETATM   11  C2  UNL     1       6.585  -7.524  29.312  1.00  0.00     0.000 C 
HETATM   12  C1  UNL     1       6.229  -7.920  30.703  1.00  0.00     0.005 C 
ENDBRANCH   1  11
TORSDOF 2
ENDMDL
MODEL 5
REMARK VINA RESULT: -4.871118560      1.342      3.203
REMARK  2 active torsions:
REMARK  status: ('A' for Active; 'I' for Inactive)
REMARK    1  A    between atoms: C2_2  and  C3_3 
REMARK    2  A    between atoms: C5_5  and  N1_6 
ROOT
HETATM    1  C3  UNL     1       5.764  -6.451  29.220  1.00  0.00    -0.008 C 
HETATM    2  C4  UNL     1       6.640  -5.246  29.628  1.00  0.00     0.038 C 
HETATM    3  C5  UNL     1       5.897  -4.018  29.055  1.00  0.00     0.188 C 
HETATM    4  C6  UNL     1       5.209  -4.699  27.942  1.00  0.00     0.021 A 
HETATM    5  C7  UNL     1       3.924  -5.225  27.741  1.00  0.00     0.012 A 
HETATM    6  C8  UNL     1       4.505  -5.746  28.902  1.00  0.00    -0.004 A 
ENDROOT
BRANCH   3   7
HETATM    7  N1  UNL     1       6.832  -3.007  28.689  1.00  0.00    -0.075 N 
ATOM      8  H13 UNL     1       6.677  -2.670  27.740  1.00  0.00     0.274 HD
ATOM      9  H12 UNL     1       6.663  -2.134  29.187  1.00  0.00     0.274 HD
ATOM     10  H11 UNL     1       7.785  -3.346  28.824  1.00  0.00     0.274 HD
ENDBRANCH   3   7
BRANCH   1  11
HETATM   11  C2  UNL     1       5.664  -7.321  30.453  1.00  0.00     0.000 C 
HETATM   12  C1  UNL     1       6.759  -8.322  30.571  1.00  0.00     0.005 C 
ENDBRANCH   1  11
TORSDOF 2
ENDMDL
