MODEL 1
REMARK VINA RESULT: -8.155631464      0.000      0.000
REMARK  2 active torsions:
REMARK  status: ('A' for Active; 'I' for Inactive)
REMARK    1  A    between atoms: C3_8  and  C4_9 
REMARK    2  A    between atoms: C11_21  and  C12_22 
ROOT
HETATM    1  N1  UNL     1      -6.384 -21.976  14.754  1.00  0.00    -0.385 N 
ATOM      2  H11 UNL     1      -6.008 -21.042  14.595  1.00  0.00     0.157 HD
ATOM      3  H12 UNL     1      -6.356 -22.657  13.995  1.00  0.00     0.157 HD
HETATM    4  C1  UNL     1      -6.860 -22.230  15.893  1.00  0.00     0.114 A 
HETATM    5  N2  UNL     1      -7.366 -23.491  16.108  1.00  0.00    -0.326 N 
ATOM      6  H2  UNL     1      -7.349 -24.187  15.362  1.00  0.00     0.169 HD
HETATM    7  C2  UNL     1      -7.883 -23.800  17.307  1.00  0.00     0.142 A 
HETATM    8  C3  UNL     1      -8.435 -25.004  17.713  1.00  0.00     0.053 A 
HETATM    9  C9  UNL     1      -8.811 -24.771  19.043  1.00  0.00     0.125 A 
HETATM   10  N4  UNL     1      -8.480 -23.513  19.337  1.00  0.00    -0.303 N 
ATOM     11  H4  UNL     1      -8.639 -23.074  20.244  1.00  0.00     0.186 HD
HETATM   12  N5  UNL     1      -7.916 -22.903  18.300  1.00  0.00    -0.249 N 
HETATM   13  C10 UNL     1      -7.432 -21.640  18.151  1.00  0.00     0.136 A 
HETATM   14  C11 UNL     1      -6.897 -21.318  16.911  1.00  0.00     0.054 A 
ENDROOT
BRANCH  14  15
HETATM   15  C12 UNL     1      -6.369 -19.954  16.738  1.00  0.00     0.074 A 
HETATM   16  C13 UNL     1      -7.055 -18.768  16.704  1.00  0.00     0.036 A 
HETATM   17  C14 UNL     1      -6.134 -17.756  16.522  1.00  0.00     0.053 A 
HETATM   18  C15 UNL     1      -4.906 -18.311  16.445  1.00  0.00     0.128 A 
HETATM   19  N6  UNL     1      -3.618 -17.976  16.284  1.00  0.00    -0.336 N 
HETATM   20  N8  UNL     1      -5.046 -19.640  16.575  1.00  0.00    -0.238 N 
HETATM   21  C16 UNL     1      -2.940 -19.136  16.316  1.00  0.00     0.199 A 
ATOM     22  H6  UNL     1      -3.234 -17.039  16.163  1.00  0.00     0.168 HD
HETATM   23  N7  UNL     1      -3.826 -20.122  16.493  1.00  0.00    -0.287 N 
ATOM     24  H7  UNL     1      -3.588 -21.112  16.556  1.00  0.00     0.188 HD
ENDBRANCH  14  15
BRANCH   8  25
HETATM   25  C4  UNL     1      -8.610 -26.246  16.980  1.00  0.00     0.047 A 
HETATM   26  C5  UNL     1      -9.792 -26.430  16.259  1.00  0.00     0.030 A 
HETATM   27  C6  UNL     1     -10.016 -27.589  15.543  1.00  0.00     0.004 A 
HETATM   28  C7  UNL     1      -9.078 -28.600  15.520  1.00  0.00     0.017 A 
HETATM   29  C8  UNL     1      -7.919 -28.395  16.240  1.00  0.00     0.088 A 
HETATM   30  N3  UNL     1      -7.736 -27.253  16.926  1.00  0.00    -0.365 N 
ATOM     31  H3  UNL     1      -6.864 -27.149  17.443  1.00  0.00     0.165 HD
ENDBRANCH   8  25
TORSDOF 2
ENDMDL
MODEL 2
REMARK VINA RESULT: -7.969527168      2.126      7.933
REMARK  2 active torsions:
REMARK  status: ('A' for Active; 'I' for Inactive)
REMARK    1  A    between atoms: C3_8  and  C4_9 
REMARK    2  A    between atoms: C11_21  and  C12_22 
ROOT
HETATM    1  N1  UNL     1      -7.443 -27.104  16.134  1.00  0.00    -0.385 N 
ATOM      2  H11 UNL     1      -7.892 -28.010  16.263  1.00  0.00     0.157 HD
ATOM      3  H12 UNL     1      -6.530 -27.064  15.680  1.00  0.00     0.157 HD
HETATM    4  C1  UNL     1      -8.056 -26.083  16.547  1.00  0.00     0.114 A 
HETATM    5  N2  UNL     1      -7.449 -24.859  16.372  1.00  0.00    -0.326 N 
ATOM      6  H2  UNL     1      -6.536 -24.798  15.921  1.00  0.00     0.169 HD
HETATM    7  C2  UNL     1      -8.069 -23.749  16.799  1.00  0.00     0.142 A 
HETATM    8  C3  UNL     1      -7.624 -22.439  16.714  1.00  0.00     0.053 A 
HETATM    9  C9  UNL     1      -8.654 -21.695  17.308  1.00  0.00     0.125 A 
HETATM   10  N4  UNL     1      -9.598 -22.555  17.691  1.00  0.00    -0.303 N 
ATOM     11  H4  UNL     1     -10.467 -22.286  18.154  1.00  0.00     0.186 HD
HETATM   12  N5  UNL     1      -9.267 -23.807  17.393  1.00  0.00    -0.249 N 
HETATM   13  C10 UNL     1      -9.917 -24.985  17.596  1.00  0.00     0.136 A 
HETATM   14  C11 UNL     1      -9.278 -26.136  17.155  1.00  0.00     0.054 A 
ENDROOT
BRANCH  14  15
HETATM   15  C12 UNL     1      -9.973 -27.416  17.369  1.00  0.00     0.074 A 
HETATM   16  C13 UNL     1     -11.114 -27.883  16.769  1.00  0.00     0.036 A 
HETATM   17  C14 UNL     1     -11.380 -29.133  17.291  1.00  0.00     0.053 A 
HETATM   18  C15 UNL     1     -10.421 -29.428  18.193  1.00  0.00     0.128 A 
HETATM   19  N6  UNL     1     -10.049 -30.397  19.041  1.00  0.00    -0.336 N 
HETATM   20  N8  UNL     1      -9.570 -28.391  18.242  1.00  0.00    -0.238 N 
HETATM   21  C16 UNL     1      -8.930 -29.945  19.633  1.00  0.00     0.199 A 
ATOM     22  H6  UNL     1     -10.516 -31.289  19.203  1.00  0.00     0.168 HD
HETATM   23  N7  UNL     1      -8.665 -28.734  19.132  1.00  0.00    -0.287 N 
ATOM     24  H7  UNL     1      -7.869 -28.156  19.402  1.00  0.00     0.188 HD
ENDBRANCH  14  15
BRANCH   8  25
HETATM   25  C4  UNL     1      -6.396 -21.903  16.154  1.00  0.00     0.047 A 
HETATM   26  C5  UNL     1      -5.680 -20.965  16.903  1.00  0.00     0.030 A 
HETATM   27  C6  UNL     1      -4.506 -20.420  16.424  1.00  0.00     0.004 A 
HETATM   28  C7  UNL     1      -4.005 -20.786  15.192  1.00  0.00     0.017 A 
HETATM   29  C8  UNL     1      -4.729 -21.713  14.472  1.00  0.00     0.088 A 
HETATM   30  N3  UNL     1      -5.869 -22.222  14.970  1.00  0.00    -0.365 N 
ATOM     31  H3  UNL     1      -6.370 -22.904  14.400  1.00  0.00     0.165 HD
ENDBRANCH   8  25
TORSDOF 2
ENDMDL
MODEL 3
REMARK VINA RESULT: -7.895824456      2.324      8.050
REMARK  2 active torsions:
REMARK  status: ('A' for Active; 'I' for Inactive)
REMARK    1  A    between atoms: C3_8  and  C4_9 
REMARK    2  A    between atoms: C11_21  and  C12_22 
ROOT
HETATM    1  N1  UNL     1      -8.342 -27.091  15.730  1.00  0.00    -0.385 N 
ATOM      2  H11 UNL     1      -8.623 -28.043  15.964  1.00  0.00     0.157 HD
ATOM      3  H12 UNL     1      -8.112 -26.867  14.762  1.00  0.00     0.157 HD
HETATM    4  C1  UNL     1      -8.299 -26.247  16.665  1.00  0.00     0.114 A 
HETATM    5  N2  UNL     1      -7.920 -24.962  16.350  1.00  0.00    -0.326 N 
ATOM      6  H2  UNL     1      -7.685 -24.717  15.387  1.00  0.00     0.169 HD
HETATM    7  C2  UNL     1      -7.861 -24.035  17.317  1.00  0.00     0.142 A 
HETATM    8  C3  UNL     1      -7.505 -22.702  17.198  1.00  0.00     0.053 A 
HETATM    9  C9  UNL     1      -7.617 -22.206  18.505  1.00  0.00     0.125 A 
HETATM   10  N4  UNL     1      -8.010 -23.215  19.283  1.00  0.00    -0.303 N 
ATOM     11  H4  UNL     1      -8.171 -23.138  20.287  1.00  0.00     0.186 HD
HETATM   12  N5  UNL     1      -8.165 -24.336  18.586  1.00  0.00    -0.249 N 
HETATM   13  C10 UNL     1      -8.545 -25.586  18.961  1.00  0.00     0.136 A 
HETATM   14  C11 UNL     1      -8.607 -26.548  17.962  1.00  0.00     0.054 A 
ENDROOT
BRANCH  14  15
HETATM   15  C12 UNL     1      -9.019 -27.906  18.357  1.00  0.00     0.074 A 
HETATM   16  C13 UNL     1      -8.385 -28.782  19.199  1.00  0.00     0.036 A 
HETATM   17  C14 UNL     1      -9.150 -29.930  19.262  1.00  0.00     0.053 A 
HETATM   18  C15 UNL     1     -10.232 -29.761  18.473  1.00  0.00     0.128 A 
HETATM   19  N6  UNL     1     -11.337 -30.402  18.066  1.00  0.00    -0.336 N 
HETATM   20  N8  UNL     1     -10.154 -28.538  17.925  1.00  0.00    -0.238 N 
HETATM   21  C16 UNL     1     -11.962 -29.547  17.239  1.00  0.00     0.199 A 
ATOM     22  H6  UNL     1     -11.638 -31.340  18.327  1.00  0.00     0.168 HD
HETATM   23  N7  UNL     1     -11.227 -28.431  17.173  1.00  0.00    -0.287 N 
ATOM     24  H7  UNL     1     -11.467 -27.611  16.616  1.00  0.00     0.188 HD
ENDBRANCH  14  15
BRANCH   8  25
HETATM   25  C4  UNL     1      -7.105 -21.941  16.027  1.00  0.00     0.047 A 
HETATM   26  C5  UNL     1      -7.753 -20.730  15.769  1.00  0.00     0.030 A 
HETATM   27  C6  UNL     1      -7.416 -19.963  14.672  1.00  0.00     0.004 A 
HETATM   28  C7  UNL     1      -6.429 -20.370  13.799  1.00  0.00     0.017 A 
HETATM   29  C8  UNL     1      -5.804 -21.569  14.074  1.00  0.00     0.088 A 
HETATM   30  N3  UNL     1      -6.159 -22.289  15.152  1.00  0.00    -0.365 N 
ATOM     31  H3  UNL     1      -5.668 -23.169  15.314  1.00  0.00     0.165 HD
ENDBRANCH   8  25
TORSDOF 2
ENDMDL
MODEL 4
REMARK VINA RESULT: -7.894472219      4.409     10.413
REMARK  2 active torsions:
REMARK  status: ('A' for Active; 'I' for Inactive)
REMARK    1  A    between atoms: C3_8  and  C4_9 
REMARK    2  A    between atoms: C11_21  and  C12_22 
ROOT
HETATM    1  N1  UNL     1     -11.134 -29.805  16.495  1.00  0.00    -0.385 N 
ATOM      2  H11 UNL     1     -11.527 -30.744  16.434  1.00  0.00     0.157 HD
ATOM      3  H12 UNL     1     -11.371 -29.122  15.776  1.00  0.00     0.157 HD
HETATM    4  C1  UNL     1     -10.375 -29.550  17.468  1.00  0.00     0.114 A 
HETATM    5  N2  UNL     1      -9.845 -28.282  17.550  1.00  0.00    -0.326 N 
ATOM      6  H2  UNL     1     -10.069 -27.584  16.841  1.00  0.00     0.169 HD
HETATM    7  C2  UNL     1      -9.032 -27.972  18.570  1.00  0.00     0.142 A 
HETATM    8  C3  UNL     1      -8.406 -26.761  18.824  1.00  0.00     0.053 A 
HETATM    9  C9  UNL     1      -7.687 -26.995  20.005  1.00  0.00     0.125 A 
HETATM   10  N4  UNL     1      -7.912 -28.259  20.366  1.00  0.00    -0.303 N 
ATOM     11  H4  UNL     1      -7.511 -28.700  21.194  1.00  0.00     0.186 HD
HETATM   12  N5  UNL     1      -8.724 -28.872  19.512  1.00  0.00    -0.249 N 
HETATM   13  C10 UNL     1      -9.214 -30.141  19.487  1.00  0.00     0.136 A 
HETATM   14  C11 UNL     1     -10.057 -30.465  18.432  1.00  0.00     0.054 A 
ENDROOT
BRANCH  14  15
HETATM   15  C12 UNL     1     -10.594 -31.835  18.394  1.00  0.00     0.074 A 
HETATM   16  C13 UNL     1      -9.949 -33.000  18.068  1.00  0.00     0.036 A 
HETATM   17  C14 UNL     1     -10.863 -34.030  18.177  1.00  0.00     0.053 A 
HETATM   18  C15 UNL     1     -12.045 -33.506  18.563  1.00  0.00     0.128 A 
HETATM   19  N6  UNL     1     -13.303 -33.871  18.850  1.00  0.00    -0.336 N 
HETATM   20  N8  UNL     1     -11.885 -32.180  18.694  1.00  0.00    -0.238 N 
HETATM   21  C16 UNL     1     -13.941 -32.732  19.171  1.00  0.00     0.199 A 
ATOM     22  H6  UNL     1     -13.694 -34.812  18.830  1.00  0.00     0.168 HD
HETATM   23  N7  UNL     1     -13.062 -31.729  19.068  1.00  0.00    -0.287 N 
ATOM     24  H7  UNL     1     -13.275 -30.749  19.256  1.00  0.00     0.188 HD
ENDBRANCH  14  15
BRANCH   8  25
HETATM   25  C4  UNL     1      -8.449 -25.513  18.082  1.00  0.00     0.047 A 
HETATM   26  C5  UNL     1      -7.824 -25.464  16.833  1.00  0.00     0.030 A 
HETATM   27  C6  UNL     1      -7.831 -24.306  16.080  1.00  0.00     0.004 A 
HETATM   28  C7  UNL     1      -8.455 -23.165  16.540  1.00  0.00     0.017 A 
HETATM   29  C8  UNL     1      -9.063 -23.239  17.776  1.00  0.00     0.088 A 
HETATM   30  N3  UNL     1      -9.036 -24.384  18.481  1.00  0.00    -0.365 N 
ATOM     31  H3  UNL     1      -9.500 -24.389  19.389  1.00  0.00     0.165 HD
ENDBRANCH   8  25
TORSDOF 2
ENDMDL
MODEL 5
REMARK VINA RESULT: -7.867569330      3.332      9.248
REMARK  2 active torsions:
REMARK  status: ('A' for Active; 'I' for Inactive)
REMARK    1  A    between atoms: C3_8  and  C4_9 
REMARK    2  A    between atoms: C11_21  and  C12_22 
ROOT
HETATM    1  N1  UNL     1      -7.570 -28.186  20.311  1.00  0.00    -0.385 N 
ATOM      2  H11 UNL     1      -7.631 -29.113  20.731  1.00  0.00     0.157 HD
ATOM      3  H12 UNL     1      -6.989 -27.477  20.759  1.00  0.00     0.157 HD
HETATM    4  C1  UNL     1      -8.224 -27.978  19.254  1.00  0.00     0.114 A 
HETATM    5  N2  UNL     1      -8.141 -26.726  18.687  1.00  0.00    -0.326 N 
ATOM      6  H2  UNL     1      -7.566 -26.003  19.119  1.00  0.00     0.169 HD
HETATM    7  C2  UNL     1      -8.822 -26.465  17.562  1.00  0.00     0.142 A 
HETATM    8  C3  UNL     1      -8.866 -25.279  16.848  1.00  0.00     0.053 A 
HETATM    9  C9  UNL     1      -9.720 -25.563  15.773  1.00  0.00     0.125 A 
HETATM   10  N4  UNL     1     -10.114 -26.831  15.901  1.00  0.00    -0.303 N 
ATOM     11  H4  UNL     1     -10.743 -27.305  15.253  1.00  0.00     0.186 HD
HETATM   12  N5  UNL     1      -9.583 -27.400  16.978  1.00  0.00    -0.249 N 
HETATM   13  C10 UNL     1      -9.707 -28.654  17.489  1.00  0.00     0.136 A 
HETATM   14  C11 UNL     1      -9.002 -28.927  18.654  1.00  0.00     0.054 A 
ENDROOT
BRANCH  14  15
HETATM   15  C12 UNL     1      -9.128 -30.282  19.216  1.00  0.00     0.074 A 
HETATM   16  C13 UNL     1      -9.792 -30.683  20.346  1.00  0.00     0.036 A 
HETATM   17  C14 UNL     1      -9.630 -32.049  20.465  1.00  0.00     0.053 A 
HETATM   18  C15 UNL     1      -8.879 -32.478  19.429  1.00  0.00     0.128 A 
HETATM   19  N6  UNL     1      -8.348 -33.598  18.918  1.00  0.00    -0.336 N 
HETATM   20  N8  UNL     1      -8.575 -31.411  18.673  1.00  0.00    -0.238 N 
HETATM   21  C16 UNL     1      -7.694 -33.211  17.809  1.00  0.00     0.199 A 
ATOM     22  H6  UNL     1      -8.423 -34.544  19.292  1.00  0.00     0.168 HD
HETATM   23  N7  UNL     1      -7.848 -31.888  17.686  1.00  0.00    -0.287 N 
ATOM     24  H7  UNL     1      -7.456 -31.326  16.930  1.00  0.00     0.188 HD
ENDBRANCH  14  15
BRANCH   8  25
HETATM   25  C4  UNL     1      -8.206 -24.010  17.102  1.00  0.00     0.047 A 
HETATM   26  C5  UNL     1      -7.570 -23.368  16.035  1.00  0.00     0.030 A 
HETATM   27  C6  UNL     1      -6.926 -22.160  16.215  1.00  0.00     0.004 A 
HETATM   28  C7  UNL     1      -6.892 -21.552  17.452  1.00  0.00     0.017 A 
HETATM   29  C8  UNL     1      -7.526 -22.205  18.488  1.00  0.00     0.088 A 
HETATM   30  N3  UNL     1      -8.143 -23.380  18.277  1.00  0.00    -0.365 N 
ATOM     31  H3  UNL     1      -8.598 -23.824  19.074  1.00  0.00     0.165 HD
ENDBRANCH   8  25
TORSDOF 2
ENDMDL
