MODEL 1
REMARK VINA RESULT: -7.460770873      0.000      0.000
REMARK  3 active torsions:
REMARK  status: ('A' for Active; 'I' for Inactive)
REMARK    1  A    between atoms: C3_4  and  N2_5 
REMARK    2  A    between atoms: C8_13  and  C9_14 
REMARK    3  A    between atoms: C14_25  and  N7_26 
ROOT
HETATM    1  N1  UNL     1      -5.989 -28.803  19.874  1.00  0.00    -0.191 NA
HETATM    2  C1  UNL     1      -6.994 -28.653  19.277  1.00  0.00     0.104 C 
HETATM    3  C2  UNL     1      -8.230 -28.505  18.543  1.00  0.00     0.106 A 
HETATM    4  C3  UNL     1      -9.028 -29.579  18.092  1.00  0.00     0.084 A 
HETATM    5  C8  UNL     1     -10.070 -28.974  17.465  1.00  0.00     0.102 A 
HETATM    6  N4  UNL     1      -9.984 -27.636  17.491  1.00  0.00    -0.247 N 
HETATM    7  N5  UNL     1     -10.724 -26.642  17.035  1.00  0.00    -0.289 N 
ATOM      8  H5  UNL     1     -11.579 -26.886  16.534  1.00  0.00     0.188 HD
HETATM    9  C13 UNL     1     -10.445 -25.345  17.175  1.00  0.00     0.199 A 
HETATM   10  N6  UNL     1      -9.336 -25.005  17.824  1.00  0.00    -0.336 N 
ATOM     11  H6  UNL     1      -9.094 -24.022  17.948  1.00  0.00     0.168 HD
HETATM   12  C14 UNL     1      -8.518 -25.990  18.326  1.00  0.00     0.130 A 
HETATM   13  C15 UNL     1      -8.834 -27.330  18.165  1.00  0.00     0.123 A 
ENDROOT
BRANCH   4  14
HETATM   14  N2  UNL     1      -8.654 -30.917  18.337  1.00  0.00    -0.374 N 
HETATM   15  C4  UNL     1      -7.560 -31.510  17.593  1.00  0.00     0.150 C 
HETATM   16  C5  UNL     1      -7.684 -32.993  17.701  1.00  0.00     0.252 C 
HETATM   17  N3  UNL     1      -7.562 -33.383  19.078  1.00  0.00    -0.072 N 
HETATM   18  C6  UNL     1      -8.538 -32.783  19.939  1.00  0.00     0.252 C 
ATOM     19  H32 UNL     1      -7.581 -34.399  19.167  1.00  0.00     0.277 HD
ATOM     20  H31 UNL     1      -6.619 -33.198  19.421  1.00  0.00     0.277 HD
HETATM   21  C7  UNL     1      -9.319 -31.668  19.335  1.00  0.00     0.150 C 
ENDBRANCH   4  14
BRANCH   5  22
HETATM   22  C9  UNL     1     -11.177 -29.698  16.813  1.00  0.00     0.035 A 
HETATM   23  C10 UNL     1     -12.491 -29.804  17.180  1.00  0.00     0.022 A 
HETATM   24  C11 UNL     1     -13.301 -30.538  16.396  1.00  0.00     0.008 A 
HETATM   25  C12 UNL     1     -12.746 -31.123  15.293  1.00  0.00     0.050 A 
HETATM   26  S1  UNL     1     -11.124 -30.632  15.384  1.00  0.00    -0.100 SA
ENDBRANCH   5  22
BRANCH  12  27
HETATM   27  N7  UNL     1      -7.493 -25.593  18.925  1.00  0.00    -0.383 N 
ATOM     28  H72 UNL     1      -7.495 -24.812  19.581  1.00  0.00     0.157 HD
ATOM     29  H71 UNL     1      -6.634 -26.102  18.718  1.00  0.00     0.157 HD
ENDBRANCH  12  27
TORSDOF 3
ENDMDL
MODEL 2
REMARK VINA RESULT: -7.223800533      1.322      1.836
REMARK  3 active torsions:
REMARK  status: ('A' for Active; 'I' for Inactive)
REMARK    1  A    between atoms: C3_4  and  N2_5 
REMARK    2  A    between atoms: C8_13  and  C9_14 
REMARK    3  A    between atoms: C14_25  and  N7_26 
ROOT
HETATM    1  N1  UNL     1      -7.545 -28.273  21.082  1.00  0.00    -0.191 NA
HETATM    2  C1  UNL     1      -8.035 -28.220  20.011  1.00  0.00     0.104 C 
HETATM    3  C2  UNL     1      -8.636 -28.190  18.697  1.00  0.00     0.106 A 
HETATM    4  C3  UNL     1      -9.036 -29.334  17.973  1.00  0.00     0.084 A 
HETATM    5  C8  UNL     1      -9.539 -28.832  16.815  1.00  0.00     0.102 A 
HETATM    6  N4  UNL     1      -9.483 -27.494  16.765  1.00  0.00    -0.247 N 
HETATM    7  N5  UNL     1      -9.834 -26.575  15.883  1.00  0.00    -0.289 N 
ATOM      8  H5  UNL     1     -10.254 -26.899  15.011  1.00  0.00     0.188 HD
HETATM    9  C13 UNL     1      -9.684 -25.259  16.038  1.00  0.00     0.199 A 
HETATM   10  N6  UNL     1      -9.140 -24.815  17.166  1.00  0.00    -0.336 N 
ATOM     11  H6  UNL     1      -9.011 -23.814  17.317  1.00  0.00     0.168 HD
HETATM   12  C14 UNL     1      -8.751 -25.717  18.129  1.00  0.00     0.130 A 
HETATM   13  C15 UNL     1      -8.919 -27.080  17.940  1.00  0.00     0.123 A 
ENDROOT
BRANCH   4  14
HETATM   14  N2  UNL     1      -8.867 -30.630  18.506  1.00  0.00    -0.374 N 
HETATM   15  C4  UNL     1      -9.938 -31.244  19.267  1.00  0.00     0.150 C 
HETATM   16  C5  UNL     1      -9.348 -32.352  20.074  1.00  0.00     0.252 C 
HETATM   17  N3  UNL     1      -8.792 -33.340  19.192  1.00  0.00    -0.072 N 
HETATM   18  C6  UNL     1      -7.779 -32.830  18.316  1.00  0.00     0.252 C 
ATOM     19  H32 UNL     1      -8.439 -34.137  19.723  1.00  0.00     0.277 HD
ATOM     20  H31 UNL     1      -9.529 -33.801  18.660  1.00  0.00     0.277 HD
HETATM   21  C7  UNL     1      -7.671 -31.346  18.265  1.00  0.00     0.150 C 
ENDBRANCH   4  14
BRANCH   5  22
HETATM   22  C9  UNL     1     -10.080 -29.658  15.720  1.00  0.00     0.035 A 
HETATM   23  C10 UNL     1      -9.637 -29.808  14.434  1.00  0.00     0.022 A 
HETATM   24  C11 UNL     1     -10.325 -30.635  13.629  1.00  0.00     0.008 A 
HETATM   25  C12 UNL     1     -11.418 -31.263  14.158  1.00  0.00     0.050 A 
HETATM   26  S1  UNL     1     -11.447 -30.682  15.753  1.00  0.00    -0.100 SA
ENDBRANCH   5  22
BRANCH  12  27
HETATM   27  N7  UNL     1      -8.246 -25.224  19.164  1.00  0.00    -0.383 N 
ATOM     28  H72 UNL     1      -7.951 -24.250  19.233  1.00  0.00     0.157 HD
ATOM     29  H71 UNL     1      -8.143 -25.861  19.954  1.00  0.00     0.157 HD
ENDBRANCH  12  27
TORSDOF 3
ENDMDL
MODEL 3
REMARK VINA RESULT: -7.182354880      1.324      1.554
REMARK  3 active torsions:
REMARK  status: ('A' for Active; 'I' for Inactive)
REMARK    1  A    between atoms: C3_4  and  N2_5 
REMARK    2  A    between atoms: C8_13  and  C9_14 
REMARK    3  A    between atoms: C14_25  and  N7_26 
ROOT
HETATM    1  N1  UNL     1      -7.591 -28.426  21.029  1.00  0.00    -0.191 NA
HETATM    2  C1  UNL     1      -8.078 -28.356  19.958  1.00  0.00     0.104 C 
HETATM    3  C2  UNL     1      -8.677 -28.304  18.644  1.00  0.00     0.106 A 
HETATM    4  C3  UNL     1      -9.086 -29.436  17.905  1.00  0.00     0.084 A 
HETATM    5  C8  UNL     1      -9.583 -28.915  16.753  1.00  0.00     0.102 A 
HETATM    6  N4  UNL     1      -9.515 -27.576  16.719  1.00  0.00    -0.247 N 
HETATM    7  N5  UNL     1      -9.856 -26.644  15.848  1.00  0.00    -0.289 N 
ATOM      8  H5  UNL     1     -10.278 -26.953  14.971  1.00  0.00     0.188 HD
HETATM    9  C13 UNL     1      -9.695 -25.331  16.020  1.00  0.00     0.199 A 
HETATM   10  N6  UNL     1      -9.149 -24.906  17.154  1.00  0.00    -0.336 N 
ATOM     11  H6  UNL     1      -9.012 -23.908  17.317  1.00  0.00     0.168 HD
HETATM   12  C14 UNL     1      -8.769 -25.823  18.107  1.00  0.00     0.130 A 
HETATM   13  C15 UNL     1      -8.949 -27.182  17.900  1.00  0.00     0.123 A 
ENDROOT
BRANCH   4  14
HETATM   14  N2  UNL     1      -8.930 -30.740  18.422  1.00  0.00    -0.374 N 
HETATM   15  C4  UNL     1      -7.698 -31.467  18.187  1.00  0.00     0.150 C 
HETATM   16  C5  UNL     1      -7.971 -32.915  18.418  1.00  0.00     0.252 C 
HETATM   17  N3  UNL     1      -8.363 -33.114  19.786  1.00  0.00    -0.072 N 
HETATM   18  C6  UNL     1      -9.524 -32.368  20.170  1.00  0.00     0.252 C 
ATOM     19  H32 UNL     1      -8.494 -34.107  19.981  1.00  0.00     0.277 HD
ATOM     20  H31 UNL     1      -7.585 -32.917  20.415  1.00  0.00     0.277 HD
HETATM   21  C7  UNL     1      -9.956 -31.321  19.202  1.00  0.00     0.150 C 
ENDBRANCH   4  14
BRANCH   5  22
HETATM   22  C9  UNL     1     -10.129 -29.722  15.647  1.00  0.00     0.035 A 
HETATM   23  C10 UNL     1      -9.687 -29.859  14.359  1.00  0.00     0.022 A 
HETATM   24  C11 UNL     1     -10.381 -30.670  13.543  1.00  0.00     0.008 A 
HETATM   25  C12 UNL     1     -11.479 -31.297  14.063  1.00  0.00     0.050 A 
HETATM   26  S1  UNL     1     -11.504 -30.737  15.666  1.00  0.00    -0.100 SA
ENDBRANCH   5  22
BRANCH  12  27
HETATM   27  N7  UNL     1      -8.262 -25.348  19.148  1.00  0.00    -0.383 N 
ATOM     28  H72 UNL     1      -8.007 -24.365  19.248  1.00  0.00     0.157 HD
ATOM     29  H71 UNL     1      -8.113 -26.009  19.910  1.00  0.00     0.157 HD
ENDBRANCH  12  27
TORSDOF 3
ENDMDL
MODEL 4
REMARK VINA RESULT: -6.890695790      2.782      5.436
REMARK  3 active torsions:
REMARK  status: ('A' for Active; 'I' for Inactive)
REMARK    1  A    between atoms: C3_4  and  N2_5 
REMARK    2  A    between atoms: C8_13  and  C9_14 
REMARK    3  A    between atoms: C14_25  and  N7_26 
ROOT
HETATM    1  N1  UNL     1     -10.247 -33.904  18.777  1.00  0.00    -0.191 NA
HETATM    2  C1  UNL     1      -9.961 -32.833  19.178  1.00  0.00     0.104 C 
HETATM    3  C2  UNL     1      -9.602 -31.511  19.638  1.00  0.00     0.106 A 
HETATM    4  C3  UNL     1      -9.163 -30.463  18.799  1.00  0.00     0.084 A 
HETATM    5  C8  UNL     1      -8.947 -29.428  19.652  1.00  0.00     0.102 A 
HETATM    6  N4  UNL     1      -9.211 -29.744  20.927  1.00  0.00    -0.247 N 
HETATM    7  N5  UNL     1      -9.157 -29.103  22.081  1.00  0.00    -0.289 N 
ATOM      8  H5  UNL     1      -8.848 -28.131  22.062  1.00  0.00     0.188 HD
HETATM    9  C13 UNL     1      -9.474 -29.623  23.267  1.00  0.00     0.199 A 
HETATM   10  N6  UNL     1      -9.880 -30.887  23.315  1.00  0.00    -0.336 N 
ATOM     11  H6  UNL     1     -10.129 -31.315  24.207  1.00  0.00     0.168 HD
HETATM   12  C14 UNL     1      -9.959 -31.615  22.151  1.00  0.00     0.130 A 
HETATM   13  C15 UNL     1      -9.623 -31.048  20.931  1.00  0.00     0.123 A 
ENDROOT
BRANCH   4  14
HETATM   14  N2  UNL     1      -9.041 -30.648  17.405  1.00  0.00    -0.374 N 
HETATM   15  C4  UNL     1      -7.817 -31.195  16.854  1.00  0.00     0.150 C 
HETATM   16  C5  UNL     1      -7.777 -30.853  15.402  1.00  0.00     0.252 C 
HETATM   17  N3  UNL     1      -8.892 -31.468  14.736  1.00  0.00    -0.072 N 
HETATM   18  C6  UNL     1     -10.167 -31.076  15.258  1.00  0.00     0.252 C 
ATOM     19  H32 UNL     1      -8.848 -31.298  13.731  1.00  0.00     0.277 HD
ATOM     20  H31 UNL     1      -8.798 -32.483  14.743  1.00  0.00     0.277 HD
HETATM   21  C7  UNL     1     -10.125 -30.337  16.551  1.00  0.00     0.150 C 
ENDBRANCH   4  14
BRANCH   5  22
HETATM   22  C9  UNL     1      -8.463 -28.099  19.234  1.00  0.00     0.035 A 
HETATM   23  C10 UNL     1      -7.407 -27.364  19.701  1.00  0.00     0.022 A 
HETATM   24  C11 UNL     1      -7.183 -26.165  19.138  1.00  0.00     0.008 A 
HETATM   25  C12 UNL     1      -8.031 -25.770  18.141  1.00  0.00     0.050 A 
HETATM   26  S1  UNL     1      -9.104 -27.079  18.023  1.00  0.00    -0.100 SA
ENDBRANCH   5  22
BRANCH  12  27
HETATM   27  N7  UNL     1     -10.349 -32.798  22.274  1.00  0.00    -0.383 N 
ATOM     28  H72 UNL     1     -10.074 -33.400  23.051  1.00  0.00     0.157 HD
ATOM     29  H71 UNL     1     -10.970 -33.139  21.541  1.00  0.00     0.157 HD
ENDBRANCH  12  27
TORSDOF 3
ENDMDL
MODEL 5
REMARK VINA RESULT: -6.852301266      2.009      2.304
REMARK  3 active torsions:
REMARK  status: ('A' for Active; 'I' for Inactive)
REMARK    1  A    between atoms: C3_4  and  N2_5 
REMARK    2  A    between atoms: C8_13  and  C9_14 
REMARK    3  A    between atoms: C14_25  and  N7_26 
ROOT
HETATM    1  N1  UNL     1      -7.845 -28.399  21.608  1.00  0.00    -0.191 NA
HETATM    2  C1  UNL     1      -8.006 -28.300  20.444  1.00  0.00     0.104 C 
HETATM    3  C2  UNL     1      -8.210 -28.215  19.016  1.00  0.00     0.106 A 
HETATM    4  C3  UNL     1      -8.526 -29.311  18.185  1.00  0.00     0.084 A 
HETATM    5  C8  UNL     1      -8.623 -28.766  16.944  1.00  0.00     0.102 A 
HETATM    6  N4  UNL     1      -8.396 -27.445  16.940  1.00  0.00    -0.247 N 
HETATM    7  N5  UNL     1      -8.376 -26.502  16.015  1.00  0.00    -0.289 N 
ATOM      8  H5  UNL     1      -8.571 -26.784  15.054  1.00  0.00     0.188 HD
HETATM    9  C13 UNL     1      -8.120 -25.212  16.235  1.00  0.00     0.199 A 
HETATM   10  N6  UNL     1      -7.862 -24.822  17.479  1.00  0.00    -0.336 N 
ATOM     11  H6  UNL     1      -7.663 -23.843  17.681  1.00  0.00     0.168 HD
HETATM   12  C14 UNL     1      -7.867 -25.753  18.493  1.00  0.00     0.130 A 
HETATM   13  C15 UNL     1      -8.136 -27.088  18.234  1.00  0.00     0.123 A 
ENDROOT
BRANCH   4  14
HETATM   14  N2  UNL     1      -8.667 -30.612  18.715  1.00  0.00    -0.374 N 
HETATM   15  C4  UNL     1      -9.935 -31.026  19.282  1.00  0.00     0.150 C 
HETATM   16  C5  UNL     1      -9.681 -32.210  20.154  1.00  0.00     0.252 C 
HETATM   17  N3  UNL     1      -9.164 -33.287  19.357  1.00  0.00    -0.072 N 
HETATM   18  C6  UNL     1      -7.952 -32.966  18.665  1.00  0.00     0.252 C 
ATOM     19  H32 UNL     1      -9.042 -34.127  19.924  1.00  0.00     0.277 HD
ATOM     20  H31 UNL     1      -9.873 -33.622  18.705  1.00  0.00     0.277 HD
HETATM   21  C7  UNL     1      -7.587 -31.522  18.658  1.00  0.00     0.150 C 
ENDBRANCH   4  14
BRANCH   5  22
HETATM   22  C9  UNL     1      -8.932 -29.535  15.724  1.00  0.00     0.035 A 
HETATM   23  C10 UNL     1      -9.859 -29.293  14.747  1.00  0.00     0.022 A 
HETATM   24  C11 UNL     1      -9.935 -30.167  13.728  1.00  0.00     0.008 A 
HETATM   25  C12 UNL     1      -9.079 -31.233  13.748  1.00  0.00     0.050 A 
HETATM   26  S1  UNL     1      -8.201 -30.980  15.179  1.00  0.00    -0.100 SA
ENDBRANCH   5  22
BRANCH  12  27
HETATM   27  N7  UNL     1      -7.616 -25.312  19.637  1.00  0.00    -0.383 N 
ATOM     28  H72 UNL     1      -8.316 -24.868  20.232  1.00  0.00     0.157 HD
ATOM     29  H71 UNL     1      -6.652 -25.420  19.952  1.00  0.00     0.157 HD
ENDBRANCH  12  27
TORSDOF 3
ENDMDL
