MODEL 1
REMARK VINA RESULT: -7.552381551      0.000      0.000
REMARK  3 active torsions:
REMARK  status: ('A' for Active; 'I' for Inactive)
REMARK    1  A    between atoms: C3_4  and  N2_5 
REMARK    2  A    between atoms: C7_9  and  N3_10 
REMARK    3  A    between atoms: N3_10  and  C8_12 
ROOT
HETATM    1  N1  UNL     1      -6.813 -23.059  19.783  1.00  0.00    -0.191 NA
HETATM    2  C1  UNL     1      -7.363 -23.761  19.013  1.00  0.00     0.105 C 
HETATM    3  C2  UNL     1      -8.059 -24.608  18.059  1.00  0.00     0.114 A 
HETATM    4  C3  UNL     1      -8.341 -24.136  16.784  1.00  0.00     0.160 A 
HETATM    5  N5  UNL     1      -8.985 -24.985  15.984  1.00  0.00    -0.174 N 
ATOM      6  H5  UNL     1      -9.209 -24.673  15.039  1.00  0.00     0.186 HD
HETATM    7  C9  UNL     1      -9.369 -26.261  16.353  1.00  0.00     0.680 A 
HETATM    8  N6  UNL     1      -9.970 -26.968  15.495  1.00  0.00    -0.234 N 
ATOM      9  H61 UNL     1     -10.253 -27.909  15.767  1.00  0.00     0.174 HD
ATOM     10  H62 UNL     1     -10.176 -26.620  14.559  1.00  0.00     0.174 HD
HETATM   11  N7  UNL     1      -9.100 -26.716  17.578  1.00  0.00    -0.186 N 
HETATM   12  C10 UNL     1      -8.439 -25.871  18.422  1.00  0.00     0.053 A 
HETATM   13  C11 UNL     1      -8.053 -26.227  19.829  1.00  0.00     0.059 C 
HETATM   14  C12 UNL     1      -7.011 -27.352  19.744  1.00  0.00     0.006 C 
HETATM   15  C13 UNL     1      -7.693 -28.659  19.514  1.00  0.00     0.002 C 
HETATM   16  C14 UNL     1      -8.221 -28.847  18.107  1.00  0.00     0.021 C 
HETATM   17  C15 UNL     1      -9.519 -28.041  17.919  1.00  0.00     0.147 C 
ENDROOT
BRANCH   4  18
HETATM   18  N2  UNL     1      -7.952 -22.828  16.381  1.00  0.00    -0.277 N 
HETATM   19  C4  UNL     1      -6.769 -22.528  15.596  1.00  0.00     0.150 C 
HETATM   20  C5  UNL     1      -6.290 -21.159  16.107  1.00  0.00     0.026 C 
HETATM   21  C6  UNL     1      -7.272 -20.144  15.560  1.00  0.00     0.050 C 
HETATM   22  C7  UNL     1      -8.663 -20.613  15.935  1.00  0.00     0.197 C 
HETATM   23  N4  UNL     1      -8.711 -21.763  16.732  1.00  0.00    -0.309 N 
ATOM     24  H4  UNL     1      -9.305 -21.798  17.561  1.00  0.00     0.182 HD
BRANCH  22  25
HETATM   25  N3  UNL     1      -9.411 -19.545  16.593  1.00  0.00    -0.368 N 
ATOM     26  H3  UNL     1      -9.218 -19.275  17.557  1.00  0.00     0.161 HD
BRANCH  25  27
HETATM   27  C8  UNL     1     -10.314 -18.968  15.912  1.00  0.00     0.167 C 
HETATM   28  S1  UNL     1     -11.254 -18.324  14.795  1.00  0.00    -0.075 SA
ENDBRANCH  25  27
ENDBRANCH  22  25
ENDBRANCH   4  18
TORSDOF 3
ENDMDL
MODEL 2
REMARK VINA RESULT: -7.508962111      3.657      5.574
REMARK  3 active torsions:
REMARK  status: ('A' for Active; 'I' for Inactive)
REMARK    1  A    between atoms: C3_4  and  N2_5 
REMARK    2  A    between atoms: C7_9  and  N3_10 
REMARK    3  A    between atoms: N3_10  and  C8_12 
ROOT
HETATM    1  N1  UNL     1      -7.471 -29.061  19.363  1.00  0.00    -0.191 NA
HETATM    2  C1  UNL     1      -8.513 -29.370  18.909  1.00  0.00     0.105 C 
HETATM    3  C2  UNL     1      -9.809 -29.728  18.356  1.00  0.00     0.114 A 
HETATM    4  C3  UNL     1     -10.417 -28.906  17.417  1.00  0.00     0.160 A 
HETATM    5  N5  UNL     1     -11.603 -29.317  16.972  1.00  0.00    -0.174 N 
ATOM      6  H5  UNL     1     -12.080 -28.738  16.281  1.00  0.00     0.186 HD
HETATM    7  C9  UNL     1     -12.230 -30.478  17.387  1.00  0.00     0.680 A 
HETATM    8  N6  UNL     1     -13.353 -30.756  16.881  1.00  0.00    -0.234 N 
ATOM      9  H61 UNL     1     -13.815 -31.612  17.187  1.00  0.00     0.174 HD
ATOM     10  H62 UNL     1     -13.799 -30.150  16.192  1.00  0.00     0.174 HD
HETATM   11  N7  UNL     1     -11.647 -31.269  18.289  1.00  0.00    -0.186 N 
HETATM   12  C10 UNL     1     -10.429 -30.877  18.765  1.00  0.00     0.053 A 
HETATM   13  C11 UNL     1      -9.635 -31.654  19.775  1.00  0.00     0.059 C 
HETATM   14  C12 UNL     1      -9.225 -32.977  19.113  1.00  0.00     0.006 C 
HETATM   15  C13 UNL     1     -10.366 -33.938  19.149  1.00  0.00     0.002 C 
HETATM   16  C14 UNL     1     -11.475 -33.625  18.167  1.00  0.00     0.021 C 
HETATM   17  C15 UNL     1     -12.332 -32.459  18.694  1.00  0.00     0.147 C 
ENDROOT
BRANCH   4  18
HETATM   18  N2  UNL     1      -9.790 -27.708  16.972  1.00  0.00    -0.277 N 
HETATM   19  C4  UNL     1      -8.874 -27.628  15.850  1.00  0.00     0.150 C 
HETATM   20  C5  UNL     1      -7.867 -26.533  16.237  1.00  0.00     0.026 C 
HETATM   21  C6  UNL     1      -8.608 -25.220  16.105  1.00  0.00     0.050 C 
HETATM   22  C7  UNL     1      -9.890 -25.342  16.903  1.00  0.00     0.197 C 
HETATM   23  N4  UNL     1     -10.040 -26.541  17.612  1.00  0.00    -0.309 N 
ATOM     24  H4  UNL     1     -10.332 -26.535  18.589  1.00  0.00     0.182 HD
BRANCH  22  25
HETATM   25  N3  UNL     1     -10.036 -24.221  17.828  1.00  0.00    -0.368 N 
ATOM     26  H3  UNL     1     -10.885 -23.657  17.851  1.00  0.00     0.161 HD
BRANCH  25  27
HETATM   27  C8  UNL     1      -9.058 -23.980  18.602  1.00  0.00     0.167 C 
HETATM   28  S1  UNL     1      -7.739 -23.462  19.333  1.00  0.00    -0.075 SA
ENDBRANCH  25  27
ENDBRANCH  22  25
ENDBRANCH   4  18
TORSDOF 3
ENDMDL
MODEL 3
REMARK VINA RESULT: -7.461587096      4.367      8.544
REMARK  3 active torsions:
REMARK  status: ('A' for Active; 'I' for Inactive)
REMARK    1  A    between atoms: C3_4  and  N2_5 
REMARK    2  A    between atoms: C7_9  and  N3_10 
REMARK    3  A    between atoms: N3_10  and  C8_12 
ROOT
HETATM    1  N1  UNL     1     -11.106 -29.546  15.959  1.00  0.00    -0.191 NA
HETATM    2  C1  UNL     1     -10.415 -29.024  16.758  1.00  0.00     0.105 C 
HETATM    3  C2  UNL     1      -9.574 -28.394  17.762  1.00  0.00     0.114 A 
HETATM    4  C3  UNL     1      -8.882 -29.172  18.680  1.00  0.00     0.160 A 
HETATM    5  N5  UNL     1      -8.142 -28.503  19.562  1.00  0.00    -0.174 N 
ATOM      6  H5  UNL     1      -7.619 -29.042  20.253  1.00  0.00     0.186 HD
HETATM    7  C9  UNL     1      -8.036 -27.125  19.602  1.00  0.00     0.680 A 
HETATM    8  N6  UNL     1      -7.294 -26.615  20.488  1.00  0.00    -0.234 N 
ATOM      9  H61 UNL     1      -7.216 -25.599  20.517  1.00  0.00     0.174 HD
ATOM     10  H62 UNL     1      -6.787 -27.188  21.162  1.00  0.00     0.174 HD
HETATM   11  N7  UNL     1      -8.700 -26.375  18.721  1.00  0.00    -0.186 N 
HETATM   12  C10 UNL     1      -9.468 -27.031  17.802  1.00  0.00     0.053 A 
HETATM   13  C11 UNL     1     -10.271 -26.340  16.737  1.00  0.00     0.059 C 
HETATM   14  C12 UNL     1      -9.276 -25.660  15.785  1.00  0.00     0.006 C 
HETATM   15  C13 UNL     1      -8.804 -24.375  16.377  1.00  0.00     0.002 C 
HETATM   16  C14 UNL     1      -7.821 -24.538  17.517  1.00  0.00     0.021 C 
HETATM   17  C15 UNL     1      -8.566 -24.952  18.800  1.00  0.00     0.147 C 
ENDROOT
BRANCH   4  18
HETATM   18  N2  UNL     1      -8.972 -30.593  18.657  1.00  0.00    -0.277 N 
HETATM   19  C4  UNL     1      -7.934 -31.474  18.157  1.00  0.00     0.150 C 
HETATM   20  C5  UNL     1      -8.685 -32.662  17.537  1.00  0.00     0.026 C 
HETATM   21  C6  UNL     1      -9.220 -33.469  18.700  1.00  0.00     0.050 C 
HETATM   22  C7  UNL     1      -9.983 -32.517  19.598  1.00  0.00     0.197 C 
HETATM   23  N4  UNL     1     -10.087 -31.203  19.124  1.00  0.00    -0.309 N 
ATOM     24  H4  UNL     1     -10.983 -30.716  19.131  1.00  0.00     0.182 HD
BRANCH  22  25
HETATM   25  N3  UNL     1     -11.322 -33.028  19.881  1.00  0.00    -0.368 N 
ATOM     26  H3  UNL     1     -11.473 -33.784  20.549  1.00  0.00     0.161 HD
BRANCH  25  27
HETATM   27  C8  UNL     1     -12.289 -32.490  19.259  1.00  0.00     0.167 C 
HETATM   28  S1  UNL     1     -13.689 -32.040  18.641  1.00  0.00    -0.075 SA
ENDBRANCH  25  27
ENDBRANCH  22  25
ENDBRANCH   4  18
TORSDOF 3
ENDMDL
MODEL 4
REMARK VINA RESULT: -7.381879627      4.490      8.709
REMARK  3 active torsions:
REMARK  status: ('A' for Active; 'I' for Inactive)
REMARK    1  A    between atoms: C3_4  and  N2_5 
REMARK    2  A    between atoms: C7_9  and  N3_10 
REMARK    3  A    between atoms: N3_10  and  C8_12 
ROOT
HETATM    1  N1  UNL     1     -11.755 -29.606  16.529  1.00  0.00    -0.191 NA
HETATM    2  C1  UNL     1     -10.874 -29.124  17.143  1.00  0.00     0.105 C 
HETATM    3  C2  UNL     1      -9.794 -28.541  17.923  1.00  0.00     0.114 A 
HETATM    4  C3  UNL     1      -9.001 -29.348  18.728  1.00  0.00     0.160 A 
HETATM    5  N5  UNL     1      -8.041 -28.721  19.406  1.00  0.00    -0.174 N 
ATOM      6  H5  UNL     1      -7.438 -29.281  20.007  1.00  0.00     0.186 HD
HETATM    7  C9  UNL     1      -7.810 -27.359  19.346  1.00  0.00     0.680 A 
HETATM    8  N6  UNL     1      -6.861 -26.890  20.036  1.00  0.00    -0.234 N 
ATOM      9  H61 UNL     1      -6.691 -25.885  19.992  1.00  0.00     0.174 HD
ATOM     10  H62 UNL     1      -6.280 -27.484  20.626  1.00  0.00     0.174 HD
HETATM   11  N7  UNL     1      -8.571 -26.581  18.573  1.00  0.00    -0.186 N 
HETATM   12  C10 UNL     1      -9.564 -27.194  17.864  1.00  0.00     0.053 A 
HETATM   13  C11 UNL     1     -10.503 -26.469  16.942  1.00  0.00     0.059 C 
HETATM   14  C12 UNL     1      -9.667 -25.926  15.775  1.00  0.00     0.006 C 
HETATM   15  C13 UNL     1      -8.975 -24.671  16.188  1.00  0.00     0.002 C 
HETATM   16  C14 UNL     1      -7.799 -24.885  17.117  1.00  0.00     0.021 C 
HETATM   17  C15 UNL     1      -8.300 -25.176  18.544  1.00  0.00     0.147 C 
ENDROOT
BRANCH   4  18
HETATM   18  N2  UNL     1      -9.217 -30.752  18.803  1.00  0.00    -0.277 N 
HETATM   19  C4  UNL     1     -10.077 -31.401  19.773  1.00  0.00     0.150 C 
HETATM   20  C5  UNL     1      -9.400 -32.750  20.066  1.00  0.00     0.026 C 
HETATM   21  C6  UNL     1      -9.638 -33.609  18.842  1.00  0.00     0.050 C 
HETATM   22  C7  UNL     1      -9.181 -32.814  17.636  1.00  0.00     0.197 C 
HETATM   23  N4  UNL     1      -8.595 -31.575  17.924  1.00  0.00    -0.309 N 
ATOM     24  H4  UNL     1      -7.719 -31.298  17.482  1.00  0.00     0.182 HD
BRANCH  22  25
HETATM   25  N3  UNL     1      -8.261 -33.597  16.816  1.00  0.00    -0.368 N 
ATOM     26  H3  UNL     1      -7.918 -34.508  17.121  1.00  0.00     0.161 HD
BRANCH  25  27
HETATM   27  C8  UNL     1      -7.907 -33.094  15.705  1.00  0.00     0.167 C 
HETATM   28  S1  UNL     1      -7.175 -32.396  14.471  1.00  0.00    -0.075 SA
ENDBRANCH  25  27
ENDBRANCH  22  25
ENDBRANCH   4  18
TORSDOF 3
ENDMDL
MODEL 5
REMARK VINA RESULT: -7.309951172      1.766      2.403
REMARK  3 active torsions:
REMARK  status: ('A' for Active; 'I' for Inactive)
REMARK    1  A    between atoms: C3_4  and  N2_5 
REMARK    2  A    between atoms: C7_9  and  N3_10 
REMARK    3  A    between atoms: N3_10  and  C8_12 
ROOT
HETATM    1  N1  UNL     1      -6.770 -23.233  19.855  1.00  0.00    -0.191 NA
HETATM    2  C1  UNL     1      -7.340 -23.889  19.061  1.00  0.00     0.105 C 
HETATM    3  C2  UNL     1      -8.060 -24.679  18.076  1.00  0.00     0.114 A 
HETATM    4  C3  UNL     1      -8.331 -24.152  16.821  1.00  0.00     0.160 A 
HETATM    5  N5  UNL     1      -8.998 -24.951  15.990  1.00  0.00    -0.174 N 
ATOM      6  H5  UNL     1      -9.215 -24.597  15.058  1.00  0.00     0.186 HD
HETATM    7  C9  UNL     1      -9.417 -26.229  16.310  1.00  0.00     0.680 A 
HETATM    8  N6  UNL     1     -10.037 -26.886  15.427  1.00  0.00    -0.234 N 
ATOM      9  H61 UNL     1     -10.346 -27.829  15.663  1.00  0.00     0.174 HD
ATOM     10  H62 UNL     1     -10.235 -26.496  14.505  1.00  0.00     0.174 HD
HETATM   11  N7  UNL     1      -9.158 -26.739  17.516  1.00  0.00    -0.186 N 
HETATM   12  C10 UNL     1      -8.474 -25.945  18.391  1.00  0.00     0.053 A 
HETATM   13  C11 UNL     1      -8.095 -26.366  19.782  1.00  0.00     0.059 C 
HETATM   14  C12 UNL     1      -7.084 -27.515  19.650  1.00  0.00     0.006 C 
HETATM   15  C13 UNL     1      -7.802 -28.793  19.371  1.00  0.00     0.002 C 
HETATM   16  C14 UNL     1      -8.336 -28.912  17.960  1.00  0.00     0.021 C 
HETATM   17  C15 UNL     1      -9.613 -28.065  17.806  1.00  0.00     0.147 C 
ENDROOT
BRANCH   4  18
HETATM   18  N2  UNL     1      -7.907 -22.840  16.467  1.00  0.00    -0.277 N 
HETATM   19  C4  UNL     1      -8.610 -21.624  16.827  1.00  0.00     0.150 C 
HETATM   20  C5  UNL     1      -8.381 -20.667  15.647  1.00  0.00     0.026 C 
HETATM   21  C6  UNL     1      -6.939 -20.215  15.751  1.00  0.00     0.050 C 
HETATM   22  C7  UNL     1      -6.082 -21.459  15.855  1.00  0.00     0.197 C 
HETATM   23  N4  UNL     1      -6.773 -22.672  15.745  1.00  0.00    -0.309 N 
ATOM     24  H4  UNL     1      -6.430 -23.414  15.134  1.00  0.00     0.182 HD
BRANCH  22  25
HETATM   25  N3  UNL     1      -5.006 -21.433  14.867  1.00  0.00    -0.368 N 
ATOM     26  H3  UNL     1      -4.026 -21.477  15.146  1.00  0.00     0.161 HD
BRANCH  25  27
HETATM   27  C8  UNL     1      -5.345 -21.353  13.646  1.00  0.00     0.167 C 
HETATM   28  S1  UNL     1      -5.525 -21.025  12.096  1.00  0.00    -0.075 SA
ENDBRANCH  25  27
ENDBRANCH  22  25
ENDBRANCH   4  18
TORSDOF 3
ENDMDL
