MODEL 1
REMARK VINA RESULT: -7.059878765      0.000      0.000
REMARK  5 active torsions:
REMARK  status: ('A' for Active; 'I' for Inactive)
REMARK    1  A    between atoms: C2_2  and  C3_3 
REMARK    2  A    between atoms: C5_6  and  N1_7 
REMARK    3  A    between atoms: N1_7  and  C6_9 
REMARK    4  A    between atoms: C10_17  and  N4_18 
REMARK    5  A    between atoms: N4_18  and  C11_20 
ROOT
HETATM    1  C6  UNL     1      -8.410 -22.421  17.523  1.00  0.00     0.696 A 
HETATM    2  N2  UNL     1      -8.735 -21.174  17.403  1.00  0.00    -0.199 N 
ATOM      3  H2  UNL     1      -9.497 -20.826  17.985  1.00  0.00     0.180 HD
HETATM    4  C7  UNL     1      -8.106 -20.249  16.514  1.00  0.00     0.129 A 
HETATM    5  C8  UNL     1      -9.158 -19.644  15.581  1.00  0.00     0.064 C 
HETATM    6  C9  UNL     1      -7.511 -19.068  17.292  1.00  0.00     0.064 C 
HETATM    7  N3  UNL     1      -7.046 -20.820  15.748  1.00  0.00    -0.199 N 
ATOM      8  H3  UNL     1      -6.558 -20.195  15.106  1.00  0.00     0.180 HD
HETATM    9  C10 UNL     1      -6.639 -22.043  15.783  1.00  0.00     0.709 A 
HETATM   10  N7  UNL     1      -7.344 -22.900  16.711  1.00  0.00    -0.022 N 
ATOM     11  H7  UNL     1      -7.068 -23.879  16.787  1.00  0.00     0.203 HD
ENDROOT
BRANCH   1  12
HETATM   12  N1  UNL     1      -9.101 -23.260  18.439  1.00  0.00    -0.170 N 
ATOM     13  H1  UNL     1      -9.621 -22.845  19.212  1.00  0.00     0.186 HD
BRANCH  12  14
HETATM   14  C5  UNL     1      -9.076 -24.568  18.298  1.00  0.00     0.164 A 
HETATM   15  S1  UNL     1      -8.037 -25.705  19.023  1.00  0.00    -0.063 SA
HETATM   16  C4  UNL     1      -8.678 -27.119  18.311  1.00  0.00     0.078 A 
HETATM   17  C3  UNL     1      -9.687 -26.613  17.534  1.00  0.00     0.017 A 
HETATM   18  N8  UNL     1      -9.871 -25.326  17.540  1.00  0.00    -0.339 N 
ATOM     19  H8  UNL     1     -10.608 -24.903  16.976  1.00  0.00     0.168 HD
BRANCH  17  20
HETATM   20  C2  UNL     1     -10.534 -27.570  16.708  1.00  0.00     0.053 C 
HETATM   21  C1  UNL     1      -9.733 -28.249  15.648  1.00  0.00     0.011 C 
ENDBRANCH  17  20
ENDBRANCH  12  14
ENDBRANCH   1  12
BRANCH   9  22
HETATM   22  N4  UNL     1      -5.578 -22.553  14.997  1.00  0.00    -0.021 N 
ATOM     23  H4  UNL     1      -5.602 -23.554  14.799  1.00  0.00     0.203 HD
BRANCH  22  24
HETATM   24  C11 UNL     1      -4.501 -21.842  14.460  1.00  0.00     0.698 A 
HETATM   25  N5  UNL     1      -3.255 -21.798  15.023  1.00  0.00    -0.200 N 
HETATM   26  C12 UNL     1      -2.437 -21.048  14.295  1.00  0.00     0.124 A 
ATOM     27  H5  UNL     1      -2.991 -22.276  15.884  1.00  0.00     0.183 HD
HETATM   28  C13 UNL     1      -3.160 -20.584  13.224  1.00  0.00     0.126 A 
HETATM   29  N6  UNL     1      -4.421 -21.103  13.376  1.00  0.00    -0.196 N 
HETATM   30  C14 UNL     1      -5.483 -20.823  12.413  1.00  0.00     0.175 C 
ENDBRANCH  22  24
ENDBRANCH   9  22
TORSDOF 5
ENDMDL
MODEL 2
REMARK VINA RESULT: -6.914580717      0.541      1.200
REMARK  5 active torsions:
REMARK  status: ('A' for Active; 'I' for Inactive)
REMARK    1  A    between atoms: C2_2  and  C3_3 
REMARK    2  A    between atoms: C5_6  and  N1_7 
REMARK    3  A    between atoms: N1_7  and  C6_9 
REMARK    4  A    between atoms: C10_17  and  N4_18 
REMARK    5  A    between atoms: N4_18  and  C11_20 
ROOT
HETATM    1  C6  UNL     1      -8.478 -22.426  17.499  1.00  0.00     0.696 A 
HETATM    2  N2  UNL     1      -8.808 -21.181  17.378  1.00  0.00    -0.199 N 
ATOM      3  H2  UNL     1      -9.579 -20.839  17.952  1.00  0.00     0.180 HD
HETATM    4  C7  UNL     1      -8.172 -20.251  16.501  1.00  0.00     0.129 A 
HETATM    5  C8  UNL     1      -9.214 -19.649  15.555  1.00  0.00     0.064 C 
HETATM    6  C9  UNL     1      -7.594 -19.069  17.289  1.00  0.00     0.064 C 
HETATM    7  N3  UNL     1      -7.099 -20.814  15.747  1.00  0.00    -0.199 N 
ATOM      8  H3  UNL     1      -6.606 -20.185  15.113  1.00  0.00     0.180 HD
HETATM    9  C10 UNL     1      -6.686 -22.035  15.784  1.00  0.00     0.709 A 
HETATM   10  N7  UNL     1      -7.399 -22.898  16.701  1.00  0.00    -0.022 N 
ATOM     11  H7  UNL     1      -7.119 -23.876  16.778  1.00  0.00     0.203 HD
ENDROOT
BRANCH   1  12
HETATM   12  N1  UNL     1      -9.177 -23.271  18.404  1.00  0.00    -0.170 N 
ATOM     13  H1  UNL     1      -9.719 -22.861  19.164  1.00  0.00     0.186 HD
BRANCH  12  14
HETATM   14  C5  UNL     1      -9.131 -24.580  18.269  1.00  0.00     0.164 A 
HETATM   15  S1  UNL     1      -8.096 -25.700  19.025  1.00  0.00    -0.063 SA
HETATM   16  C4  UNL     1      -8.700 -27.125  18.303  1.00  0.00     0.078 A 
HETATM   17  C3  UNL     1      -9.695 -26.636  17.497  1.00  0.00     0.017 A 
HETATM   18  N8  UNL     1      -9.895 -25.351  17.493  1.00  0.00    -0.339 N 
ATOM     19  H8  UNL     1     -10.624 -24.940  16.909  1.00  0.00     0.168 HD
BRANCH  17  20
HETATM   20  C2  UNL     1     -10.507 -27.607  16.654  1.00  0.00     0.053 C 
HETATM   21  C1  UNL     1      -9.681 -28.241  15.584  1.00  0.00     0.011 C 
ENDBRANCH  17  20
ENDBRANCH  12  14
ENDBRANCH   1  12
BRANCH   9  22
HETATM   22  N4  UNL     1      -5.612 -22.537  15.011  1.00  0.00    -0.021 N 
ATOM     23  H4  UNL     1      -5.587 -23.548  14.875  1.00  0.00     0.203 HD
BRANCH  22  24
HETATM   24  C11 UNL     1      -4.582 -21.807  14.411  1.00  0.00     0.698 A 
HETATM   25  N5  UNL     1      -4.450 -21.637  13.061  1.00  0.00    -0.200 N 
HETATM   26  C12 UNL     1      -3.381 -20.900  12.783  1.00  0.00     0.124 A 
ATOM     27  H5  UNL     1      -5.085 -22.024  12.363  1.00  0.00     0.183 HD
HETATM   28  C13 UNL     1      -2.792 -20.575  13.980  1.00  0.00     0.126 A 
HETATM   29  N6  UNL     1      -3.572 -21.158  14.946  1.00  0.00    -0.196 N 
HETATM   30  C14 UNL     1      -3.254 -21.028  16.366  1.00  0.00     0.175 C 
ENDBRANCH  22  24
ENDBRANCH   9  22
TORSDOF 5
ENDMDL
MODEL 3
REMARK VINA RESULT: -6.909785808      2.709      4.883
REMARK  5 active torsions:
REMARK  status: ('A' for Active; 'I' for Inactive)
REMARK    1  A    between atoms: C2_2  and  C3_3 
REMARK    2  A    between atoms: C5_6  and  N1_7 
REMARK    3  A    between atoms: N1_7  and  C6_9 
REMARK    4  A    between atoms: C10_17  and  N4_18 
REMARK    5  A    between atoms: N4_18  and  C11_20 
ROOT
HETATM    1  C6  UNL     1      -8.240 -25.992  19.028  1.00  0.00     0.696 A 
HETATM    2  N2  UNL     1      -9.092 -26.131  18.064  1.00  0.00    -0.199 N 
ATOM      3  H2  UNL     1      -9.472 -27.062  17.900  1.00  0.00     0.180 HD
HETATM    4  C7  UNL     1      -9.540 -25.074  17.214  1.00  0.00     0.129 A 
HETATM    5  C8  UNL     1      -9.249 -25.436  15.756  1.00  0.00     0.064 C 
HETATM    6  C9  UNL     1     -11.062 -24.910  17.307  1.00  0.00     0.064 C 
HETATM    7  N3  UNL     1      -8.965 -23.804  17.524  1.00  0.00    -0.199 N 
ATOM      8  H3  UNL     1      -9.262 -23.016  16.950  1.00  0.00     0.180 HD
HETATM    9  C10 UNL     1      -8.109 -23.551  18.455  1.00  0.00     0.709 A 
HETATM   10  N7  UNL     1      -7.716 -24.689  19.257  1.00  0.00    -0.022 N 
ATOM     11  H7  UNL     1      -7.043 -24.552  20.011  1.00  0.00     0.203 HD
ENDROOT
BRANCH   1  12
HETATM   12  N1  UNL     1      -7.859 -27.111  19.818  1.00  0.00    -0.170 N 
ATOM     13  H1  UNL     1      -7.423 -26.963  20.729  1.00  0.00     0.186 HD
BRANCH  12  14
HETATM   14  C5  UNL     1      -8.063 -28.337  19.384  1.00  0.00     0.164 A 
HETATM   15  S1  UNL     1      -7.231 -29.199  18.175  1.00  0.00    -0.063 SA
HETATM   16  C4  UNL     1      -8.118 -30.657  18.253  1.00  0.00     0.078 A 
HETATM   17  C3  UNL     1      -9.030 -30.382  19.239  1.00  0.00     0.017 A 
HETATM   18  N8  UNL     1      -8.987 -29.208  19.795  1.00  0.00    -0.339 N 
ATOM     19  H8  UNL     1      -9.646 -28.957  20.532  1.00  0.00     0.168 HD
BRANCH  17  20
HETATM   20  C2  UNL     1     -10.039 -31.451  19.630  1.00  0.00     0.053 C 
HETATM   21  C1  UNL     1      -9.895 -31.856  21.059  1.00  0.00     0.011 C 
ENDBRANCH  17  20
ENDBRANCH  12  14
ENDBRANCH   1  12
BRANCH   9  22
HETATM   22  N4  UNL     1      -7.573 -22.267  18.716  1.00  0.00    -0.021 N 
ATOM     23  H4  UNL     1      -7.059 -22.161  19.591  1.00  0.00     0.203 HD
BRANCH  22  24
HETATM   24  C11 UNL     1      -7.667 -21.127  17.913  1.00  0.00     0.698 A 
HETATM   25  N5  UNL     1      -8.811 -20.396  17.752  1.00  0.00    -0.200 N 
HETATM   26  C12 UNL     1      -8.602 -19.372  16.933  1.00  0.00     0.124 A 
ATOM     27  H5  UNL     1      -9.703 -20.609  18.199  1.00  0.00     0.183 HD
HETATM   28  C13 UNL     1      -7.288 -19.427  16.544  1.00  0.00     0.126 A 
HETATM   29  N6  UNL     1      -6.761 -20.525  17.175  1.00  0.00    -0.196 N 
HETATM   30  C14 UNL     1      -5.363 -20.909  17.000  1.00  0.00     0.175 C 
ENDBRANCH  22  24
ENDBRANCH   9  22
TORSDOF 5
ENDMDL
MODEL 4
REMARK VINA RESULT: -6.826954028      1.021      1.698
REMARK  5 active torsions:
REMARK  status: ('A' for Active; 'I' for Inactive)
REMARK    1  A    between atoms: C2_2  and  C3_3 
REMARK    2  A    between atoms: C5_6  and  N1_7 
REMARK    3  A    between atoms: N1_7  and  C6_9 
REMARK    4  A    between atoms: C10_17  and  N4_18 
REMARK    5  A    between atoms: N4_18  and  C11_20 
ROOT
HETATM    1  C6  UNL     1      -8.475 -22.397  17.441  1.00  0.00     0.696 A 
HETATM    2  N2  UNL     1      -8.775 -21.144  17.322  1.00  0.00    -0.199 N 
ATOM      3  H2  UNL     1      -9.550 -20.788  17.882  1.00  0.00     0.180 HD
HETATM    4  C7  UNL     1      -8.101 -20.222  16.464  1.00  0.00     0.129 A 
HETATM    5  C8  UNL     1      -9.110 -19.591  15.501  1.00  0.00     0.064 C 
HETATM    6  C9  UNL     1      -7.513 -19.058  17.272  1.00  0.00     0.064 C 
HETATM    7  N3  UNL     1      -7.025 -20.804  15.729  1.00  0.00    -0.199 N 
ATOM      8  H3  UNL     1      -6.506 -20.181  15.109  1.00  0.00     0.180 HD
HETATM    9  C10 UNL     1      -6.640 -22.034  15.766  1.00  0.00     0.709 A 
HETATM   10  N7  UNL     1      -7.390 -22.886  16.662  1.00  0.00    -0.022 N 
ATOM     11  H7  UNL     1      -7.133 -23.871  16.737  1.00  0.00     0.203 HD
ENDROOT
BRANCH   1  12
HETATM   12  N1  UNL     1      -9.211 -23.232  18.326  1.00  0.00    -0.170 N 
ATOM     13  H1  UNL     1      -9.825 -22.813  19.024  1.00  0.00     0.186 HD
BRANCH  12  14
HETATM   14  C5  UNL     1      -9.106 -24.542  18.251  1.00  0.00     0.164 A 
HETATM   15  S1  UNL     1      -9.916 -25.625  17.217  1.00  0.00    -0.063 SA
HETATM   16  C4  UNL     1      -9.210 -27.077  17.775  1.00  0.00     0.078 A 
HETATM   17  C3  UNL     1      -8.366 -26.624  18.754  1.00  0.00     0.017 A 
HETATM   18  N8  UNL     1      -8.328 -25.344  18.980  1.00  0.00    -0.339 N 
ATOM     19  H8  UNL     1      -7.716 -24.961  19.700  1.00  0.00     0.168 HD
BRANCH  17  20
HETATM   20  C2  UNL     1      -7.522 -27.629  19.524  1.00  0.00     0.053 C 
HETATM   21  C1  UNL     1      -7.535 -27.359  20.992  1.00  0.00     0.011 C 
ENDBRANCH  17  20
ENDBRANCH  12  14
ENDBRANCH   1  12
BRANCH   9  22
HETATM   22  N4  UNL     1      -5.562 -22.555  15.011  1.00  0.00    -0.021 N 
ATOM     23  H4  UNL     1      -5.569 -23.562  14.847  1.00  0.00     0.203 HD
BRANCH  22  24
HETATM   24  C11 UNL     1      -4.487 -21.847  14.465  1.00  0.00     0.698 A 
HETATM   25  N5  UNL     1      -3.245 -21.782  15.033  1.00  0.00    -0.200 N 
HETATM   26  C12 UNL     1      -2.429 -21.040  14.293  1.00  0.00     0.124 A 
ATOM     27  H5  UNL     1      -2.982 -22.239  15.905  1.00  0.00     0.183 HD
HETATM   28  C13 UNL     1      -3.149 -20.605  13.209  1.00  0.00     0.126 A 
HETATM   29  N6  UNL     1      -4.407 -21.130  13.366  1.00  0.00    -0.196 N 
HETATM   30  C14 UNL     1      -5.466 -20.880  12.392  1.00  0.00     0.175 C 
ENDBRANCH  22  24
ENDBRANCH   9  22
TORSDOF 5
ENDMDL
MODEL 5
REMARK VINA RESULT: -6.768461711      1.015      1.623
REMARK  5 active torsions:
REMARK  status: ('A' for Active; 'I' for Inactive)
REMARK    1  A    between atoms: C2_2  and  C3_3 
REMARK    2  A    between atoms: C5_6  and  N1_7 
REMARK    3  A    between atoms: N1_7  and  C6_9 
REMARK    4  A    between atoms: C10_17  and  N4_18 
REMARK    5  A    between atoms: N4_18  and  C11_20 
ROOT
HETATM    1  C6  UNL     1      -8.033 -22.028  17.665  1.00  0.00     0.696 A 
HETATM    2  N2  UNL     1      -8.505 -20.824  17.695  1.00  0.00    -0.199 N 
ATOM      3  H2  UNL     1      -9.024 -20.541  18.525  1.00  0.00     0.180 HD
HETATM    4  C7  UNL     1      -8.351 -19.862  16.650  1.00  0.00     0.129 A 
HETATM    5  C8  UNL     1      -9.731 -19.388  16.188  1.00  0.00     0.064 C 
HETATM    6  C9  UNL     1      -7.632 -18.609  17.167  1.00  0.00     0.064 C 
HETATM    7  N3  UNL     1      -7.602 -20.341  15.534  1.00  0.00    -0.199 N 
ATOM      8  H3  UNL     1      -7.456 -19.686  14.766  1.00  0.00     0.180 HD
HETATM    9  C10 UNL     1      -7.089 -21.516  15.395  1.00  0.00     0.709 A 
HETATM   10  N7  UNL     1      -7.305 -22.417  16.505  1.00  0.00    -0.022 N 
ATOM     11  H7  UNL     1      -6.922 -23.361  16.457  1.00  0.00     0.203 HD
ENDROOT
BRANCH   1  12
HETATM   12  N1  UNL     1      -8.242 -22.911  18.760  1.00  0.00    -0.170 N 
ATOM     13  H1  UNL     1      -8.222 -22.548  19.713  1.00  0.00     0.186 HD
BRANCH  12  14
HETATM   14  C5  UNL     1      -8.462 -24.192  18.553  1.00  0.00     0.164 A 
HETATM   15  S1  UNL     1      -7.637 -25.538  19.191  1.00  0.00    -0.063 SA
HETATM   16  C4  UNL     1      -8.543 -26.770  18.430  1.00  0.00     0.078 A 
HETATM   17  C3  UNL     1      -9.456 -26.046  17.708  1.00  0.00     0.017 A 
HETATM   18  N8  UNL     1      -9.398 -24.749  17.783  1.00  0.00    -0.339 N 
ATOM     19  H8  UNL     1     -10.056 -24.168  17.263  1.00  0.00     0.168 HD
BRANCH  17  20
HETATM   20  C2  UNL     1     -10.482 -26.785  16.862  1.00  0.00     0.053 C 
HETATM   21  C1  UNL     1      -9.836 -27.604  15.793  1.00  0.00     0.011 C 
ENDBRANCH  17  20
ENDBRANCH  12  14
ENDBRANCH   1  12
BRANCH   9  22
HETATM   22  N4  UNL     1      -6.353 -21.935  14.261  1.00  0.00    -0.021 N 
ATOM     23  H4  UNL     1      -6.265 -22.943  14.125  1.00  0.00     0.203 HD
BRANCH  22  24
HETATM   24  C11 UNL     1      -5.732 -21.127  13.304  1.00  0.00     0.698 A 
HETATM   25  N5  UNL     1      -6.230 -20.903  12.051  1.00  0.00    -0.200 N 
HETATM   26  C12 UNL     1      -5.429 -20.097  11.364  1.00  0.00     0.124 A 
ATOM     27  H5  UNL     1      -7.097 -21.302  11.692  1.00  0.00     0.183 HD
HETATM   28  C13 UNL     1      -4.375 -19.780  12.184  1.00  0.00     0.126 A 
HETATM   29  N6  UNL     1      -4.613 -20.440  13.363  1.00  0.00    -0.196 N 
HETATM   30  C14 UNL     1      -3.692 -20.340  14.493  1.00  0.00     0.175 C 
ENDBRANCH  22  24
ENDBRANCH   9  22
TORSDOF 5
ENDMDL
