MODEL 1
REMARK VINA RESULT: -7.187770800      0.000      0.000
REMARK  8 active torsions:
REMARK  status: ('A' for Active; 'I' for Inactive)
REMARK    1  A    between atoms: N1_2  and  C2_3 
REMARK    2  A    between atoms: C2_3  and  C3_4 
REMARK    3  A    between atoms: C3_4  and  C4_5 
REMARK    4  A    between atoms: C3_4  and  C17_23 
REMARK    5  A    between atoms: C4_5  and  C5_6 
REMARK    6  A    between atoms: C5_6  and  C6_7 
REMARK    7  A    between atoms: N2_12  and  C10_13 
REMARK    8  A    between atoms: C13_16  and  C14_17 
REMARK       I    between atoms: N3_28  and  C22_29 
ROOT
HETATM    1  C4  UNL     1       4.477   5.418  21.825  1.00  0.00     0.009 C 
ENDROOT
BRANCH   1   2
HETATM    2  C3  UNL     1       5.223   6.616  22.398  1.00  0.00     0.016 C 
BRANCH   2   3
HETATM    3  C2  UNL     1       6.055   7.307  21.401  1.00  0.00     0.244 C 
BRANCH   3   4
HETATM    4  N1  UNL     1       7.301   7.869  21.778  1.00  0.00    -0.053 N 
HETATM    5  C1  UNL     1       8.358   7.831  20.826  1.00  0.00     0.274 C 
HETATM    6  C20 UNL     1       7.110   9.309  22.120  1.00  0.00     0.259 C 
HETATM    7  C21 UNL     1       8.204   9.627  23.081  1.00  0.00     0.155 C 
HETATM    8  N3  UNL     1       8.444   8.385  23.740  1.00  0.00    -0.330 N 
HETATM    9  C22 UNL     1       9.200   8.219  24.919  1.00  0.00     0.185 C 
HETATM   10  C23 UNL     1       7.800   7.300  23.025  1.00  0.00     0.364 C 
HETATM   11  N4  UNL     1       8.659   7.751  25.976  1.00  0.00    -0.374 N 
HETATM   12  N5  UNL     1      10.569   8.578  24.917  1.00  0.00    -0.064 NA
ATOM     13  H42 UNL     1       7.673   7.493  25.978  1.00  0.00     0.158 HD
ATOM     14  H41 UNL     1       9.205   7.632  26.829  1.00  0.00     0.158 HD
ENDBRANCH   3   4
ENDBRANCH   2   3
BRANCH   2  15
HETATM   15  C17 UNL     1       4.156   7.544  22.937  1.00  0.00    -0.009 A 
HETATM   16  C18 UNL     1       3.299   7.131  24.080  1.00  0.00     0.005 A 
HETATM   17  C19 UNL     1       4.360   8.119  24.343  1.00  0.00     0.005 A 
ENDBRANCH   2  15
ENDBRANCH   1   2
BRANCH   1  18
HETATM   18  C5  UNL     1       4.589   4.194  22.666  1.00  0.00     0.032 C 
BRANCH  18  19
HETATM   19  C6  UNL     1       4.928   2.959  21.912  1.00  0.00     0.122 C 
HETATM   20  C7  UNL     1       6.216   3.096  21.087  1.00  0.00     0.048 C 
HETATM   21  C8  UNL     1       6.157   1.732  20.428  1.00  0.00     0.109 C 
HETATM   22  C9  UNL     1       7.008   1.551  19.276  1.00  0.00     0.227 C 
HETATM   23  C16 UNL     1       4.688   1.560  20.264  1.00  0.00     0.137 C 
HETATM   24  O1  UNL     1       8.243   1.514  19.436  1.00  0.00    -0.273 OA
HETATM   25  N2  UNL     1       6.403   1.418  17.961  1.00  0.00    -0.332 N 
HETATM   26  C13 UNL     1       5.164   2.138  17.875  1.00  0.00     0.191 C 
HETATM   27  C15 UNL     1       4.199   1.506  18.854  1.00  0.00     0.069 C 
HETATM   28  O4  UNL     1       4.037   2.590  20.944  1.00  0.00    -0.380 OA
BRANCH  25  29
HETATM   29  C10 UNL     1       7.031   0.623  16.947  1.00  0.00     0.088 A 
HETATM   30  C11 UNL     1       6.448  -0.745  16.593  1.00  0.00     0.027 A 
HETATM   31  C12 UNL     1       7.726  -0.704  17.330  1.00  0.00     0.027 A 
ENDBRANCH  25  29
BRANCH  26  32
HETATM   32  C14 UNL     1       4.526   2.311  16.575  1.00  0.00     0.197 C 
HETATM   33  O2  UNL     1       4.840   3.340  15.842  1.00  0.00    -0.646 OA
HETATM   34  O3  UNL     1       3.598   1.496  15.995  1.00  0.00    -0.646 OA
ENDBRANCH  26  32
ENDBRANCH  18  19
ENDBRANCH   1  18
TORSDOF 8
ENDMDL
MODEL 2
REMARK VINA RESULT: -7.121714047      4.231      7.949
REMARK  8 active torsions:
REMARK  status: ('A' for Active; 'I' for Inactive)
REMARK    1  A    between atoms: N1_2  and  C2_3 
REMARK    2  A    between atoms: C2_3  and  C3_4 
REMARK    3  A    between atoms: C3_4  and  C4_5 
REMARK    4  A    between atoms: C3_4  and  C17_23 
REMARK    5  A    between atoms: C4_5  and  C5_6 
REMARK    6  A    between atoms: C5_6  and  C6_7 
REMARK    7  A    between atoms: N2_12  and  C10_13 
REMARK    8  A    between atoms: C13_16  and  C14_17 
REMARK       I    between atoms: N3_28  and  C22_29 
ROOT
HETATM    1  C4  UNL     1       2.080   4.848  21.265  1.00  0.00     0.009 C 
ENDROOT
BRANCH   1   2
HETATM    2  C3  UNL     1       1.772   4.368  22.678  1.00  0.00     0.016 C 
BRANCH   2   3
HETATM    3  C2  UNL     1       0.391   4.652  23.096  1.00  0.00     0.244 C 
BRANCH   3   4
HETATM    4  N1  UNL     1       0.133   5.630  24.089  1.00  0.00    -0.053 N 
HETATM    5  C1  UNL     1      -0.942   5.391  24.990  1.00  0.00     0.274 C 
HETATM    6  C20 UNL     1       1.348   5.802  24.939  1.00  0.00     0.259 C 
HETATM    7  C21 UNL     1       1.262   7.195  25.461  1.00  0.00     0.155 C 
HETATM    8  N3  UNL     1       0.554   7.894  24.439  1.00  0.00    -0.330 N 
HETATM    9  C22 UNL     1       0.448   9.296  24.332  1.00  0.00     0.185 C 
HETATM   10  C23 UNL     1      -0.052   6.957  23.512  1.00  0.00     0.364 C 
HETATM   11  N4  UNL     1       0.906   9.905  23.309  1.00  0.00    -0.374 N 
HETATM   12  N5  UNL     1      -0.176  10.022  25.375  1.00  0.00    -0.064 NA
ATOM     13  H42 UNL     1       1.355   9.383  22.557  1.00  0.00     0.158 HD
ATOM     14  H41 UNL     1       0.829  10.919  23.231  1.00  0.00     0.158 HD
ENDBRANCH   3   4
ENDBRANCH   2   3
BRANCH   2  15
HETATM   15  C17 UNL     1       2.030   2.876  22.669  1.00  0.00    -0.009 A 
HETATM   16  C18 UNL     1       3.416   2.348  22.564  1.00  0.00     0.005 A 
HETATM   17  C19 UNL     1       2.754   2.275  23.879  1.00  0.00     0.005 A 
ENDBRANCH   2  15
ENDBRANCH   1   2
BRANCH   1  18
HETATM   18  C5  UNL     1       2.747   6.178  21.225  1.00  0.00     0.032 C 
BRANCH  18  19
HETATM   19  C6  UNL     1       4.013   6.255  22.001  1.00  0.00     0.122 C 
HETATM   20  C7  UNL     1       4.181   7.590  22.741  1.00  0.00     0.048 C 
HETATM   21  C8  UNL     1       5.565   7.317  23.298  1.00  0.00     0.109 C 
HETATM   22  C9  UNL     1       6.283   8.468  23.789  1.00  0.00     0.227 C 
HETATM   23  C16 UNL     1       6.162   6.522  22.191  1.00  0.00     0.137 C 
HETATM   24  O1  UNL     1       5.886   9.033  24.827  1.00  0.00    -0.273 OA
HETATM   25  N2  UNL     1       7.452   8.940  23.063  1.00  0.00    -0.332 N 
HETATM   26  C13 UNL     1       7.345   8.663  21.659  1.00  0.00     0.191 C 
HETATM   27  C15 UNL     1       7.316   7.160  21.489  1.00  0.00     0.069 C 
HETATM   28  O4  UNL     1       5.163   6.218  21.265  1.00  0.00    -0.380 OA
BRANCH  25  29
HETATM   29  C10 UNL     1       8.537   9.569  23.757  1.00  0.00     0.088 A 
HETATM   30  C11 UNL     1       9.960   9.048  23.562  1.00  0.00     0.027 A 
HETATM   31  C12 UNL     1       9.299   8.794  24.856  1.00  0.00     0.027 A 
ENDBRANCH  25  29
BRANCH  26  32
HETATM   32  C14 UNL     1       8.309   9.257  20.738  1.00  0.00     0.197 C 
HETATM   33  O2  UNL     1       9.028   8.480  19.980  1.00  0.00    -0.646 OA
HETATM   34  O3  UNL     1       8.568  10.584  20.555  1.00  0.00    -0.646 OA
ENDBRANCH  26  32
ENDBRANCH  18  19
ENDBRANCH   1  18
TORSDOF 8
ENDMDL
MODEL 3
REMARK VINA RESULT: -7.091655572      1.503      2.339
REMARK  8 active torsions:
REMARK  status: ('A' for Active; 'I' for Inactive)
REMARK    1  A    between atoms: N1_2  and  C2_3 
REMARK    2  A    between atoms: C2_3  and  C3_4 
REMARK    3  A    between atoms: C3_4  and  C4_5 
REMARK    4  A    between atoms: C3_4  and  C17_23 
REMARK    5  A    between atoms: C4_5  and  C5_6 
REMARK    6  A    between atoms: C5_6  and  C6_7 
REMARK    7  A    between atoms: N2_12  and  C10_13 
REMARK    8  A    between atoms: C13_16  and  C14_17 
REMARK       I    between atoms: N3_28  and  C22_29 
ROOT
HETATM    1  C4  UNL     1       2.947   5.898  22.586  1.00  0.00     0.009 C 
ENDROOT
BRANCH   1   2
HETATM    2  C3  UNL     1       3.338   7.100  23.436  1.00  0.00     0.016 C 
BRANCH   2   3
HETATM    3  C2  UNL     1       4.427   7.893  22.847  1.00  0.00     0.244 C 
BRANCH   3   4
HETATM    4  N1  UNL     1       5.519   8.312  23.648  1.00  0.00    -0.053 N 
HETATM    5  C1  UNL     1       5.233   9.098  24.799  1.00  0.00     0.274 C 
HETATM    6  C20 UNL     1       6.255   7.111  24.145  1.00  0.00     0.259 C 
HETATM    7  C21 UNL     1       7.651   7.579  24.373  1.00  0.00     0.155 C 
HETATM    8  N3  UNL     1       7.816   8.624  23.416  1.00  0.00    -0.330 N 
HETATM    9  C22 UNL     1       9.046   9.208  23.048  1.00  0.00     0.185 C 
HETATM   10  C23 UNL     1       6.531   9.013  22.866  1.00  0.00     0.364 C 
HETATM   11  N4  UNL     1       9.462   9.138  21.844  1.00  0.00    -0.374 N 
HETATM   12  N5  UNL     1       9.814   9.874  24.032  1.00  0.00    -0.064 NA
ATOM     13  H42 UNL     1       8.908   8.658  21.135  1.00  0.00     0.158 HD
ATOM     14  H41 UNL     1      10.352   9.560  21.578  1.00  0.00     0.158 HD
ENDBRANCH   3   4
ENDBRANCH   2   3
BRANCH   2  15
HETATM   15  C17 UNL     1       2.082   7.935  23.569  1.00  0.00    -0.009 A 
HETATM   16  C18 UNL     1       0.855   7.365  24.184  1.00  0.00     0.005 A 
HETATM   17  C19 UNL     1       1.636   8.325  24.982  1.00  0.00     0.005 A 
ENDBRANCH   2  15
ENDBRANCH   1   2
BRANCH   1  18
HETATM   18  C5  UNL     1       2.936   4.616  23.343  1.00  0.00     0.032 C 
BRANCH  18  19
HETATM   19  C6  UNL     1       3.920   3.610  22.861  1.00  0.00     0.122 C 
HETATM   20  C7  UNL     1       4.929   4.191  21.860  1.00  0.00     0.048 C 
HETATM   21  C8  UNL     1       5.651   2.893  21.555  1.00  0.00     0.109 C 
HETATM   22  C9  UNL     1       6.478   2.896  20.372  1.00  0.00     0.227 C 
HETATM   23  C16 UNL     1       4.528   1.919  21.638  1.00  0.00     0.137 C 
HETATM   24  O1  UNL     1       7.523   3.576  20.366  1.00  0.00    -0.273 OA
HETATM   25  N2  UNL     1       6.074   2.107  19.220  1.00  0.00    -0.332 N 
HETATM   26  C13 UNL     1       4.646   1.989  19.138  1.00  0.00     0.191 C 
HETATM   27  C15 UNL     1       4.178   1.229  20.360  1.00  0.00     0.069 C 
HETATM   28  O4  UNL     1       3.402   2.573  22.139  1.00  0.00    -0.380 OA
BRANCH  25  29
HETATM   29  C10 UNL     1       7.056   1.537  18.346  1.00  0.00     0.088 A 
HETATM   30  C11 UNL     1       7.025   0.037  18.053  1.00  0.00     0.027 A 
HETATM   31  C12 UNL     1       8.110   0.555  18.909  1.00  0.00     0.027 A 
ENDBRANCH  25  29
BRANCH  26  32
HETATM   32  C14 UNL     1       4.043   1.429  17.933  1.00  0.00     0.197 C 
HETATM   33  O2  UNL     1       3.480   0.256  17.988  1.00  0.00    -0.646 OA
HETATM   34  O3  UNL     1       3.985   2.000  16.696  1.00  0.00    -0.646 OA
ENDBRANCH  26  32
ENDBRANCH  18  19
ENDBRANCH   1  18
TORSDOF 8
ENDMDL
MODEL 4
REMARK VINA RESULT: -7.062835497      3.459      7.940
REMARK  8 active torsions:
REMARK  status: ('A' for Active; 'I' for Inactive)
REMARK    1  A    between atoms: N1_2  and  C2_3 
REMARK    2  A    between atoms: C2_3  and  C3_4 
REMARK    3  A    between atoms: C3_4  and  C4_5 
REMARK    4  A    between atoms: C3_4  and  C17_23 
REMARK    5  A    between atoms: C4_5  and  C5_6 
REMARK    6  A    between atoms: C5_6  and  C6_7 
REMARK    7  A    between atoms: N2_12  and  C10_13 
REMARK    8  A    between atoms: C13_16  and  C14_17 
REMARK       I    between atoms: N3_28  and  C22_29 
ROOT
HETATM    1  C4  UNL     1       4.733   2.503  17.992  1.00  0.00     0.009 C 
ENDROOT
BRANCH   1   2
HETATM    2  C3  UNL     1       4.957   1.706  19.271  1.00  0.00     0.016 C 
BRANCH   2   3
HETATM    3  C2  UNL     1       3.740   1.034  19.752  1.00  0.00     0.244 C 
BRANCH   3   4
HETATM    4  N1  UNL     1       3.261   1.280  21.064  1.00  0.00    -0.053 N 
HETATM    5  C1  UNL     1       2.717   0.180  21.785  1.00  0.00     0.274 C 
HETATM    6  C20 UNL     1       4.375   1.810  21.904  1.00  0.00     0.259 C 
HETATM    7  C21 UNL     1       3.710   2.624  22.960  1.00  0.00     0.155 C 
HETATM    8  N3  UNL     1       2.521   3.092  22.325  1.00  0.00    -0.330 N 
HETATM    9  C22 UNL     1       1.683   4.116  22.814  1.00  0.00     0.185 C 
HETATM   10  C23 UNL     1       2.285   2.363  21.094  1.00  0.00     0.364 C 
HETATM   11  N4  UNL     1       1.499   5.181  22.137  1.00  0.00    -0.374 N 
HETATM   12  N5  UNL     1       1.047   3.947  24.066  1.00  0.00    -0.064 NA
ATOM     13  H42 UNL     1       1.957   5.303  21.234  1.00  0.00     0.158 HD
ATOM     14  H41 UNL     1       0.893   5.922  22.490  1.00  0.00     0.158 HD
ENDBRANCH   3   4
ENDBRANCH   2   3
BRANCH   2  15
HETATM   15  C17 UNL     1       6.030   0.691  18.939  1.00  0.00    -0.009 A 
HETATM   16  C18 UNL     1       7.076   0.997  17.928  1.00  0.00     0.005 A 
HETATM   17  C19 UNL     1       7.469   1.022  19.347  1.00  0.00     0.005 A 
ENDBRANCH   2  15
ENDBRANCH   1   2
BRANCH   1  18
HETATM   18  C5  UNL     1       4.793   3.976  18.195  1.00  0.00     0.032 C 
BRANCH  18  19
HETATM   19  C6  UNL     1       5.062   4.394  19.597  1.00  0.00     0.122 C 
HETATM   20  C7  UNL     1       4.315   5.676  19.993  1.00  0.00     0.048 C 
HETATM   21  C8  UNL     1       4.905   5.808  21.383  1.00  0.00     0.109 C 
HETATM   22  C9  UNL     1       4.744   7.096  22.015  1.00  0.00     0.227 C 
HETATM   23  C16 UNL     1       6.282   5.291  21.156  1.00  0.00     0.137 C 
HETATM   24  O1  UNL     1       3.607   7.457  22.372  1.00  0.00    -0.273 OA
HETATM   25  N2  UNL     1       5.913   7.938  22.219  1.00  0.00    -0.332 N 
HETATM   26  C13 UNL     1       6.905   7.716  21.206  1.00  0.00     0.191 C 
HETATM   27  C15 UNL     1       7.382   6.286  21.338  1.00  0.00     0.069 C 
HETATM   28  O4  UNL     1       6.352   4.747  19.873  1.00  0.00    -0.380 OA
BRANCH  25  29
HETATM   29  C10 UNL     1       5.982   8.830  23.339  1.00  0.00     0.088 A 
HETATM   30  C11 UNL     1       6.884   8.485  24.524  1.00  0.00     0.027 A 
HETATM   31  C12 UNL     1       5.424   8.386  24.711  1.00  0.00     0.027 A 
ENDBRANCH  25  29
BRANCH  26  32
HETATM   32  C14 UNL     1       8.044   8.622  21.111  1.00  0.00     0.197 C 
HETATM   33  O2  UNL     1       9.039   8.485  21.940  1.00  0.00    -0.646 OA
HETATM   34  O3  UNL     1       8.217   9.642  20.223  1.00  0.00    -0.646 OA
ENDBRANCH  26  32
ENDBRANCH  18  19
ENDBRANCH   1  18
TORSDOF 8
ENDMDL
MODEL 5
REMARK VINA RESULT: -6.980387813      4.791      8.104
REMARK  8 active torsions:
REMARK  status: ('A' for Active; 'I' for Inactive)
REMARK    1  A    between atoms: N1_2  and  C2_3 
REMARK    2  A    between atoms: C2_3  and  C3_4 
REMARK    3  A    between atoms: C3_4  and  C4_5 
REMARK    4  A    between atoms: C3_4  and  C17_23 
REMARK    5  A    between atoms: C4_5  and  C5_6 
REMARK    6  A    between atoms: C5_6  and  C6_7 
REMARK    7  A    between atoms: N2_12  and  C10_13 
REMARK    8  A    between atoms: C13_16  and  C14_17 
REMARK       I    between atoms: N3_28  and  C22_29 
ROOT
HETATM    1  C4  UNL     1       7.490   7.864  24.948  1.00  0.00     0.009 C 
ENDROOT
BRANCH   1   2
HETATM    2  C3  UNL     1       8.592   8.278  23.982  1.00  0.00     0.016 C 
BRANCH   2   3
HETATM    3  C2  UNL     1       8.097   9.078  22.851  1.00  0.00     0.244 C 
BRANCH   3   4
HETATM    4  N1  UNL     1       7.784   8.453  21.617  1.00  0.00    -0.053 N 
HETATM    5  C1  UNL     1       8.786   8.446  20.607  1.00  0.00     0.274 C 
HETATM    6  C20 UNL     1       7.440   7.022  21.863  1.00  0.00     0.259 C 
HETATM    7  C21 UNL     1       6.535   6.643  20.742  1.00  0.00     0.155 C 
HETATM    8  N3  UNL     1       5.882   7.867  20.408  1.00  0.00    -0.330 N 
HETATM    9  C22 UNL     1       4.740   7.987  19.589  1.00  0.00     0.185 C 
HETATM   10  C23 UNL     1       6.560   8.987  21.031  1.00  0.00     0.364 C 
HETATM   11  N4  UNL     1       3.657   8.473  20.055  1.00  0.00    -0.374 N 
HETATM   12  N5  UNL     1       4.811   7.561  18.242  1.00  0.00    -0.064 NA
ATOM     13  H42 UNL     1       3.605   8.780  21.026  1.00  0.00     0.158 HD
ATOM     14  H41 UNL     1       2.830   8.559  19.463  1.00  0.00     0.158 HD
ENDBRANCH   3   4
ENDBRANCH   2   3
BRANCH   2  15
HETATM   15  C17 UNL     1       9.583   9.073  24.804  1.00  0.00    -0.009 A 
HETATM   16  C18 UNL     1      10.303   8.442  25.941  1.00  0.00     0.005 A 
HETATM   17  C19 UNL     1      11.062   8.686  24.702  1.00  0.00     0.005 A 
ENDBRANCH   2  15
ENDBRANCH   1   2
BRANCH   1  18
HETATM   18  C5  UNL     1       6.270   8.711  24.851  1.00  0.00     0.032 C 
BRANCH  18  19
HETATM   19  C6  UNL     1       4.991   7.952  24.878  1.00  0.00     0.122 C 
HETATM   20  C7  UNL     1       4.304   7.889  23.506  1.00  0.00     0.048 C 
HETATM   21  C8  UNL     1       3.057   7.157  23.959  1.00  0.00     0.109 C 
HETATM   22  C9  UNL     1       1.942   7.185  23.043  1.00  0.00     0.227 C 
HETATM   23  C16 UNL     1       2.875   7.725  25.323  1.00  0.00     0.137 C 
HETATM   24  O1  UNL     1       2.023   6.556  21.971  1.00  0.00    -0.273 OA
HETATM   25  N2  UNL     1       0.753   7.946  23.394  1.00  0.00    -0.332 N 
HETATM   26  C13 UNL     1       1.076   9.073  24.222  1.00  0.00     0.191 C 
HETATM   27  C15 UNL     1       1.640   8.541  25.521  1.00  0.00     0.069 C 
HETATM   28  O4  UNL     1       3.997   8.491  25.643  1.00  0.00    -0.380 OA
BRANCH  25  29
HETATM   29  C10 UNL     1      -0.540   7.527  22.942  1.00  0.00     0.088 A 
HETATM   30  C11 UNL     1      -1.648   7.264  23.962  1.00  0.00     0.027 A 
HETATM   31  C12 UNL     1      -1.048   6.105  23.275  1.00  0.00     0.027 A 
ENDBRANCH  25  29
BRANCH  26  32
HETATM   32  C14 UNL     1       0.053  10.079  24.489  1.00  0.00     0.197 C 
HETATM   33  O2  UNL     1      -0.165  11.015  23.609  1.00  0.00    -0.646 OA
HETATM   34  O3  UNL     1      -0.746  10.174  25.590  1.00  0.00    -0.646 OA
ENDBRANCH  26  32
ENDBRANCH  18  19
ENDBRANCH   1  18
TORSDOF 8
ENDMDL
