MODEL 1
REMARK VINA RESULT: -7.186311466      0.000      0.000
REMARK  9 active torsions:
REMARK  status: ('A' for Active; 'I' for Inactive)
REMARK    1  A    between atoms: N3_15  and  C11_16 
REMARK    2  A    between atoms: C11_16  and  C12_17 
REMARK    3  A    between atoms: C12_17  and  C13_18 
REMARK    4  A    between atoms: C19_28  and  C20_29 
REMARK    5  A    between atoms: C20_29  and  C21_30 
REMARK    6  A    between atoms: C21_30  and  C22_31 
REMARK    7  A    between atoms: C22_31  and  C23_32 
REMARK    8  A    between atoms: C23_32  and  C24_33 
REMARK    9  A    between atoms: C24_33  and  N5_34 
ROOT
HETATM    1  C1  UNL     1       2.740   3.489  21.914  1.00  0.00     0.153 C 
HETATM    2  N1  UNL     1       4.071   4.046  21.771  1.00  0.00    -0.341 N 
HETATM    3  C2  UNL     1       4.321   5.122  22.700  1.00  0.00     0.245 C 
HETATM    4  O1  UNL     1       3.586   5.087  23.693  1.00  0.00    -0.271 OA
HETATM    5  C3  UNL     1       5.293   6.173  22.583  1.00  0.00     0.201 C 
HETATM    6  C4  UNL     1       5.568   6.757  21.220  1.00  0.00     0.119 C 
HETATM    7  C5  UNL     1       7.070   6.916  21.165  1.00  0.00     0.028 C 
HETATM    8  C6  UNL     1       7.466   8.242  21.788  1.00  0.00     0.002 C 
HETATM    9  C7  UNL     1       8.146   8.139  23.100  1.00  0.00     0.009 C 
HETATM   10  C8  UNL     1       7.330   8.386  24.318  1.00  0.00     0.103 C 
HETATM   11  C9  UNL     1       5.866   8.227  24.135  1.00  0.00     0.220 C 
HETATM   12  O2  UNL     1       5.198   9.112  24.723  1.00  0.00    -0.273 OA
HETATM   13  N2  UNL     1       5.009   7.290  23.436  1.00  0.00    -0.341 N 
HETATM   14  C10 UNL     1       3.630   7.609  23.659  1.00  0.00     0.153 C 
HETATM   15  N3  UNL     1       5.030   6.125  20.096  1.00  0.00    -0.343 N 
HETATM   16  C18 UNL     1       5.028   4.716  19.748  1.00  0.00     0.243 C 
HETATM   17  O3  UNL     1       5.080   4.408  18.540  1.00  0.00    -0.271 OA
HETATM   18  C19 UNL     1       4.967   3.602  20.768  1.00  0.00     0.179 C 
ENDROOT
BRANCH  15  19
HETATM   19  C11 UNL     1       4.283   6.918  19.162  1.00  0.00     0.127 C 
BRANCH  19  20
HETATM   20  C12 UNL     1       4.208   8.362  19.321  1.00  0.00     0.024 C 
BRANCH  20  21
HETATM   21  C13 UNL     1       4.472   9.315  18.238  1.00  0.00    -0.010 C 
HETATM   22  C14 UNL     1       5.675  10.183  18.722  1.00  0.00     0.032 C 
HETATM   23  C15 UNL     1       6.916   9.448  18.290  1.00  0.00     0.232 C 
HETATM   24  N4  UNL     1       7.129   9.723  16.881  1.00  0.00    -0.075 N 
HETATM   25  C16 UNL     1       5.838   9.669  16.227  1.00  0.00     0.232 C 
ATOM     26  H42 UNL     1       7.620  10.602  16.717  1.00  0.00     0.277 HD
ATOM     27  H41 UNL     1       7.816   9.104  16.454  1.00  0.00     0.277 HD
HETATM   28  C17 UNL     1       4.930   8.677  16.948  1.00  0.00     0.032 C 
ENDBRANCH  20  21
ENDBRANCH  19  20
ENDBRANCH  15  19
BRANCH  18  29
HETATM   29  C20 UNL     1       6.286   3.069  21.082  1.00  0.00     0.035 C 
BRANCH  29  30
HETATM   30  C21 UNL     1       6.619   1.637  20.867  1.00  0.00     0.002 C 
BRANCH  30  31
HETATM   31  C22 UNL     1       6.872   1.274  19.458  1.00  0.00     0.002 C 
BRANCH  31  32
HETATM   32  C23 UNL     1       8.355   0.974  19.203  1.00  0.00     0.027 C 
BRANCH  32  33
HETATM   33  C24 UNL     1       8.365   0.039  18.005  1.00  0.00     0.229 C 
BRANCH  33  34
HETATM   34  N5  UNL     1       9.701  -0.319  17.598  1.00  0.00    -0.079 N 
ATOM     35  H53 UNL     1      10.002   0.234  16.794  1.00  0.00     0.274 HD
ATOM     36  H52 UNL     1      10.391  -0.003  18.280  1.00  0.00     0.274 HD
ATOM     37  H51 UNL     1       9.798  -1.317  17.412  1.00  0.00     0.274 HD
ENDBRANCH  33  34
ENDBRANCH  32  33
ENDBRANCH  31  32
ENDBRANCH  30  31
ENDBRANCH  29  30
ENDBRANCH  18  29
TORSDOF 9
ENDMDL
MODEL 2
REMARK VINA RESULT: -6.952570832      3.129      5.435
REMARK  9 active torsions:
REMARK  status: ('A' for Active; 'I' for Inactive)
REMARK    1  A    between atoms: N3_15  and  C11_16 
REMARK    2  A    between atoms: C11_16  and  C12_17 
REMARK    3  A    between atoms: C12_17  and  C13_18 
REMARK    4  A    between atoms: C19_28  and  C20_29 
REMARK    5  A    between atoms: C20_29  and  C21_30 
REMARK    6  A    between atoms: C21_30  and  C22_31 
REMARK    7  A    between atoms: C22_31  and  C23_32 
REMARK    8  A    between atoms: C23_32  and  C24_33 
REMARK    9  A    between atoms: C24_33  and  N5_34 
ROOT
HETATM    1  C1  UNL     1       5.063   3.194  17.114  1.00  0.00     0.153 C 
HETATM    2  N1  UNL     1       5.124   2.772  18.500  1.00  0.00    -0.341 N 
HETATM    3  C2  UNL     1       3.821   2.462  19.040  1.00  0.00     0.245 C 
HETATM    4  O1  UNL     1       2.988   2.187  18.170  1.00  0.00    -0.271 OA
HETATM    5  C3  UNL     1       3.427   2.446  20.421  1.00  0.00     0.201 C 
HETATM    6  C4  UNL     1       4.003   3.483  21.352  1.00  0.00     0.119 C 
HETATM    7  C5  UNL     1       4.328   2.725  22.618  1.00  0.00     0.028 C 
HETATM    8  C6  UNL     1       3.095   2.653  23.501  1.00  0.00     0.002 C 
HETATM    9  C7  UNL     1       2.471   1.313  23.596  1.00  0.00     0.009 C 
HETATM   10  C8  UNL     1       1.269   1.053  22.759  1.00  0.00     0.103 C 
HETATM   11  C9  UNL     1       1.114   1.953  21.588  1.00  0.00     0.220 C 
HETATM   12  O2  UNL     1      -0.072   2.323  21.407  1.00  0.00    -0.273 OA
HETATM   13  N2  UNL     1       2.005   2.515  20.593  1.00  0.00    -0.341 N 
HETATM   14  C10 UNL     1       1.268   3.297  19.644  1.00  0.00     0.153 C 
HETATM   15  N3  UNL     1       5.051   4.288  20.897  1.00  0.00    -0.343 N 
HETATM   16  C18 UNL     1       6.263   3.908  20.194  1.00  0.00     0.243 C 
HETATM   17  O3  UNL     1       7.297   4.573  20.402  1.00  0.00    -0.271 OA
HETATM   18  C19 UNL     1       6.340   2.750  19.225  1.00  0.00     0.179 C 
ENDROOT
BRANCH  15  19
HETATM   19  C11 UNL     1       4.925   5.711  21.034  1.00  0.00     0.127 C 
BRANCH  19  20
HETATM   20  C12 UNL     1       5.339   6.368  22.264  1.00  0.00     0.024 C 
BRANCH  20  21
HETATM   21  C13 UNL     1       6.234   7.529  22.305  1.00  0.00    -0.010 C 
HETATM   22  C14 UNL     1       5.671   8.459  23.425  1.00  0.00     0.032 C 
HETATM   23  C15 UNL     1       6.314   7.999  24.706  1.00  0.00     0.232 C 
HETATM   24  N4  UNL     1       7.655   8.551  24.755  1.00  0.00    -0.075 N 
HETATM   25  C16 UNL     1       8.224   8.431  23.428  1.00  0.00     0.232 C 
ATOM     26  H42 UNL     1       7.679   9.507  25.113  1.00  0.00     0.277 HD
ATOM     27  H41 UNL     1       8.235   8.124  25.476  1.00  0.00     0.277 HD
HETATM   28  C17 UNL     1       7.649   7.206  22.724  1.00  0.00     0.032 C 
ENDBRANCH  20  21
ENDBRANCH  19  20
ENDBRANCH  15  19
BRANCH  18  29
HETATM   29  C20 UNL     1       6.851   1.539  19.853  1.00  0.00     0.035 C 
BRANCH  29  30
HETATM   30  C21 UNL     1       7.986   0.778  19.270  1.00  0.00     0.002 C 
BRANCH  30  31
HETATM   31  C22 UNL     1       7.661   0.062  18.019  1.00  0.00     0.002 C 
BRANCH  31  32
HETATM   32  C23 UNL     1       8.902  -0.594  17.399  1.00  0.00     0.027 C 
BRANCH  32  33
HETATM   33  C24 UNL     1      10.020  -0.337  18.396  1.00  0.00     0.229 C 
BRANCH  33  34
HETATM   34  N5  UNL     1      11.179  -1.157  18.146  1.00  0.00    -0.079 N 
ATOM     35  H53 UNL     1      10.941  -2.149  18.174  1.00  0.00     0.274 HD
ATOM     36  H52 UNL     1      11.476  -1.088  17.173  1.00  0.00     0.274 HD
ATOM     37  H51 UNL     1      11.949  -0.947  18.782  1.00  0.00     0.274 HD
ENDBRANCH  33  34
ENDBRANCH  32  33
ENDBRANCH  31  32
ENDBRANCH  30  31
ENDBRANCH  29  30
ENDBRANCH  18  29
TORSDOF 9
ENDMDL
MODEL 3
REMARK VINA RESULT: -6.888407737      3.259      5.487
REMARK  9 active torsions:
REMARK  status: ('A' for Active; 'I' for Inactive)
REMARK    1  A    between atoms: N3_15  and  C11_16 
REMARK    2  A    between atoms: C11_16  and  C12_17 
REMARK    3  A    between atoms: C12_17  and  C13_18 
REMARK    4  A    between atoms: C19_28  and  C20_29 
REMARK    5  A    between atoms: C20_29  and  C21_30 
REMARK    6  A    between atoms: C21_30  and  C22_31 
REMARK    7  A    between atoms: C22_31  and  C23_32 
REMARK    8  A    between atoms: C23_32  and  C24_33 
REMARK    9  A    between atoms: C24_33  and  N5_34 
ROOT
HETATM    1  C1  UNL     1       4.530   3.999  17.243  1.00  0.00     0.153 C 
HETATM    2  N1  UNL     1       4.615   3.318  18.520  1.00  0.00    -0.341 N 
HETATM    3  C2  UNL     1       3.323   3.152  19.144  1.00  0.00     0.245 C 
HETATM    4  O1  UNL     1       2.386   3.202  18.340  1.00  0.00    -0.271 OA
HETATM    5  C3  UNL     1       3.044   2.946  20.538  1.00  0.00     0.201 C 
HETATM    6  C4  UNL     1       3.886   3.668  21.560  1.00  0.00     0.119 C 
HETATM    7  C5  UNL     1       4.153   2.638  22.634  1.00  0.00     0.028 C 
HETATM    8  C6  UNL     1       3.004   2.624  23.625  1.00  0.00     0.002 C 
HETATM    9  C7  UNL     1       2.136   1.425  23.560  1.00  0.00     0.009 C 
HETATM   10  C8  UNL     1       0.844   1.550  22.834  1.00  0.00     0.103 C 
HETATM   11  C9  UNL     1       0.779   2.667  21.859  1.00  0.00     0.220 C 
HETATM   12  O2  UNL     1      -0.321   3.273  21.880  1.00  0.00    -0.273 OA
HETATM   13  N2  UNL     1       1.682   3.238  20.880  1.00  0.00    -0.341 N 
HETATM   14  C10 UNL     1       1.042   4.304  20.168  1.00  0.00     0.153 C 
HETATM   15  N3  UNL     1       5.033   4.342  21.133  1.00  0.00    -0.343 N 
HETATM   16  C18 UNL     1       6.086   3.889  20.243  1.00  0.00     0.243 C 
HETATM   17  O3  UNL     1       7.246   4.305  20.442  1.00  0.00    -0.271 OA
HETATM   18  C19 UNL     1       5.856   2.940  19.088  1.00  0.00     0.179 C 
ENDROOT
BRANCH  15  19
HETATM   19  C11 UNL     1       5.203   5.712  21.524  1.00  0.00     0.127 C 
BRANCH  19  20
HETATM   20  C12 UNL     1       4.130   6.417  22.208  1.00  0.00     0.024 C 
BRANCH  20  21
HETATM   21  C13 UNL     1       4.083   6.617  23.659  1.00  0.00    -0.010 C 
HETATM   22  C14 UNL     1       5.505   7.116  24.065  1.00  0.00     0.032 C 
HETATM   23  C15 UNL     1       5.473   8.615  23.924  1.00  0.00     0.232 C 
HETATM   24  N4  UNL     1       4.815   9.159  25.098  1.00  0.00    -0.075 N 
HETATM   25  C16 UNL     1       3.680   8.309  25.394  1.00  0.00     0.232 C 
ATOM     26  H42 UNL     1       5.446   9.270  25.891  1.00  0.00     0.277 HD
ATOM     27  H41 UNL     1       4.559  10.140  24.991  1.00  0.00     0.277 HD
HETATM   28  C17 UNL     1       3.133   7.703  24.106  1.00  0.00     0.032 C 
ENDBRANCH  20  21
ENDBRANCH  19  20
ENDBRANCH  15  19
BRANCH  18  29
HETATM   29  C20 UNL     1       6.165   1.560  19.438  1.00  0.00     0.035 C 
BRANCH  29  30
HETATM   30  C21 UNL     1       7.565   1.094  19.606  1.00  0.00     0.002 C 
BRANCH  30  31
HETATM   31  C22 UNL     1       8.102   0.346  18.449  1.00  0.00     0.002 C 
BRANCH  31  32
HETATM   32  C23 UNL     1       9.634   0.267  18.483  1.00  0.00     0.027 C 
BRANCH  32  33
HETATM   33  C24 UNL     1       9.979  -0.975  17.676  1.00  0.00     0.229 C 
BRANCH  33  34
HETATM   34  N5  UNL     1      11.305  -1.464  17.959  1.00  0.00    -0.079 N 
ATOM     35  H53 UNL     1      11.875  -1.492  17.113  1.00  0.00     0.274 HD
ATOM     36  H52 UNL     1      11.842  -0.782  18.495  1.00  0.00     0.274 HD
ATOM     37  H51 UNL     1      11.295  -2.372  18.424  1.00  0.00     0.274 HD
ENDBRANCH  33  34
ENDBRANCH  32  33
ENDBRANCH  31  32
ENDBRANCH  30  31
ENDBRANCH  29  30
ENDBRANCH  18  29
TORSDOF 9
ENDMDL
MODEL 4
REMARK VINA RESULT: -6.881824231      2.350      7.755
REMARK  9 active torsions:
REMARK  status: ('A' for Active; 'I' for Inactive)
REMARK    1  A    between atoms: N3_15  and  C11_16 
REMARK    2  A    between atoms: C11_16  and  C12_17 
REMARK    3  A    between atoms: C12_17  and  C13_18 
REMARK    4  A    between atoms: C19_28  and  C20_29 
REMARK    5  A    between atoms: C20_29  and  C21_30 
REMARK    6  A    between atoms: C21_30  and  C22_31 
REMARK    7  A    between atoms: C22_31  and  C23_32 
REMARK    8  A    between atoms: C23_32  and  C24_33 
REMARK    9  A    between atoms: C24_33  and  N5_34 
ROOT
HETATM    1  C1  UNL     1       3.833   7.586  19.926  1.00  0.00     0.153 C 
HETATM    2  N1  UNL     1       4.814   6.607  20.351  1.00  0.00    -0.341 N 
HETATM    3  C2  UNL     1       4.855   5.455  19.482  1.00  0.00     0.245 C 
HETATM    4  O1  UNL     1       4.411   5.683  18.351  1.00  0.00    -0.271 OA
HETATM    5  C3  UNL     1       5.340   4.139  19.793  1.00  0.00     0.201 C 
HETATM    6  C4  UNL     1       5.091   3.583  21.173  1.00  0.00     0.119 C 
HETATM    7  C5  UNL     1       6.390   2.911  21.557  1.00  0.00     0.028 C 
HETATM    8  C6  UNL     1       6.409   1.493  21.015  1.00  0.00     0.002 C 
HETATM    9  C7  UNL     1       7.344   1.267  19.888  1.00  0.00     0.009 C 
HETATM   10  C8  UNL     1       6.773   1.246  18.515  1.00  0.00     0.103 C 
HETATM   11  C9  UNL     1       5.459   1.921  18.372  1.00  0.00     0.220 C 
HETATM   12  O2  UNL     1       4.661   1.292  17.635  1.00  0.00    -0.273 OA
HETATM   13  N2  UNL     1       4.865   3.141  18.880  1.00  0.00    -0.341 N 
HETATM   14  C10 UNL     1       3.544   3.315  18.351  1.00  0.00     0.153 C 
HETATM   15  N3  UNL     1       4.588   4.434  22.161  1.00  0.00    -0.343 N 
HETATM   16  C18 UNL     1       5.015   5.773  22.524  1.00  0.00     0.243 C 
HETATM   17  O3  UNL     1       4.915   6.120  23.719  1.00  0.00    -0.271 OA
HETATM   18  C19 UNL     1       5.574   6.770  21.535  1.00  0.00     0.179 C 
ENDROOT
BRANCH  15  19
HETATM   19  C11 UNL     1       3.427   4.016  22.893  1.00  0.00     0.127 C 
BRANCH  19  20
HETATM   20  C12 UNL     1       2.671   2.849  22.464  1.00  0.00     0.024 C 
BRANCH  20  21
HETATM   21  C13 UNL     1       2.725   1.550  23.141  1.00  0.00    -0.010 C 
HETATM   22  C14 UNL     1       1.274   1.278  23.651  1.00  0.00     0.032 C 
HETATM   23  C15 UNL     1       0.562   0.585  22.520  1.00  0.00     0.232 C 
HETATM   24  N4  UNL     1       0.958  -0.811  22.532  1.00  0.00    -0.075 N 
HETATM   25  C16 UNL     1       2.382  -0.858  22.795  1.00  0.00     0.232 C 
ATOM     26  H42 UNL     1       0.414  -1.372  23.188  1.00  0.00     0.277 HD
ATOM     27  H41 UNL     1       0.695  -1.306  21.681  1.00  0.00     0.277 HD
HETATM   28  C17 UNL     1       3.056   0.390  22.233  1.00  0.00     0.032 C 
ENDBRANCH  20  21
ENDBRANCH  19  20
ENDBRANCH  15  19
BRANCH  18  29
HETATM   29  C20 UNL     1       7.030   6.785  21.531  1.00  0.00     0.035 C 
BRANCH  29  30
HETATM   30  C21 UNL     1       7.797   8.024  21.238  1.00  0.00     0.002 C 
BRANCH  30  31
HETATM   31  C22 UNL     1       8.636   8.500  22.357  1.00  0.00     0.002 C 
BRANCH  31  32
HETATM   32  C23 UNL     1       7.790   9.070  23.503  1.00  0.00     0.027 C 
BRANCH  32  33
HETATM   33  C24 UNL     1       8.273   8.340  24.745  1.00  0.00     0.229 C 
BRANCH  33  34
HETATM   34  N5  UNL     1       7.433   7.218  25.086  1.00  0.00    -0.079 N 
ATOM     35  H53 UNL     1       6.565   7.233  24.550  1.00  0.00     0.274 HD
ATOM     36  H52 UNL     1       7.826   6.345  24.735  1.00  0.00     0.274 HD
ATOM     37  H51 UNL     1       7.246   7.162  26.087  1.00  0.00     0.274 HD
ENDBRANCH  33  34
ENDBRANCH  32  33
ENDBRANCH  31  32
ENDBRANCH  30  31
ENDBRANCH  29  30
ENDBRANCH  18  29
TORSDOF 9
ENDMDL
MODEL 5
REMARK VINA RESULT: -6.713777423      3.202      6.106
REMARK  9 active torsions:
REMARK  status: ('A' for Active; 'I' for Inactive)
REMARK    1  A    between atoms: N3_15  and  C11_16 
REMARK    2  A    between atoms: C11_16  and  C12_17 
REMARK    3  A    between atoms: C12_17  and  C13_18 
REMARK    4  A    between atoms: C19_28  and  C20_29 
REMARK    5  A    between atoms: C20_29  and  C21_30 
REMARK    6  A    between atoms: C21_30  and  C22_31 
REMARK    7  A    between atoms: C22_31  and  C23_32 
REMARK    8  A    between atoms: C23_32  and  C24_33 
REMARK    9  A    between atoms: C24_33  and  N5_34 
ROOT
HETATM    1  C1  UNL     1       5.279   2.240  16.730  1.00  0.00     0.153 C 
HETATM    2  N1  UNL     1       5.312   1.913  18.143  1.00  0.00    -0.341 N 
HETATM    3  C2  UNL     1       4.083   1.307  18.597  1.00  0.00     0.245 C 
HETATM    4  O1  UNL     1       3.432   0.787  17.684  1.00  0.00    -0.271 OA
HETATM    5  C3  UNL     1       3.575   1.255  19.939  1.00  0.00     0.201 C 
HETATM    6  C4  UNL     1       3.781   2.449  20.838  1.00  0.00     0.119 C 
HETATM    7  C5  UNL     1       4.164   1.860  22.177  1.00  0.00     0.028 C 
HETATM    8  C6  UNL     1       2.910   1.516  22.960  1.00  0.00     0.002 C 
HETATM    9  C7  UNL     1       2.636   0.067  23.098  1.00  0.00     0.009 C 
HETATM   10  C8  UNL     1       1.623  -0.531  22.188  1.00  0.00     0.103 C 
HETATM   11  C9  UNL     1       1.359   0.243  20.949  1.00  0.00     0.220 C 
HETATM   12  O2  UNL     1       0.142   0.288  20.648  1.00  0.00    -0.273 OA
HETATM   13  N2  UNL     1       2.171   0.967  19.992  1.00  0.00    -0.341 N 
HETATM   14  C10 UNL     1       1.357   1.488  18.934  1.00  0.00     0.153 C 
HETATM   15  N3  UNL     1       4.633   3.473  20.414  1.00  0.00    -0.343 N 
HETATM   16  C18 UNL     1       5.963   3.382  19.839  1.00  0.00     0.243 C 
HETATM   17  O3  UNL     1       6.773   4.299  20.083  1.00  0.00    -0.271 OA
HETATM   18  C19 UNL     1       6.420   2.238  18.963  1.00  0.00     0.179 C 
ENDROOT
BRANCH  15  19
HETATM   19  C11 UNL     1       4.142   4.821  20.440  1.00  0.00     0.127 C 
BRANCH  19  20
HETATM   20  C12 UNL     1       3.571   5.369  21.661  1.00  0.00     0.024 C 
BRANCH  20  21
HETATM   21  C13 UNL     1       4.366   5.744  22.834  1.00  0.00    -0.010 C 
HETATM   22  C14 UNL     1       5.563   6.583  22.284  1.00  0.00     0.032 C 
HETATM   23  C15 UNL     1       5.081   8.008  22.236  1.00  0.00     0.232 C 
HETATM   24  N4  UNL     1       5.161   8.551  23.580  1.00  0.00    -0.075 N 
HETATM   25  C16 UNL     1       4.695   7.528  24.492  1.00  0.00     0.232 C 
ATOM     26  H42 UNL     1       6.091   8.898  23.813  1.00  0.00     0.277 HD
ATOM     27  H41 UNL     1       4.659   9.433  23.682  1.00  0.00     0.277 HD
HETATM   28  C17 UNL     1       3.650   6.654  23.804  1.00  0.00     0.032 C 
ENDBRANCH  20  21
ENDBRANCH  19  20
ENDBRANCH  15  19
BRANCH  18  29
HETATM   29  C20 UNL     1       7.156   1.230  19.713  1.00  0.00     0.035 C 
BRANCH  29  30
HETATM   30  C21 UNL     1       8.364   0.570  19.155  1.00  0.00     0.002 C 
BRANCH  30  31
HETATM   31  C22 UNL     1       8.173  -0.019  17.813  1.00  0.00     0.002 C 
BRANCH  31  32
HETATM   32  C23 UNL     1       9.401  -0.821  17.362  1.00  0.00     0.027 C 
BRANCH  32  33
HETATM   33  C24 UNL     1       8.857  -1.852  16.386  1.00  0.00     0.229 C 
BRANCH  33  34
HETATM   34  N5  UNL     1       7.575  -1.474  15.845  1.00  0.00    -0.079 N 
ATOM     35  H53 UNL     1       6.913  -1.250  16.588  1.00  0.00     0.274 HD
ATOM     36  H52 UNL     1       7.623  -0.563  15.388  1.00  0.00     0.274 HD
ATOM     37  H51 UNL     1       7.195  -2.181  15.216  1.00  0.00     0.274 HD
ENDBRANCH  33  34
ENDBRANCH  32  33
ENDBRANCH  31  32
ENDBRANCH  30  31
ENDBRANCH  29  30
ENDBRANCH  18  29
TORSDOF 9
ENDMDL
