MODEL 1
REMARK VINA RESULT: -8.825150302      0.000      0.000
REMARK  8 active torsions:
REMARK  status: ('A' for Active; 'I' for Inactive)
REMARK    1  A    between atoms: N3_4  and  N4_6 
REMARK    2  A    between atoms: C5_11  and  N5_12 
REMARK    3  A    between atoms: N5_12  and  S1_14 
REMARK    4  A    between atoms: S1_14  and  N6_17 
REMARK    5  A    between atoms: N6_17  and  C6_18 
REMARK    6  A    between atoms: N6_17  and  C12_26 
REMARK    7  A    between atoms: C6_18  and  C7_19 
REMARK       I    between atoms: C7_19  and  N7_21 
REMARK    8  A    between atoms: C12_26  and  C13_27 
ROOT
HETATM    1  S1  UNL     1       6.038   5.403  20.930  1.00  0.00     0.299 S 
HETATM    2  O1  UNL     1       5.655   6.384  19.818  1.00  0.00    -0.188 OA
HETATM    3  O2  UNL     1       7.525   5.146  20.667  1.00  0.00    -0.188 OA
ENDROOT
BRANCH   1   4
HETATM    4  N5  UNL     1       5.895   6.122  22.458  1.00  0.00    -0.302 N 
ATOM      5  H5  UNL     1       6.381   5.756  23.277  1.00  0.00     0.173 HD
BRANCH   4   6
HETATM    6  C5  UNL     1       5.044   7.278  22.528  1.00  0.00     0.094 C 
HETATM    7  C4  UNL     1       4.406   7.386  23.918  1.00  0.00     0.031 C 
HETATM    8  C3  UNL     1       5.197   8.300  24.819  1.00  0.00     0.056 C 
HETATM    9  C2  UNL     1       6.616   8.407  24.495  1.00  0.00     0.004 C 
HETATM   10  N4  UNL     1       7.489   8.314  25.430  1.00  0.00    -0.307 N 
HETATM   11  C20 UNL     1       7.062   8.623  23.112  1.00  0.00     0.056 C 
ATOM     12  H4  UNL     1       7.178   8.165  26.391  1.00  0.00     0.186 HD
HETATM   13  C19 UNL     1       5.811   8.522  22.239  1.00  0.00     0.031 C 
BRANCH  10  14
HETATM   14  N3  UNL     1       8.853   8.412  25.163  1.00  0.00    -0.276 N 
HETATM   15  C1  UNL     1       9.768   7.964  25.947  1.00  0.00     0.215 C 
HETATM   16  N1  UNL     1       9.515   7.314  27.184  1.00  0.00    -0.065 NA
HETATM   17  N2  UNL     1      11.123   8.130  25.553  1.00  0.00    -0.065 NA
ATOM     18  H3  UNL     1       9.142   8.865  24.295  1.00  0.00     0.189 HD
ENDBRANCH  10  14
ENDBRANCH   4   6
ENDBRANCH   1   4
BRANCH   1  19
HETATM   19  N6  UNL     1       5.255   3.906  20.715  1.00  0.00    -0.184 NA
BRANCH  19  20
HETATM   20  C6  UNL     1       5.450   3.081  21.882  1.00  0.00     0.211 C 
BRANCH  20  21
HETATM   21  C7  UNL     1       4.235   3.125  22.708  1.00  0.00     0.233 C 
HETATM   22  O3  UNL     1       3.957   4.097  23.470  1.00  0.00    -0.272 OA
HETATM   23  N7  UNL     1       3.329   2.018  22.647  1.00  0.00    -0.351 N 
HETATM   24  C8  UNL     1       2.114   1.937  23.400  1.00  0.00     0.126 C 
HETATM   25  C11 UNL     1       3.518   0.836  21.820  1.00  0.00     0.126 C 
HETATM   26  C9  UNL     1       1.561   0.589  23.137  1.00  0.00     0.021 C 
HETATM   27  C10 UNL     1       2.696  -0.208  22.547  1.00  0.00     0.021 C 
ENDBRANCH  20  21
ENDBRANCH  19  20
BRANCH  19  28
HETATM   28  C12 UNL     1       5.647   3.215  19.519  1.00  0.00     0.114 C 
BRANCH  28  29
HETATM   29  C13 UNL     1       6.273   1.856  19.833  1.00  0.00    -0.000 C 
HETATM   30  C14 UNL     1       5.705   0.831  18.881  1.00  0.00     0.006 C 
HETATM   31  C15 UNL     1       6.409   0.876  17.521  1.00  0.00     0.000 C 
HETATM   32  C16 UNL     1       7.791   0.308  17.684  1.00  0.00     0.000 C 
HETATM   33  C17 UNL     1       8.234   0.558  19.109  1.00  0.00     0.000 C 
HETATM   34  C18 UNL     1       7.767   1.891  19.617  1.00  0.00     0.006 C 
ENDBRANCH  28  29
ENDBRANCH  19  28
ENDBRANCH   1  19
TORSDOF 8
ENDMDL
MODEL 2
REMARK VINA RESULT: -8.158343228      2.193      4.053
REMARK  8 active torsions:
REMARK  status: ('A' for Active; 'I' for Inactive)
REMARK    1  A    between atoms: N3_4  and  N4_6 
REMARK    2  A    between atoms: C5_11  and  N5_12 
REMARK    3  A    between atoms: N5_12  and  S1_14 
REMARK    4  A    between atoms: S1_14  and  N6_17 
REMARK    5  A    between atoms: N6_17  and  C6_18 
REMARK    6  A    between atoms: N6_17  and  C12_26 
REMARK    7  A    between atoms: C6_18  and  C7_19 
REMARK       I    between atoms: C7_19  and  N7_21 
REMARK    8  A    between atoms: C12_26  and  C13_27 
ROOT
HETATM    1  S1  UNL     1       4.139   7.025  20.630  1.00  0.00     0.299 S 
HETATM    2  O1  UNL     1       2.911   7.900  20.358  1.00  0.00    -0.188 OA
HETATM    3  O2  UNL     1       4.594   6.622  19.224  1.00  0.00    -0.188 OA
ENDROOT
BRANCH   1   4
HETATM    4  N5  UNL     1       5.386   7.923  21.344  1.00  0.00    -0.302 N 
ATOM      5  H5  UNL     1       5.369   8.186  22.330  1.00  0.00     0.173 HD
BRANCH   4   6
HETATM    6  C5  UNL     1       6.469   8.292  20.474  1.00  0.00     0.094 C 
HETATM    7  C4  UNL     1       6.821   9.773  20.661  1.00  0.00     0.031 C 
HETATM    8  C3  UNL     1       7.956   9.952  21.636  1.00  0.00     0.056 C 
HETATM    9  C2  UNL     1       8.092   8.888  22.625  1.00  0.00     0.004 C 
HETATM   10  N4  UNL     1       8.258   9.187  23.862  1.00  0.00    -0.307 N 
HETATM   11  C20 UNL     1       8.044   7.474  22.227  1.00  0.00     0.056 C 
ATOM     12  H4  UNL     1       8.292  10.169  24.137  1.00  0.00     0.186 HD
HETATM   13  C19 UNL     1       7.676   7.461  20.743  1.00  0.00     0.031 C 
BRANCH  10  14
HETATM   14  N3  UNL     1       8.393   8.201  24.837  1.00  0.00    -0.276 N 
HETATM   15  C1  UNL     1       9.418   8.093  25.604  1.00  0.00     0.215 C 
HETATM   16  N1  UNL     1      10.545   8.956  25.563  1.00  0.00    -0.065 NA
HETATM   17  N2  UNL     1       9.428   7.038  26.557  1.00  0.00    -0.065 NA
ATOM     18  H3  UNL     1       7.635   7.527  24.947  1.00  0.00     0.189 HD
ENDBRANCH  10  14
ENDBRANCH   4   6
ENDBRANCH   1   4
BRANCH   1  19
HETATM   19  N6  UNL     1       3.694   5.581  21.414  1.00  0.00    -0.184 NA
BRANCH  19  20
HETATM   20  C6  UNL     1       4.171   5.597  22.775  1.00  0.00     0.211 C 
BRANCH  20  21
HETATM   21  C7  UNL     1       3.122   6.147  23.645  1.00  0.00     0.233 C 
HETATM   22  O3  UNL     1       1.934   5.711  23.649  1.00  0.00    -0.272 OA
HETATM   23  N7  UNL     1       3.461   7.225  24.525  1.00  0.00    -0.351 N 
HETATM   24  C8  UNL     1       2.534   7.848  25.420  1.00  0.00     0.126 C 
HETATM   25  C11 UNL     1       4.782   7.827  24.626  1.00  0.00     0.126 C 
HETATM   26  C9  UNL     1       3.262   8.981  26.035  1.00  0.00     0.021 C 
HETATM   27  C10 UNL     1       4.472   9.209  25.165  1.00  0.00     0.021 C 
ENDBRANCH  20  21
ENDBRANCH  19  20
BRANCH  19  28
HETATM   28  C12 UNL     1       4.123   4.395  20.728  1.00  0.00     0.114 C 
BRANCH  28  29
HETATM   29  C13 UNL     1       5.440   3.862  21.291  1.00  0.00    -0.000 C 
HETATM   30  C14 UNL     1       5.281   2.389  21.583  1.00  0.00     0.006 C 
HETATM   31  C15 UNL     1       5.445   1.544  20.316  1.00  0.00     0.000 C 
HETATM   32  C16 UNL     1       6.897   1.553  19.926  1.00  0.00     0.000 C 
HETATM   33  C17 UNL     1       7.505   2.850  20.415  1.00  0.00     0.000 C 
HETATM   34  C18 UNL     1       6.552   4.002  20.280  1.00  0.00     0.006 C 
ENDBRANCH  28  29
ENDBRANCH  19  28
ENDBRANCH   1  19
TORSDOF 8
ENDMDL
MODEL 3
REMARK VINA RESULT: -7.791116872      1.277      4.237
REMARK  8 active torsions:
REMARK  status: ('A' for Active; 'I' for Inactive)
REMARK    1  A    between atoms: N3_4  and  N4_6 
REMARK    2  A    between atoms: C5_11  and  N5_12 
REMARK    3  A    between atoms: N5_12  and  S1_14 
REMARK    4  A    between atoms: S1_14  and  N6_17 
REMARK    5  A    between atoms: N6_17  and  C6_18 
REMARK    6  A    between atoms: N6_17  and  C12_26 
REMARK    7  A    between atoms: C6_18  and  C7_19 
REMARK       I    between atoms: C7_19  and  N7_21 
REMARK    8  A    between atoms: C12_26  and  C13_27 
ROOT
HETATM    1  S1  UNL     1       4.263   5.195  22.510  1.00  0.00     0.299 S 
HETATM    2  O1  UNL     1       3.303   5.079  23.697  1.00  0.00    -0.188 OA
HETATM    3  O2  UNL     1       3.501   6.100  21.537  1.00  0.00    -0.188 OA
ENDROOT
BRANCH   1   4
HETATM    4  N5  UNL     1       5.692   5.990  22.952  1.00  0.00    -0.302 N 
ATOM      5  H5  UNL     1       6.276   5.667  23.724  1.00  0.00     0.173 HD
BRANCH   4   6
HETATM    6  C5  UNL     1       6.031   7.148  22.171  1.00  0.00     0.094 C 
HETATM    7  C4  UNL     1       5.445   8.412  22.812  1.00  0.00     0.031 C 
HETATM    8  C3  UNL     1       6.452   9.100  23.697  1.00  0.00     0.056 C 
HETATM    9  C2  UNL     1       7.475   8.226  24.261  1.00  0.00     0.004 C 
HETATM   10  N4  UNL     1       7.761   8.305  25.510  1.00  0.00    -0.307 N 
HETATM   11  C20 UNL     1       8.188   7.254  23.420  1.00  0.00     0.056 C 
ATOM     12  H4  UNL     1       7.266   8.981  26.093  1.00  0.00     0.186 HD
HETATM   13  C19 UNL     1       7.509   7.297  22.051  1.00  0.00     0.031 C 
BRANCH  10  14
HETATM   14  N3  UNL     1       8.732   7.489  26.086  1.00  0.00    -0.276 N 
HETATM   15  C1  UNL     1       9.951   7.855  26.273  1.00  0.00     0.215 C 
HETATM   16  N1  UNL     1      10.469   9.130  25.921  1.00  0.00    -0.065 NA
HETATM   17  N2  UNL     1      10.840   6.922  26.872  1.00  0.00    -0.065 NA
ATOM     18  H3  UNL     1       8.462   6.549  26.375  1.00  0.00     0.189 HD
ENDBRANCH  10  14
ENDBRANCH   4   6
ENDBRANCH   1   4
BRANCH   1  19
HETATM   19  N6  UNL     1       4.437   3.695  21.722  1.00  0.00    -0.184 NA
BRANCH  19  20
HETATM   20  C6  UNL     1       4.921   3.902  20.380  1.00  0.00     0.211 C 
BRANCH  20  21
HETATM   21  C7  UNL     1       6.308   3.422  20.290  1.00  0.00     0.233 C 
HETATM   22  O3  UNL     1       7.290   4.071  20.756  1.00  0.00    -0.272 OA
HETATM   23  N7  UNL     1       6.554   2.166  19.649  1.00  0.00    -0.351 N 
HETATM   24  C8  UNL     1       7.856   1.588  19.497  1.00  0.00     0.126 C 
HETATM   25  C11 UNL     1       5.527   1.315  19.068  1.00  0.00     0.126 C 
HETATM   26  C9  UNL     1       7.667   0.371  18.674  1.00  0.00     0.021 C 
HETATM   27  C10 UNL     1       6.304   0.512  18.046  1.00  0.00     0.021 C 
ENDBRANCH  20  21
ENDBRANCH  19  20
BRANCH  19  28
HETATM   28  C12 UNL     1       3.243   2.898  21.727  1.00  0.00     0.114 C 
BRANCH  28  29
HETATM   29  C13 UNL     1       3.454   1.570  22.453  1.00  0.00    -0.000 C 
HETATM   30  C14 UNL     1       2.721   1.619  23.773  1.00  0.00     0.006 C 
HETATM   31  C15 UNL     1       1.228   1.320  23.597  1.00  0.00     0.000 C 
HETATM   32  C16 UNL     1       1.071  -0.143  23.292  1.00  0.00     0.000 C 
HETATM   33  C17 UNL     1       2.329  -0.614  22.596  1.00  0.00     0.000 C 
HETATM   34  C18 UNL     1       2.874   0.425  21.659  1.00  0.00     0.006 C 
ENDBRANCH  28  29
ENDBRANCH  19  28
ENDBRANCH   1  19
TORSDOF 8
ENDMDL
MODEL 4
REMARK VINA RESULT: -7.775647867      2.112      8.078
REMARK  8 active torsions:
REMARK  status: ('A' for Active; 'I' for Inactive)
REMARK    1  A    between atoms: N3_4  and  N4_6 
REMARK    2  A    between atoms: C5_11  and  N5_12 
REMARK    3  A    between atoms: N5_12  and  S1_14 
REMARK    4  A    between atoms: S1_14  and  N6_17 
REMARK    5  A    between atoms: N6_17  and  C6_18 
REMARK    6  A    between atoms: N6_17  and  C12_26 
REMARK    7  A    between atoms: C6_18  and  C7_19 
REMARK       I    between atoms: C7_19  and  N7_21 
REMARK    8  A    between atoms: C12_26  and  C13_27 
ROOT
HETATM    1  S1  UNL     1       6.814   6.950  21.112  1.00  0.00     0.299 S 
HETATM    2  O1  UNL     1       8.141   7.122  20.366  1.00  0.00    -0.188 OA
HETATM    3  O2  UNL     1       5.775   7.375  20.071  1.00  0.00    -0.188 OA
ENDROOT
BRANCH   1   4
HETATM    4  N5  UNL     1       6.533   5.323  21.496  1.00  0.00    -0.302 N 
ATOM      5  H5  UNL     1       6.319   5.020  22.447  1.00  0.00     0.173 HD
BRANCH   4   6
HETATM    6  C5  UNL     1       6.616   4.398  20.400  1.00  0.00     0.094 C 
HETATM    7  C4  UNL     1       7.177   3.054  20.879  1.00  0.00     0.031 C 
HETATM    8  C3  UNL     1       6.074   2.081  21.209  1.00  0.00     0.056 C 
HETATM    9  C2  UNL     1       4.811   2.694  21.606  1.00  0.00     0.004 C 
HETATM   10  N4  UNL     1       4.191   2.259  22.643  1.00  0.00    -0.307 N 
HETATM   11  C20 UNL     1       4.232   3.803  20.834  1.00  0.00     0.056 C 
ATOM     12  H4  UNL     1       4.593   1.489  23.177  1.00  0.00     0.186 HD
HETATM   13  C19 UNL     1       5.276   4.181  19.783  1.00  0.00     0.031 C 
BRANCH  10  14
HETATM   14  N3  UNL     1       2.982   2.817  23.053  1.00  0.00    -0.276 N 
HETATM   15  C1  UNL     1       2.084   2.169  23.707  1.00  0.00     0.215 C 
HETATM   16  N1  UNL     1       2.201   0.808  24.095  1.00  0.00    -0.065 NA
HETATM   17  N2  UNL     1       0.894   2.859  24.064  1.00  0.00    -0.065 NA
ATOM     18  H3  UNL     1       2.799   3.793  22.822  1.00  0.00     0.189 HD
ENDBRANCH  10  14
ENDBRANCH   4   6
ENDBRANCH   1   4
BRANCH   1  19
HETATM   19  N6  UNL     1       6.687   8.068  22.390  1.00  0.00    -0.184 NA
BRANCH  19  20
HETATM   20  C6  UNL     1       7.439   7.599  23.526  1.00  0.00     0.211 C 
BRANCH  20  21
HETATM   21  C7  UNL     1       8.688   8.369  23.627  1.00  0.00     0.233 C 
HETATM   22  O3  UNL     1       9.129   9.087  22.683  1.00  0.00    -0.272 OA
HETATM   23  N7  UNL     1       9.434   8.301  24.847  1.00  0.00    -0.351 N 
HETATM   24  C8  UNL     1      10.662   9.001  25.072  1.00  0.00     0.126 C 
HETATM   25  C11 UNL     1       9.050   7.518  26.012  1.00  0.00     0.126 C 
HETATM   26  C9  UNL     1      11.151   8.550  26.396  1.00  0.00     0.021 C 
HETATM   27  C10 UNL     1      10.376   7.296  26.710  1.00  0.00     0.021 C 
ENDBRANCH  20  21
ENDBRANCH  19  20
BRANCH  19  28
HETATM   28  C12 UNL     1       5.333   8.377  22.755  1.00  0.00     0.114 C 
BRANCH  28  29
HETATM   29  C13 UNL     1       4.745   7.318  23.687  1.00  0.00    -0.000 C 
HETATM   30  C14 UNL     1       4.304   7.989  24.965  1.00  0.00     0.006 C 
HETATM   31  C15 UNL     1       2.934   8.655  24.807  1.00  0.00     0.000 C 
HETATM   32  C16 UNL     1       1.889   7.577  24.733  1.00  0.00     0.000 C 
HETATM   33  C17 UNL     1       2.534   6.340  24.147  1.00  0.00     0.000 C 
HETATM   34  C18 UNL     1       3.523   6.679  23.071  1.00  0.00     0.006 C 
ENDBRANCH  28  29
ENDBRANCH  19  28
ENDBRANCH   1  19
TORSDOF 8
ENDMDL
MODEL 5
REMARK VINA RESULT: -7.759800586      5.046      8.425
REMARK  8 active torsions:
REMARK  status: ('A' for Active; 'I' for Inactive)
REMARK    1  A    between atoms: N3_4  and  N4_6 
REMARK    2  A    between atoms: C5_11  and  N5_12 
REMARK    3  A    between atoms: N5_12  and  S1_14 
REMARK    4  A    between atoms: S1_14  and  N6_17 
REMARK    5  A    between atoms: N6_17  and  C6_18 
REMARK    6  A    between atoms: N6_17  and  C12_26 
REMARK    7  A    between atoms: C6_18  and  C7_19 
REMARK       I    between atoms: C7_19  and  N7_21 
REMARK    8  A    between atoms: C12_26  and  C13_27 
ROOT
HETATM    1  S1  UNL     1       6.537   7.799  21.599  1.00  0.00     0.299 S 
HETATM    2  O1  UNL     1       7.200   6.489  22.036  1.00  0.00    -0.188 OA
HETATM    3  O2  UNL     1       6.216   7.549  20.123  1.00  0.00    -0.188 OA
ENDROOT
BRANCH   1   4
HETATM    4  N5  UNL     1       5.074   8.049  22.417  1.00  0.00    -0.302 N 
ATOM      5  H5  UNL     1       4.415   8.777  22.139  1.00  0.00     0.173 HD
BRANCH   4   6
HETATM    6  C5  UNL     1       4.819   7.172  23.526  1.00  0.00     0.094 C 
HETATM    7  C4  UNL     1       4.808   7.963  24.839  1.00  0.00     0.031 C 
HETATM    8  C3  UNL     1       3.408   8.359  25.233  1.00  0.00     0.056 C 
HETATM    9  C2  UNL     1       2.469   8.490  24.124  1.00  0.00     0.004 C 
HETATM   10  N4  UNL     1       1.707   9.520  24.055  1.00  0.00    -0.307 N 
HETATM   11  C20 UNL     1       2.381   7.457  23.082  1.00  0.00     0.056 C 
ATOM     12  H4  UNL     1       1.768  10.235  24.779  1.00  0.00     0.186 HD
HETATM   13  C19 UNL     1       3.514   6.470  23.362  1.00  0.00     0.031 C 
BRANCH  10  14
HETATM   14  N3  UNL     1       0.796   9.681  23.012  1.00  0.00    -0.276 N 
HETATM   15  C1  UNL     1      -0.290  10.360  23.114  1.00  0.00     0.215 C 
HETATM   16  N1  UNL     1      -0.708  11.033  24.293  1.00  0.00    -0.065 NA
HETATM   17  N2  UNL     1      -1.131  10.444  21.971  1.00  0.00    -0.065 NA
ATOM     18  H3  UNL     1       1.004   9.235  22.119  1.00  0.00     0.189 HD
ENDBRANCH  10  14
ENDBRANCH   4   6
ENDBRANCH   1   4
BRANCH   1  19
HETATM   19  N6  UNL     1       7.655   9.083  21.628  1.00  0.00    -0.184 NA
BRANCH  19  20
HETATM   20  C6  UNL     1       7.810   9.627  20.302  1.00  0.00     0.211 C 
BRANCH  20  21
HETATM   21  C7  UNL     1       7.437  11.048  20.319  1.00  0.00     0.233 C 
HETATM   22  O3  UNL     1       8.128  11.933  20.903  1.00  0.00    -0.272 OA
HETATM   23  N7  UNL     1       6.238  11.446  19.644  1.00  0.00    -0.351 N 
HETATM   24  C8  UNL     1       5.764  12.796  19.585  1.00  0.00     0.126 C 
HETATM   25  C11 UNL     1       5.347  10.541  18.933  1.00  0.00     0.126 C 
HETATM   26  C9  UNL     1       4.447  12.736  18.912  1.00  0.00     0.021 C 
HETATM   27  C10 UNL     1       4.030  11.288  18.962  1.00  0.00     0.021 C 
ENDBRANCH  20  21
ENDBRANCH  19  20
BRANCH  19  28
HETATM   28  C12 UNL     1       8.926   8.731  22.196  1.00  0.00     0.114 C 
BRANCH  28  29
HETATM   29  C13 UNL     1       9.173   9.456  23.519  1.00  0.00    -0.000 C 
HETATM   30  C14 UNL     1       8.172   8.962  24.536  1.00  0.00     0.006 C 
HETATM   31  C15 UNL     1       8.606   7.628  25.151  1.00  0.00     0.000 C 
HETATM   32  C16 UNL     1       9.769   7.886  26.069  1.00  0.00     0.000 C 
HETATM   33  C17 UNL     1      10.510   9.101  25.554  1.00  0.00     0.000 C 
HETATM   34  C18 UNL     1      10.549   9.142  24.055  1.00  0.00     0.006 C 
ENDBRANCH  28  29
ENDBRANCH  19  28
ENDBRANCH   1  19
TORSDOF 8
ENDMDL
