MODEL 1
REMARK VINA RESULT: -6.344641042      0.000      0.000
REMARK  2 active torsions:
REMARK  status: ('A' for Active; 'I' for Inactive)
REMARK    1  A    between atoms: C2_5  and  C3_6 
REMARK    2  A    between atoms: C7_12  and  C8_13 
ROOT
HETATM    1  S1  UNL     1      31.712  28.842  13.087  1.00  0.00    -0.041 SA
HETATM    2  C1  UNL     1      31.628  30.464  13.146  1.00  0.00     0.176 A 
HETATM    3  N1  UNL     1      30.789  31.183  12.379  1.00  0.00    -0.330 N 
ATOM      4  H1  UNL     1      30.136  30.809  11.690  1.00  0.00     0.168 HD
HETATM    5  C2  UNL     1      30.958  32.468  12.677  1.00  0.00     0.074 A 
HETATM    6  C7  UNL     1      31.910  32.630  13.626  1.00  0.00     0.044 A 
HETATM    7  N2  UNL     1      32.325  31.338  13.921  1.00  0.00    -0.334 N 
ATOM      8  H2  UNL     1      33.037  31.086  14.607  1.00  0.00     0.168 HD
ENDROOT
BRANCH   5   9
HETATM    9  C3  UNL     1      30.151  33.582  12.153  1.00  0.00     0.035 A 
HETATM   10  C4  UNL     1      28.945  34.110  12.419  1.00  0.00     0.040 A 
HETATM   11  C5  UNL     1      28.626  35.310  11.820  1.00  0.00     0.018 A 
HETATM   12 BR1  UNL     1      26.911  36.179  12.072  1.00  0.00    -0.051 Br
HETATM   13  C6  UNL     1      29.562  35.859  11.007  1.00  0.00     0.069 A 
HETATM   14  S2  UNL     1      30.841  34.770  11.048  1.00  0.00    -0.098 SA
ENDBRANCH   5   9
BRANCH   6  15
HETATM   15  C8  UNL     1      32.650  33.772  14.017  1.00  0.00     0.038 A 
HETATM   16  C9  UNL     1      33.809  33.566  15.009  1.00  0.00     0.011 A 
HETATM   17  C10 UNL     1      32.702  34.696  15.101  1.00  0.00     0.011 A 
ENDBRANCH   6  15
TORSDOF 2
ENDMDL
MODEL 2
REMARK VINA RESULT: -6.244071503      2.004      3.090
REMARK  2 active torsions:
REMARK  status: ('A' for Active; 'I' for Inactive)
REMARK    1  A    between atoms: C2_5  and  C3_6 
REMARK    2  A    between atoms: C7_12  and  C8_13 
ROOT
HETATM    1  S1  UNL     1      34.495  34.183  15.992  1.00  0.00    -0.041 SA
HETATM    2  C1  UNL     1      33.352  33.699  14.943  1.00  0.00     0.176 A 
HETATM    3  N1  UNL     1      32.408  34.523  14.455  1.00  0.00    -0.330 N 
ATOM      4  H1  UNL     1      32.297  35.511  14.685  1.00  0.00     0.168 HD
HETATM    5  C2  UNL     1      31.643  33.824  13.621  1.00  0.00     0.074 A 
HETATM    6  C7  UNL     1      32.048  32.536  13.547  1.00  0.00     0.044 A 
HETATM    7  N2  UNL     1      33.147  32.471  14.393  1.00  0.00    -0.334 N 
ATOM      8  H2  UNL     1      33.710  31.639  14.573  1.00  0.00     0.168 HD
ENDROOT
BRANCH   5   9
HETATM    9  C3  UNL     1      30.567  34.376  12.782  1.00  0.00     0.035 A 
HETATM   10  C4  UNL     1      29.354  34.914  12.995  1.00  0.00     0.040 A 
HETATM   11  C5  UNL     1      28.721  35.508  11.925  1.00  0.00     0.018 A 
HETATM   12 BR1  UNL     1      26.953  36.292  12.063  1.00  0.00    -0.051 Br
HETATM   13  C6  UNL     1      29.379  35.500  10.739  1.00  0.00     0.069 A 
HETATM   14  S2  UNL     1      30.818  34.697  11.067  1.00  0.00    -0.098 SA
ENDBRANCH   5   9
BRANCH   6  15
HETATM   15  C8  UNL     1      31.386  31.376  13.076  1.00  0.00     0.038 A 
HETATM   16  C9  UNL     1      31.750  30.031  13.730  1.00  0.00     0.011 A 
HETATM   17  C10 UNL     1      31.622  30.299  12.173  1.00  0.00     0.011 A 
ENDBRANCH   6  15
TORSDOF 2
ENDMDL
MODEL 3
REMARK VINA RESULT: -6.137779263      1.806      1.982
REMARK  2 active torsions:
REMARK  status: ('A' for Active; 'I' for Inactive)
REMARK    1  A    between atoms: C2_5  and  C3_6 
REMARK    2  A    between atoms: C7_12  and  C8_13 
ROOT
HETATM    1  S1  UNL     1      31.784  28.095  13.418  1.00  0.00    -0.041 SA
HETATM    2  C1  UNL     1      31.464  29.674  13.204  1.00  0.00     0.176 A 
HETATM    3  N1  UNL     1      30.398  30.119  12.515  1.00  0.00    -0.330 N 
ATOM      4  H1  UNL     1      29.697  29.540  12.054  1.00  0.00     0.168 HD
HETATM    5  C2  UNL     1      30.419  31.449  12.539  1.00  0.00     0.074 A 
HETATM    6  C7  UNL     1      31.491  31.910  13.225  1.00  0.00     0.044 A 
HETATM    7  N2  UNL     1      32.147  30.763  13.651  1.00  0.00    -0.334 N 
ATOM      8  H2  UNL     1      33.002  30.740  14.208  1.00  0.00     0.168 HD
ENDROOT
BRANCH   5   9
HETATM    9  C3  UNL     1      29.369  32.332  12.006  1.00  0.00     0.035 A 
HETATM   10  C4  UNL     1      29.320  33.376  11.162  1.00  0.00     0.040 A 
HETATM   11  C5  UNL     1      28.078  33.812  10.756  1.00  0.00     0.018 A 
HETATM   12 BR1  UNL     1      27.840  35.331   9.573  1.00  0.00    -0.051 Br
HETATM   13  C6  UNL     1      27.002  33.148  11.246  1.00  0.00     0.069 A 
HETATM   14  S2  UNL     1      27.661  31.964  12.240  1.00  0.00    -0.098 SA
ENDBRANCH   5   9
BRANCH   6  15
HETATM   15  C8  UNL     1      32.106  33.186  13.246  1.00  0.00     0.038 A 
HETATM   16  C9  UNL     1      33.060  33.500  14.412  1.00  0.00     0.011 A 
HETATM   17  C10 UNL     1      31.919  34.455  13.865  1.00  0.00     0.011 A 
ENDBRANCH   6  15
TORSDOF 2
ENDMDL
MODEL 4
REMARK VINA RESULT: -5.858401474      3.545      5.207
REMARK  2 active torsions:
REMARK  status: ('A' for Active; 'I' for Inactive)
REMARK    1  A    between atoms: C2_5  and  C3_6 
REMARK    2  A    between atoms: C7_12  and  C8_13 
ROOT
HETATM    1  S1  UNL     1      32.065  34.297  13.941  1.00  0.00    -0.041 SA
HETATM    2  C1  UNL     1      30.645  34.089  13.179  1.00  0.00     0.176 A 
HETATM    3  N1  UNL     1      30.364  33.004  12.436  1.00  0.00    -0.330 N 
ATOM      4  H1  UNL     1      30.989  32.217  12.263  1.00  0.00     0.168 HD
HETATM    5  C2  UNL     1      29.126  33.137  11.967  1.00  0.00     0.074 A 
HETATM    6  C7  UNL     1      28.570  34.302  12.371  1.00  0.00     0.044 A 
HETATM    7  N2  UNL     1      29.551  34.899  13.152  1.00  0.00    -0.334 N 
ATOM      8  H2  UNL     1      29.466  35.797  13.628  1.00  0.00     0.168 HD
ENDROOT
BRANCH   5   9
HETATM    9  C3  UNL     1      28.385  32.117  11.207  1.00  0.00     0.035 A 
HETATM   10  C4  UNL     1      28.415  31.635   9.953  1.00  0.00     0.040 A 
HETATM   11  C5  UNL     1      27.668  30.508   9.683  1.00  0.00     0.018 A 
HETATM   12 BR1  UNL     1      27.576  29.716   7.915  1.00  0.00    -0.051 Br
HETATM   13  C6  UNL     1      26.961  29.979  10.711  1.00  0.00     0.069 A 
HETATM   14  S2  UNL     1      27.295  30.989  12.011  1.00  0.00    -0.098 SA
ENDBRANCH   5   9
BRANCH   6  15
HETATM   15  C8  UNL     1      27.450  35.019  11.885  1.00  0.00     0.038 A 
HETATM   16  C9  UNL     1      27.652  35.903  10.641  1.00  0.00     0.011 A 
HETATM   17  C10 UNL     1      26.899  36.330  11.968  1.00  0.00     0.011 A 
ENDBRANCH   6  15
TORSDOF 2
ENDMDL
MODEL 5
REMARK VINA RESULT: -5.842953523      4.310      5.714
REMARK  2 active torsions:
REMARK  status: ('A' for Active; 'I' for Inactive)
REMARK    1  A    between atoms: C2_5  and  C3_6 
REMARK    2  A    between atoms: C7_12  and  C8_13 
ROOT
HETATM    1  S1  UNL     1      26.810  26.805  12.629  1.00  0.00    -0.041 SA
HETATM    2  C1  UNL     1      27.183  28.127  11.762  1.00  0.00     0.176 A 
HETATM    3  N1  UNL     1      27.255  29.359  12.298  1.00  0.00    -0.330 N 
ATOM      4  H1  UNL     1      27.081  29.600  13.273  1.00  0.00     0.168 HD
HETATM    5  C2  UNL     1      27.593  30.209  11.331  1.00  0.00     0.074 A 
HETATM    6  C7  UNL     1      27.739  29.572  10.147  1.00  0.00     0.044 A 
HETATM    7  N2  UNL     1      27.480  28.238  10.439  1.00  0.00    -0.334 N 
ATOM      8  H2  UNL     1      27.509  27.468   9.770  1.00  0.00     0.168 HD
ENDROOT
BRANCH   5   9
HETATM    9  C3  UNL     1      27.895  31.638  11.515  1.00  0.00     0.035 A 
HETATM   10  C4  UNL     1      27.185  32.778  11.560  1.00  0.00     0.040 A 
HETATM   11  C5  UNL     1      27.838  33.922  11.962  1.00  0.00     0.018 A 
HETATM   12 BR1  UNL     1      26.962  35.651  12.039  1.00  0.00    -0.051 Br
HETATM   13  C6  UNL     1      29.151  33.802  12.280  1.00  0.00     0.069 A 
HETATM   14  S2  UNL     1      29.492  32.176  12.032  1.00  0.00    -0.098 SA
ENDBRANCH   5   9
BRANCH   6  15
HETATM   15  C8  UNL     1      27.763  30.065   8.820  1.00  0.00     0.038 A 
HETATM   16  C9  UNL     1      26.831  29.399   7.793  1.00  0.00     0.011 A 
HETATM   17  C10 UNL     1      28.361  29.742   7.567  1.00  0.00     0.011 A 
ENDBRANCH   6  15
TORSDOF 2
ENDMDL
