MODEL 1
REMARK VINA RESULT: -6.622550977      0.000      0.000
REMARK  3 active torsions:
REMARK  status: ('A' for Active; 'I' for Inactive)
REMARK    1  A    between atoms: C10_16  and  C11_17 
REMARK    2  A    between atoms: C11_17  and  C12_18 
REMARK    3  A    between atoms: C12_18  and  N3_19 
ROOT
HETATM    1  C1  UNL     1      31.043  34.027  12.237  1.00  0.00     0.015 C 
HETATM    2  C2  UNL     1      30.025  33.071  11.730  1.00  0.00     0.040 C 
HETATM    3  C3  UNL     1      28.634  33.423  12.264  1.00  0.00     0.193 C 
HETATM    4  F1  UNL     1      28.685  34.137  13.420  1.00  0.00    -0.247 F 
HETATM    5  C4  UNL     1      27.945  32.064  12.472  1.00  0.00     0.163 C 
HETATM    6  N1  UNL     1      28.899  31.135  11.943  1.00  0.00    -0.354 N 
HETATM    7  C5  UNL     1      28.712  29.956  11.222  1.00  0.00     0.137 C 
HETATM    8  N2  UNL     1      27.584  29.723  10.651  1.00  0.00    -0.380 N 
ATOM      9  H21 UNL     1      27.448  28.861  10.124  1.00  0.00     0.158 HD
ATOM     10  H22 UNL     1      26.843  30.418  10.740  1.00  0.00     0.158 HD
HETATM   11  S1  UNL     1      30.014  28.738  11.066  1.00  0.00    -0.084 SA
HETATM   12  C6  UNL     1      31.373  29.468  12.063  1.00  0.00     0.018 C 
HETATM   13  C7  UNL     1      32.698  28.961  11.554  1.00  0.00     0.021 C 
HETATM   14  C8  UNL     1      33.303  28.060  12.575  1.00  0.00     0.002 C 
HETATM   15  C9  UNL     1      32.314  27.024  13.077  1.00  0.00     0.005 C 
HETATM   16  C10 UNL     1      31.229  27.685  13.856  1.00  0.00    -0.012 C 
HETATM   17  C13 UNL     1      31.092  29.116  13.488  1.00  0.00     0.025 C 
HETATM   18  C14 UNL     1      31.379  30.963  11.949  1.00  0.00     0.046 C 
HETATM   19  C15 UNL     1      30.164  31.674  12.312  1.00  0.00     0.094 C 
ENDROOT
BRANCH  16  20
HETATM   20  C11 UNL     1      29.916  26.936  13.863  1.00  0.00     0.032 C 
BRANCH  20  21
HETATM   21  C12 UNL     1      29.555  26.422  15.230  1.00  0.00     0.230 C 
BRANCH  21  22
HETATM   22  N3  UNL     1      29.969  27.251  16.317  1.00  0.00    -0.079 N 
ATOM     23  H33 UNL     1      30.987  27.317  16.342  1.00  0.00     0.274 HD
ATOM     24  H32 UNL     1      29.732  28.224  16.127  1.00  0.00     0.274 HD
ATOM     25  H31 UNL     1      29.612  26.974  17.232  1.00  0.00     0.274 HD
ENDBRANCH  21  22
ENDBRANCH  20  21
ENDBRANCH  16  20
TORSDOF 3
ENDMDL
MODEL 2
REMARK VINA RESULT: -6.302444882      2.437      3.548
REMARK  3 active torsions:
REMARK  status: ('A' for Active; 'I' for Inactive)
REMARK    1  A    between atoms: C10_16  and  C11_17 
REMARK    2  A    between atoms: C11_17  and  C12_18 
REMARK    3  A    between atoms: C12_18  and  N3_19 
ROOT
HETATM    1  C1  UNL     1      28.218  32.806  10.928  1.00  0.00     0.015 C 
HETATM    2  C2  UNL     1      29.360  32.856  11.877  1.00  0.00     0.040 C 
HETATM    3  C3  UNL     1      30.326  33.985  11.509  1.00  0.00     0.193 C 
HETATM    4  F1  UNL     1      30.245  34.333  10.198  1.00  0.00    -0.247 F 
HETATM    5  C4  UNL     1      31.718  33.434  11.861  1.00  0.00     0.163 C 
HETATM    6  N1  UNL     1      31.419  32.177  12.481  1.00  0.00    -0.354 N 
HETATM    7  C5  UNL     1      32.027  31.530  13.556  1.00  0.00     0.137 C 
HETATM    8  N2  UNL     1      32.786  32.188  14.357  1.00  0.00    -0.380 N 
ATOM      9  H21 UNL     1      33.230  31.715  15.143  1.00  0.00     0.158 HD
ATOM     10  H22 UNL     1      32.926  33.184  14.185  1.00  0.00     0.158 HD
HETATM   11  S1  UNL     1      31.780  29.784  13.858  1.00  0.00    -0.084 SA
HETATM   12  C6  UNL     1      30.696  29.280  12.463  1.00  0.00     0.018 C 
HETATM   13  C7  UNL     1      29.881  28.078  12.868  1.00  0.00     0.021 C 
HETATM   14  C8  UNL     1      30.340  26.892  12.092  1.00  0.00     0.002 C 
HETATM   15  C9  UNL     1      31.850  26.743  12.120  1.00  0.00     0.005 C 
HETATM   16  C10 UNL     1      32.490  27.863  11.373  1.00  0.00    -0.012 C 
HETATM   17  C13 UNL     1      31.594  29.043  11.291  1.00  0.00     0.025 C 
HETATM   18  C14 UNL     1      29.744  30.380  12.099  1.00  0.00     0.046 C 
HETATM   19  C15 UNL     1      30.307  31.673  11.748  1.00  0.00     0.094 C 
ENDROOT
BRANCH  16  20
HETATM   20  C11 UNL     1      33.891  28.200  11.829  1.00  0.00     0.032 C 
BRANCH  20  21
HETATM   21  C12 UNL     1      34.222  27.594  13.165  1.00  0.00     0.230 C 
BRANCH  21  22
HETATM   22  N3  UNL     1      35.152  28.337  13.953  1.00  0.00    -0.079 N 
ATOM     23  H33 UNL     1      35.232  29.290  13.598  1.00  0.00     0.274 HD
ATOM     24  H32 UNL     1      34.761  28.522  14.877  1.00  0.00     0.274 HD
ATOM     25  H31 UNL     1      36.078  27.916  14.041  1.00  0.00     0.274 HD
ENDBRANCH  21  22
ENDBRANCH  20  21
ENDBRANCH  16  20
TORSDOF 3
ENDMDL
MODEL 3
REMARK VINA RESULT: -6.185544105      2.745      3.438
REMARK  3 active torsions:
REMARK  status: ('A' for Active; 'I' for Inactive)
REMARK    1  A    between atoms: C10_16  and  C11_17 
REMARK    2  A    between atoms: C11_17  and  C12_18 
REMARK    3  A    between atoms: C12_18  and  N3_19 
ROOT
HETATM    1  C1  UNL     1      28.603  29.078   8.056  1.00  0.00     0.015 C 
HETATM    2  C2  UNL     1      27.877  28.902   9.341  1.00  0.00     0.040 C 
HETATM    3  C3  UNL     1      27.269  30.228   9.809  1.00  0.00     0.193 C 
HETATM    4  F1  UNL     1      27.913  31.307   9.292  1.00  0.00    -0.247 F 
HETATM    5  C4  UNL     1      27.382  30.185  11.342  1.00  0.00     0.163 C 
HETATM    6  N1  UNL     1      27.888  28.867  11.591  1.00  0.00    -0.354 N 
HETATM    7  C5  UNL     1      27.605  27.968  12.619  1.00  0.00     0.137 C 
HETATM    8  N2  UNL     1      26.550  28.123  13.337  1.00  0.00    -0.380 N 
ATOM      9  H21 UNL     1      26.343  27.465  14.088  1.00  0.00     0.158 HD
ATOM     10  H22 UNL     1      25.936  28.911  13.133  1.00  0.00     0.158 HD
HETATM   11  S1  UNL     1      28.683  26.585  12.974  1.00  0.00    -0.084 SA
HETATM   12  C6  UNL     1      30.041  26.805  11.757  1.00  0.00     0.018 C 
HETATM   13  C7  UNL     1      30.671  25.469  11.458  1.00  0.00     0.021 C 
HETATM   14  C8  UNL     1      32.050  25.441  12.021  1.00  0.00     0.002 C 
HETATM   15  C9  UNL     1      32.086  25.916  13.462  1.00  0.00     0.005 C 
HETATM   16  C10 UNL     1      31.756  27.367  13.535  1.00  0.00    -0.012 C 
HETATM   17  C13 UNL     1      30.982  27.806  12.347  1.00  0.00     0.025 C 
HETATM   18  C14 UNL     1      29.520  27.366  10.467  1.00  0.00     0.046 C 
HETATM   19  C15 UNL     1      28.795  28.625  10.522  1.00  0.00     0.094 C 
ENDROOT
BRANCH  16  20
HETATM   20  C11 UNL     1      31.148  27.807  14.847  1.00  0.00     0.032 C 
BRANCH  20  21
HETATM   21  C12 UNL     1      30.865  26.650  15.765  1.00  0.00     0.230 C 
BRANCH  21  22
HETATM   22  N3  UNL     1      30.027  26.954  16.881  1.00  0.00    -0.079 N 
ATOM     23  H33 UNL     1      29.547  26.112  17.199  1.00  0.00     0.274 HD
ATOM     24  H32 UNL     1      30.596  27.156  17.703  1.00  0.00     0.274 HD
ATOM     25  H31 UNL     1      29.355  27.705  16.725  1.00  0.00     0.274 HD
ENDBRANCH  21  22
ENDBRANCH  20  21
ENDBRANCH  16  20
TORSDOF 3
ENDMDL
MODEL 4
REMARK VINA RESULT: -6.143769515      1.314      1.529
REMARK  3 active torsions:
REMARK  status: ('A' for Active; 'I' for Inactive)
REMARK    1  A    between atoms: C10_16  and  C11_17 
REMARK    2  A    between atoms: C11_17  and  C12_18 
REMARK    3  A    between atoms: C12_18  and  N3_19 
ROOT
HETATM    1  C1  UNL     1      29.773  32.838  11.830  1.00  0.00     0.015 C 
HETATM    2  C2  UNL     1      29.192  31.551  11.366  1.00  0.00     0.040 C 
HETATM    3  C3  UNL     1      27.691  31.493  11.661  1.00  0.00     0.193 C 
HETATM    4  F1  UNL     1      27.328  32.316  12.681  1.00  0.00    -0.247 F 
HETATM    5  C4  UNL     1      27.420  30.019  12.003  1.00  0.00     0.163 C 
HETATM    6  N1  UNL     1      28.686  29.393  11.756  1.00  0.00    -0.354 N 
HETATM    7  C5  UNL     1      28.988  28.141  11.221  1.00  0.00     0.137 C 
HETATM    8  N2  UNL     1      28.097  27.490  10.563  1.00  0.00    -0.380 N 
ATOM      9  H21 UNL     1      28.318  26.575  10.172  1.00  0.00     0.158 HD
ATOM     10  H22 UNL     1      27.176  27.913  10.444  1.00  0.00     0.158 HD
HETATM   11  S1  UNL     1      30.604  27.401  11.428  1.00  0.00    -0.084 SA
HETATM   12  C6  UNL     1      31.491  28.643  12.450  1.00  0.00     0.018 C 
HETATM   13  C7  UNL     1      32.973  28.537  12.198  1.00  0.00     0.021 C 
HETATM   14  C8  UNL     1      33.641  28.006  13.420  1.00  0.00     0.002 C 
HETATM   15  C9  UNL     1      32.942  26.773  13.960  1.00  0.00     0.005 C 
HETATM   16  C10 UNL     1      31.593  27.133  14.481  1.00  0.00    -0.012 C 
HETATM   17  C13 UNL     1      31.093  28.390  13.869  1.00  0.00     0.025 C 
HETATM   18  C14 UNL     1      31.063  30.036  12.094  1.00  0.00     0.046 C 
HETATM   19  C15 UNL     1      29.647  30.352  12.183  1.00  0.00     0.094 C 
ENDROOT
BRANCH  16  20
HETATM   20  C11 UNL     1      30.587  26.006  14.451  1.00  0.00     0.032 C 
BRANCH  20  21
HETATM   21  C12 UNL     1      29.199  26.465  14.807  1.00  0.00     0.230 C 
BRANCH  21  22
HETATM   22  N3  UNL     1      29.037  26.913  16.153  1.00  0.00    -0.079 N 
ATOM     23  H33 UNL     1      29.728  27.631  16.371  1.00  0.00     0.274 HD
ATOM     24  H32 UNL     1      28.179  27.458  16.241  1.00  0.00     0.274 HD
ATOM     25  H31 UNL     1      29.060  26.177  16.860  1.00  0.00     0.274 HD
ENDBRANCH  21  22
ENDBRANCH  20  21
ENDBRANCH  16  20
TORSDOF 3
ENDMDL
MODEL 5
REMARK VINA RESULT: -6.142664582      1.436      1.524
REMARK  3 active torsions:
REMARK  status: ('A' for Active; 'I' for Inactive)
REMARK    1  A    between atoms: C10_16  and  C11_17 
REMARK    2  A    between atoms: C11_17  and  C12_18 
REMARK    3  A    between atoms: C12_18  and  N3_19 
ROOT
HETATM    1  C1  UNL     1      30.587  33.363  12.499  1.00  0.00     0.015 C 
HETATM    2  C2  UNL     1      29.559  32.587  11.756  1.00  0.00     0.040 C 
HETATM    3  C3  UNL     1      28.148  33.013  12.174  1.00  0.00     0.193 C 
HETATM    4  F1  UNL     1      28.118  33.570  13.414  1.00  0.00    -0.247 F 
HETATM    5  C4  UNL     1      27.321  31.718  12.119  1.00  0.00     0.163 C 
HETATM    6  N1  UNL     1      28.248  30.767  11.580  1.00  0.00    -0.354 N 
HETATM    7  C5  UNL     1      28.049  29.711  10.691  1.00  0.00     0.137 C 
HETATM    8  N2  UNL     1      26.985  29.668   9.971  1.00  0.00    -0.380 N 
ATOM      9  H21 UNL     1      26.839  28.897   9.321  1.00  0.00     0.158 HD
ATOM     10  H22 UNL     1      26.302  30.420  10.069  1.00  0.00     0.158 HD
HETATM   11  S1  UNL     1      29.247  28.393  10.519  1.00  0.00    -0.084 SA
HETATM   12  C6  UNL     1      30.531  28.849  11.750  1.00  0.00     0.018 C 
HETATM   13  C7  UNL     1      31.859  28.274  11.330  1.00  0.00     0.021 C 
HETATM   14  C8  UNL     1      32.250  27.197  12.282  1.00  0.00     0.002 C 
HETATM   15  C9  UNL     1      31.118  26.216  12.526  1.00  0.00     0.005 C 
HETATM   16  C10 UNL     1      30.007  26.884  13.261  1.00  0.00    -0.012 C 
HETATM   17  C13 UNL     1      30.044  28.357  13.076  1.00  0.00     0.025 C 
HETATM   18  C14 UNL     1      30.683  30.339  11.841  1.00  0.00     0.046 C 
HETATM   19  C15 UNL     1      29.500  31.122  12.157  1.00  0.00     0.094 C 
ENDROOT
BRANCH  16  20
HETATM   20  C11 UNL     1      28.643  26.281  13.020  1.00  0.00     0.032 C 
BRANCH  20  21
HETATM   21  C12 UNL     1      27.615  26.775  14.001  1.00  0.00     0.230 C 
BRANCH  21  22
HETATM   22  N3  UNL     1      26.642  27.669  13.459  1.00  0.00    -0.079 N 
ATOM     23  H33 UNL     1      27.103  28.463  13.014  1.00  0.00     0.274 HD
ATOM     24  H32 UNL     1      26.191  27.248  12.648  1.00  0.00     0.274 HD
ATOM     25  H31 UNL     1      25.940  27.997  14.123  1.00  0.00     0.274 HD
ENDBRANCH  21  22
ENDBRANCH  20  21
ENDBRANCH  16  20
TORSDOF 3
ENDMDL
