MODEL 1
REMARK VINA RESULT: -8.200197198      0.000      0.000
REMARK  2 active torsions:
REMARK  status: ('A' for Active; 'I' for Inactive)
REMARK    1  A    between atoms: C3_3  and  C4_4 
REMARK    2  A    between atoms: C9_9  and  C10_10 
ROOT
HETATM    1  C10 UNL     1      27.523  30.017  10.178  1.00  0.00     0.210 C 
HETATM    2  C11 UNL     1      27.734  28.498  10.149  1.00  0.00     0.044 C 
HETATM    3  C12 UNL     1      28.509  28.059   8.941  1.00  0.00     0.044 C 
HETATM    4  C13 UNL     1      27.938  28.610   7.654  1.00  0.00     0.099 C 
HETATM    5  C14 UNL     1      27.242  27.535   6.863  1.00  0.00     0.069 C 
HETATM    6  C15 UNL     1      26.817  28.026   5.514  1.00  0.00     0.235 C 
HETATM    7  N1  UNL     1      27.873  28.720   4.812  1.00  0.00    -0.075 N 
ATOM      8  H11 UNL     1      27.618  28.962   3.855  1.00  0.00     0.277 HD
ATOM      9  H12 UNL     1      28.666  28.115   4.594  1.00  0.00     0.277 HD
HETATM   10  C16 UNL     1      28.249  29.866   5.595  1.00  0.00     0.235 C 
HETATM   11  C17 UNL     1      28.967  29.346   6.824  1.00  0.00     0.069 C 
HETATM   12  O1  UNL     1      27.015  29.597   8.044  1.00  0.00    -0.229 OA
HETATM   13  O2  UNL     1      27.683  30.416   8.848  1.00  0.00    -0.229 OA
ENDROOT
BRANCH   1  14
HETATM   14  C9  UNL     1      28.524  30.664  11.045  1.00  0.00     0.048 A 
HETATM   15  C3  UNL     1      28.747  32.029  11.199  1.00  0.00    -0.027 A 
HETATM   16  C2  UNL     1      29.807  32.167  12.101  1.00  0.00     0.026 A 
HETATM   17  C1  UNL     1      30.200  30.916  12.469  1.00  0.00     0.089 A 
HETATM   18  N2  UNL     1      29.406  30.016  11.815  1.00  0.00    -0.367 N 
ATOM     19  H2  UNL     1      29.475  29.002  11.902  1.00  0.00     0.165 HD
BRANCH  15  20
HETATM   20  C4  UNL     1      28.028  33.155  10.637  1.00  0.00     0.021 C 
HETATM   21  C5  UNL     1      27.574  34.045  11.788  1.00  0.00     0.009 C 
HETATM   22  C6  UNL     1      27.540  35.451  11.245  1.00  0.00     0.001 C 
HETATM   23  C7  UNL     1      27.787  35.299   9.768  1.00  0.00     0.001 C 
HETATM   24  C8  UNL     1      28.749  34.095   9.763  1.00  0.00     0.009 C 
ENDBRANCH  15  20
ENDBRANCH   1  14
TORSDOF 2
ENDMDL
MODEL 2
REMARK VINA RESULT: -7.707342910      2.455      6.481
REMARK  2 active torsions:
REMARK  status: ('A' for Active; 'I' for Inactive)
REMARK    1  A    between atoms: C3_3  and  C4_4 
REMARK    2  A    between atoms: C9_9  and  C10_10 
ROOT
HETATM    1  C10 UNL     1      27.608  31.587  11.076  1.00  0.00     0.210 C 
HETATM    2  C11 UNL     1      27.969  32.438   9.851  1.00  0.00     0.044 C 
HETATM    3  C12 UNL     1      28.761  33.657  10.226  1.00  0.00     0.044 C 
HETATM    4  C13 UNL     1      28.113  34.450  11.337  1.00  0.00     0.099 C 
HETATM    5  C14 UNL     1      27.513  35.729  10.815  1.00  0.00     0.069 C 
HETATM    6  C15 UNL     1      27.015  36.602  11.925  1.00  0.00     0.235 C 
HETATM    7  N1  UNL     1      27.983  36.765  12.986  1.00  0.00    -0.075 N 
ATOM      8  H11 UNL     1      27.686  37.440  13.690  1.00  0.00     0.277 HD
ATOM      9  H12 UNL     1      28.828  37.248  12.680  1.00  0.00     0.277 HD
HETATM   10  C16 UNL     1      28.257  35.467  13.542  1.00  0.00     0.235 C 
HETATM   11  C17 UNL     1      29.047  34.699  12.501  1.00  0.00     0.069 C 
HETATM   12  O1  UNL     1      27.104  33.619  11.854  1.00  0.00    -0.229 OA
HETATM   13  O2  UNL     1      27.701  32.472  12.154  1.00  0.00    -0.229 OA
ENDROOT
BRANCH   1  14
HETATM   14  C9  UNL     1      28.556  30.469  11.229  1.00  0.00     0.048 A 
HETATM   15  C3  UNL     1      28.656  29.335  10.428  1.00  0.00    -0.027 A 
HETATM   16  C2  UNL     1      29.677  28.546  10.969  1.00  0.00     0.026 A 
HETATM   17  C1  UNL     1      30.166  29.197  12.060  1.00  0.00     0.089 A 
HETATM   18  N2  UNL     1      29.471  30.365  12.200  1.00  0.00    -0.367 N 
ATOM     19  H2  UNL     1      29.626  31.055  12.936  1.00  0.00     0.165 HD
BRANCH  15  20
HETATM   20  C4  UNL     1      27.940  28.991   9.216  1.00  0.00     0.021 C 
HETATM   21  C5  UNL     1      28.652  29.658   8.044  1.00  0.00     0.009 C 
HETATM   22  C6  UNL     1      28.430  28.762   6.851  1.00  0.00     0.001 C 
HETATM   23  C7  UNL     1      27.451  27.723   7.328  1.00  0.00     0.001 C 
HETATM   24  C8  UNL     1      27.882  27.579   8.801  1.00  0.00     0.009 C 
ENDBRANCH  15  20
ENDBRANCH   1  14
TORSDOF 2
ENDMDL
MODEL 3
REMARK VINA RESULT: -7.613465231      2.885      6.679
REMARK  2 active torsions:
REMARK  status: ('A' for Active; 'I' for Inactive)
REMARK    1  A    between atoms: C3_3  and  C4_4 
REMARK    2  A    between atoms: C9_9  and  C10_10 
ROOT
HETATM    1  C10 UNL     1      28.628  30.988  12.039  1.00  0.00     0.210 C 
HETATM    2  C11 UNL     1      27.264  31.679  12.166  1.00  0.00     0.044 C 
HETATM    3  C12 UNL     1      27.215  32.973  11.407  1.00  0.00     0.044 C 
HETATM    4  C13 UNL     1      28.379  33.880  11.733  1.00  0.00     0.099 C 
HETATM    5  C14 UNL     1      27.941  35.046  12.578  1.00  0.00     0.069 C 
HETATM    6  C15 UNL     1      29.045  36.039  12.769  1.00  0.00     0.235 C 
HETATM    7  N1  UNL     1      29.703  36.390  11.531  1.00  0.00    -0.075 N 
ATOM      8  H11 UNL     1      30.383  37.141  11.645  1.00  0.00     0.277 HD
ATOM      9  H12 UNL     1      29.083  36.866  10.875  1.00  0.00     0.277 HD
HETATM   10  C16 UNL     1      30.282  35.195  10.980  1.00  0.00     0.235 C 
HETATM   11  C17 UNL     1      29.135  34.329  10.501  1.00  0.00     0.069 C 
HETATM   12  O1  UNL     1      29.291  33.082  12.445  1.00  0.00    -0.229 OA
HETATM   13  O2  UNL     1      29.507  32.016  11.684  1.00  0.00    -0.229 OA
ENDROOT
BRANCH   1  14
HETATM   14  C9  UNL     1      28.588  29.947  10.998  1.00  0.00     0.048 A 
HETATM   15  C3  UNL     1      29.486  28.898  10.822  1.00  0.00    -0.027 A 
HETATM   16  C2  UNL     1      29.060  28.185   9.696  1.00  0.00     0.026 A 
HETATM   17  C1  UNL     1      27.941  28.797   9.220  1.00  0.00     0.089 A 
HETATM   18  N2  UNL     1      27.671  29.866  10.027  1.00  0.00    -0.367 N 
ATOM     19  H2  UNL     1      26.886  30.507   9.907  1.00  0.00     0.165 HD
BRANCH  15  20
HETATM   20  C4  UNL     1      30.619  28.502  11.634  1.00  0.00     0.021 C 
HETATM   21  C5  UNL     1      30.755  26.986  11.546  1.00  0.00     0.009 C 
HETATM   22  C6  UNL     1      32.224  26.685  11.704  1.00  0.00     0.001 C 
HETATM   23  C7  UNL     1      32.850  28.005  12.066  1.00  0.00     0.001 C 
HETATM   24  C8  UNL     1      31.963  28.972  11.257  1.00  0.00     0.009 C 
ENDBRANCH  15  20
ENDBRANCH   1  14
TORSDOF 2
ENDMDL
MODEL 4
REMARK VINA RESULT: -7.593076535      3.783      6.843
REMARK  2 active torsions:
REMARK  status: ('A' for Active; 'I' for Inactive)
REMARK    1  A    between atoms: C3_3  and  C4_4 
REMARK    2  A    between atoms: C9_9  and  C10_10 
ROOT
HETATM    1  C10 UNL     1      31.418  32.092  11.982  1.00  0.00     0.210 C 
HETATM    2  C11 UNL     1      32.048  33.341  12.613  1.00  0.00     0.044 C 
HETATM    3  C12 UNL     1      31.031  34.189  13.319  1.00  0.00     0.044 C 
HETATM    4  C13 UNL     1      29.830  34.495  12.453  1.00  0.00     0.099 C 
HETATM    5  C14 UNL     1      29.838  35.931  11.999  1.00  0.00     0.069 C 
HETATM    6  C15 UNL     1      28.575  36.293  11.281  1.00  0.00     0.235 C 
HETATM    7  N1  UNL     1      27.388  35.881  11.995  1.00  0.00    -0.075 N 
ATOM      8  H11 UNL     1      26.529  36.218  11.560  1.00  0.00     0.277 HD
ATOM      9  H12 UNL     1      27.282  36.355  12.893  1.00  0.00     0.277 HD
HETATM   10  C16 UNL     1      27.421  34.449  12.124  1.00  0.00     0.235 C 
HETATM   11  C17 UNL     1      28.521  34.120  13.113  1.00  0.00     0.069 C 
HETATM   12  O1  UNL     1      29.936  33.637  11.345  1.00  0.00    -0.229 OA
HETATM   13  O2  UNL     1      30.065  32.415  11.848  1.00  0.00    -0.229 OA
ENDROOT
BRANCH   1  14
HETATM   14  C9  UNL     1      31.595  30.921  12.859  1.00  0.00     0.048 A 
HETATM   15  C3  UNL     1      31.088  29.639  12.664  1.00  0.00    -0.027 A 
HETATM   16  C2  UNL     1      31.492  28.872  13.761  1.00  0.00     0.026 A 
HETATM   17  C1  UNL     1      32.219  29.680  14.583  1.00  0.00     0.089 A 
HETATM   18  N2  UNL     1      32.270  30.922  14.014  1.00  0.00    -0.367 N 
ATOM     19  H2  UNL     1      32.750  31.729  14.412  1.00  0.00     0.165 HD
BRANCH  15  20
HETATM   20  C4  UNL     1      30.344  29.097  11.544  1.00  0.00     0.021 C 
HETATM   21  C5  UNL     1      30.611  27.598  11.483  1.00  0.00     0.009 C 
HETATM   22  C6  UNL     1      29.367  26.972  10.903  1.00  0.00     0.001 C 
HETATM   23  C7  UNL     1      28.514  28.136  10.478  1.00  0.00     0.001 C 
HETATM   24  C8  UNL     1      28.874  29.167  11.567  1.00  0.00     0.009 C 
ENDBRANCH  15  20
ENDBRANCH   1  14
TORSDOF 2
ENDMDL
MODEL 5
REMARK VINA RESULT: -7.484361471      4.019      6.057
REMARK  2 active torsions:
REMARK  status: ('A' for Active; 'I' for Inactive)
REMARK    1  A    between atoms: C3_3  and  C4_4 
REMARK    2  A    between atoms: C9_9  and  C10_10 
ROOT
HETATM    1  C10 UNL     1      30.470  29.937  11.574  1.00  0.00     0.210 C 
HETATM    2  C11 UNL     1      30.263  28.419  11.652  1.00  0.00     0.044 C 
HETATM    3  C12 UNL     1      30.639  27.866  12.995  1.00  0.00     0.044 C 
HETATM    4  C13 UNL     1      32.016  28.307  13.439  1.00  0.00     0.099 C 
HETATM    5  C14 UNL     1      33.003  27.173  13.357  1.00  0.00     0.069 C 
HETATM    6  C15 UNL     1      34.327  27.547  13.948  1.00  0.00     0.235 C 
HETATM    7  N1  UNL     1      34.205  28.164  15.249  1.00  0.00    -0.075 N 
ATOM      8  H11 UNL     1      35.108  28.323  15.696  1.00  0.00     0.277 HD
ATOM      9  H12 UNL     1      33.815  27.534  15.950  1.00  0.00     0.277 HD
HETATM   10  C16 UNL     1      33.439  29.371  15.099  1.00  0.00     0.235 C 
HETATM   11  C17 UNL     1      32.011  28.954  14.806  1.00  0.00     0.069 C 
HETATM   12  O1  UNL     1      32.385  29.335  12.553  1.00  0.00    -0.229 OA
HETATM   13  O2  UNL     1      31.392  30.214  12.588  1.00  0.00    -0.229 OA
ENDROOT
BRANCH   1  14
HETATM   14  C9  UNL     1      29.200  30.647  11.809  1.00  0.00     0.048 A 
HETATM   15  C3  UNL     1      29.009  32.024  11.894  1.00  0.00    -0.027 A 
HETATM   16  C2  UNL     1      27.649  32.229  12.149  1.00  0.00     0.026 A 
HETATM   17  C1  UNL     1      27.054  31.006  12.213  1.00  0.00     0.089 A 
HETATM   18  N2  UNL     1      28.015  30.058  12.003  1.00  0.00    -0.367 N 
ATOM     19  H2  UNL     1      27.853  29.050  11.995  1.00  0.00     0.165 HD
BRANCH  15  20
HETATM   20  C4  UNL     1      29.955  33.104  11.697  1.00  0.00     0.021 C 
HETATM   21  C5  UNL     1      29.431  33.989  10.572  1.00  0.00     0.009 C 
HETATM   22  C6  UNL     1      29.922  35.383  10.869  1.00  0.00     0.001 C 
HETATM   23  C7  UNL     1      30.859  35.220  12.035  1.00  0.00     0.001 C 
HETATM   24  C8  UNL     1      30.175  34.065  12.791  1.00  0.00     0.009 C 
ENDBRANCH  15  20
ENDBRANCH   1  14
TORSDOF 2
ENDMDL
