MODEL 1
REMARK VINA RESULT: -8.100907243      0.000      0.000
REMARK  4 active torsions:
REMARK  status: ('A' for Active; 'I' for Inactive)
REMARK    1  A    between atoms: C5_6  and  N1_7 
REMARK    2  A    between atoms: C6_8  and  O1_9 
REMARK    3  A    between atoms: C8_12  and  C9_13 
REMARK    4  A    between atoms: C14_18  and  O2_19 
ROOT
HETATM    1  C1  UNL     1      30.659  26.057  15.283  1.00  0.00     0.100 C 
HETATM    2  C2  UNL     1      31.420  26.848  14.734  1.00  0.00    -0.144 C 
HETATM    3  C3  UNL     1      32.325  27.781  14.075  1.00  0.00     0.160 C 
HETATM    4  F1  UNL     1      33.346  28.053  14.994  1.00  0.00    -0.229 F 
HETATM    5  C4  UNL     1      31.613  29.091  13.863  1.00  0.00     0.082 C 
HETATM    6  C5  UNL     1      31.164  29.289  12.465  1.00  0.00     0.098 C 
HETATM    7  C15 UNL     1      32.389  29.204  11.572  1.00  0.00     0.031 C 
HETATM    8  C16 UNL     1      32.957  27.828  11.610  1.00  0.00    -0.004 A 
HETATM    9  C17 UNL     1      32.132  26.608  11.739  1.00  0.00     0.014 A 
HETATM   10  C18 UNL     1      32.919  27.144  12.900  1.00  0.00     0.042 A 
ENDROOT
BRANCH   6  11
HETATM   11  N1  UNL     1      30.499  30.556  12.294  1.00  0.00    -0.303 N 
HETATM   12  C6  UNL     1      29.230  30.671  11.802  1.00  0.00     0.145 A 
HETATM   13  C7  UNL     1      28.919  32.023  11.668  1.00  0.00     0.068 A 
HETATM   14  C8  UNL     1      29.994  32.748  12.084  1.00  0.00     0.001 A 
HETATM   15  C14 UNL     1      30.952  31.822  12.465  1.00  0.00     0.151 A 
BRANCH  12  16
HETATM   16  O1  UNL     1      28.336  29.658  11.473  1.00  0.00    -0.346 OA
ATOM     17  H1  UNL     1      27.412  29.594  11.685  1.00  0.00     0.219 HD
ENDBRANCH  12  16
BRANCH  14  18
HETATM   18  C9  UNL     1      30.140  34.199  12.275  1.00  0.00     0.023 C 
HETATM   19  C10 UNL     1      29.699  35.002  11.020  1.00  0.00     0.009 C 
HETATM   20  C11 UNL     1      29.739  36.398  11.684  1.00  0.00     0.001 C 
HETATM   21  C12 UNL     1      28.733  36.123  12.817  1.00  0.00     0.001 C 
HETATM   22  C13 UNL     1      28.904  34.660  13.145  1.00  0.00     0.009 C 
ENDBRANCH  14  18
BRANCH  15  23
HETATM   23  O2  UNL     1      32.191  32.147  12.946  1.00  0.00    -0.345 OA
ATOM     24  H2  UNL     1      32.711  32.883  12.645  1.00  0.00     0.219 HD
ENDBRANCH  15  23
ENDBRANCH   6  11
TORSDOF 4
ENDMDL
MODEL 2
REMARK VINA RESULT: -7.983496551     10.433     11.658
REMARK  4 active torsions:
REMARK  status: ('A' for Active; 'I' for Inactive)
REMARK    1  A    between atoms: C5_6  and  N1_7 
REMARK    2  A    between atoms: C6_8  and  O1_9 
REMARK    3  A    between atoms: C8_12  and  C9_13 
REMARK    4  A    between atoms: C14_18  and  O2_19 
ROOT
HETATM    1  C1  UNL     1      33.412  34.422  16.136  1.00  0.00     0.100 C 
HETATM    2  C2  UNL     1      34.386  34.377  16.880  1.00  0.00    -0.144 C 
HETATM    3  C3  UNL     1      35.549  34.326  17.757  1.00  0.00     0.160 C 
HETATM    4  F1  UNL     1      35.601  33.022  18.265  1.00  0.00    -0.229 F 
HETATM    5  C4  UNL     1      35.307  35.214  18.948  1.00  0.00     0.082 C 
HETATM    6  C5  UNL     1      36.027  36.507  18.865  1.00  0.00     0.098 C 
HETATM    7  C15 UNL     1      37.508  36.199  18.729  1.00  0.00     0.031 C 
HETATM    8  C16 UNL     1      37.774  35.520  17.431  1.00  0.00    -0.004 A 
HETATM    9  C17 UNL     1      37.030  35.816  16.188  1.00  0.00     0.014 A 
HETATM   10  C18 UNL     1      36.764  34.566  16.978  1.00  0.00     0.042 A 
ENDROOT
BRANCH   6  11
HETATM   11  N1  UNL     1      35.785  37.326  20.026  1.00  0.00    -0.303 N 
HETATM   12  C6  UNL     1      35.100  38.507  19.974  1.00  0.00     0.145 A 
HETATM   13  C7  UNL     1      35.125  39.099  21.236  1.00  0.00     0.068 A 
HETATM   14  C8  UNL     1      35.821  38.280  22.074  1.00  0.00     0.001 A 
HETATM   15  C14 UNL     1      36.215  37.197  21.305  1.00  0.00     0.151 A 
BRANCH  12  16
HETATM   16  O1  UNL     1      34.453  39.083  18.887  1.00  0.00    -0.346 OA
ATOM     17  H1  UNL     1      34.348  38.734  18.009  1.00  0.00     0.219 HD
ENDBRANCH  12  16
BRANCH  14  18
HETATM   18  C9  UNL     1      36.024  38.367  23.527  1.00  0.00     0.023 C 
HETATM   19  C10 UNL     1      35.427  39.670  24.125  1.00  0.00     0.009 C 
HETATM   20  C11 UNL     1      35.591  39.272  25.611  1.00  0.00     0.001 C 
HETATM   21  C12 UNL     1      34.750  37.982  25.578  1.00  0.00     0.001 C 
HETATM   22  C13 UNL     1      34.933  37.431  24.186  1.00  0.00     0.009 C 
ENDBRANCH  14  18
BRANCH  15  23
HETATM   23  O2  UNL     1      36.945  36.141  21.778  1.00  0.00    -0.345 OA
ATOM     24  H2  UNL     1      37.882  36.037  21.660  1.00  0.00     0.219 HD
ENDBRANCH  15  23
ENDBRANCH   6  11
TORSDOF 4
ENDMDL
MODEL 3
REMARK VINA RESULT: -7.917014122      1.178      2.247
REMARK  4 active torsions:
REMARK  status: ('A' for Active; 'I' for Inactive)
REMARK    1  A    between atoms: C5_6  and  N1_7 
REMARK    2  A    between atoms: C6_8  and  O1_9 
REMARK    3  A    between atoms: C8_12  and  C9_13 
REMARK    4  A    between atoms: C14_18  and  O2_19 
ROOT
HETATM    1  C1  UNL     1      31.008  27.143  15.475  1.00  0.00     0.100 C 
HETATM    2  C2  UNL     1      31.727  27.844  14.770  1.00  0.00    -0.144 C 
HETATM    3  C3  UNL     1      32.582  28.669  13.924  1.00  0.00     0.160 C 
HETATM    4  F1  UNL     1      33.781  28.842  14.628  1.00  0.00    -0.229 F 
HETATM    5  C4  UNL     1      31.980  30.045  13.810  1.00  0.00     0.082 C 
HETATM    6  C5  UNL     1      31.297  30.274  12.515  1.00  0.00     0.098 C 
HETATM    7  C15 UNL     1      32.316  30.051  11.412  1.00  0.00     0.031 C 
HETATM    8  C16 UNL     1      32.738  28.623  11.384  1.00  0.00    -0.004 A 
HETATM    9  C17 UNL     1      31.832  27.499  11.702  1.00  0.00     0.014 A 
HETATM   10  C18 UNL     1      32.875  27.961  12.680  1.00  0.00     0.042 A 
ENDROOT
BRANCH   6  11
HETATM   11  N1  UNL     1      30.744  31.602  12.433  1.00  0.00    -0.303 N 
HETATM   12  C6  UNL     1      31.453  32.725  12.753  1.00  0.00     0.145 A 
HETATM   13  C7  UNL     1      30.610  33.832  12.663  1.00  0.00     0.068 A 
HETATM   14  C8  UNL     1      29.378  33.395  12.279  1.00  0.00     0.001 A 
HETATM   15  C14 UNL     1      29.488  32.021  12.143  1.00  0.00     0.151 A 
BRANCH  12  16
HETATM   16  O1  UNL     1      32.792  32.829  13.111  1.00  0.00    -0.346 OA
ATOM     17  H1  UNL     1      33.255  32.374  13.805  1.00  0.00     0.219 HD
ENDBRANCH  12  16
BRANCH  14  18
HETATM   18  C9  UNL     1      28.177  34.159  11.910  1.00  0.00     0.023 C 
HETATM   19  C10 UNL     1      27.907  35.335  12.888  1.00  0.00     0.009 C 
HETATM   20  C11 UNL     1      26.797  36.009  12.048  1.00  0.00     0.001 C 
HETATM   21  C12 UNL     1      27.616  36.245  10.765  1.00  0.00     0.001 C 
HETATM   22  C13 UNL     1      28.599  35.101  10.713  1.00  0.00     0.009 C 
ENDBRANCH  14  18
BRANCH  15  23
HETATM   23  O2  UNL     1      28.460  31.198  11.770  1.00  0.00    -0.345 OA
ATOM     24  H2  UNL     1      27.546  31.457  11.738  1.00  0.00     0.219 HD
ENDBRANCH  15  23
ENDBRANCH   6  11
TORSDOF 4
ENDMDL
MODEL 4
REMARK VINA RESULT: -7.658872763      1.563      2.819
REMARK  4 active torsions:
REMARK  status: ('A' for Active; 'I' for Inactive)
REMARK    1  A    between atoms: C5_6  and  N1_7 
REMARK    2  A    between atoms: C6_8  and  O1_9 
REMARK    3  A    between atoms: C8_12  and  C9_13 
REMARK    4  A    between atoms: C14_18  and  O2_19 
ROOT
HETATM    1  C1  UNL     1      34.858  27.855  13.971  1.00  0.00     0.100 C 
HETATM    2  C2  UNL     1      33.943  27.886  13.155  1.00  0.00    -0.144 C 
HETATM    3  C3  UNL     1      32.849  27.916  12.192  1.00  0.00     0.160 C 
HETATM    4  F1  UNL     1      33.405  27.558  10.956  1.00  0.00    -0.229 F 
HETATM    5  C4  UNL     1      32.377  29.336  12.026  1.00  0.00     0.082 C 
HETATM    6  C5  UNL     1      31.111  29.615  12.744  1.00  0.00     0.098 C 
HETATM    7  C15 UNL     1      30.064  28.647  12.223  1.00  0.00     0.031 C 
HETATM    8  C16 UNL     1      30.425  27.251  12.595  1.00  0.00    -0.004 A 
HETATM    9  C17 UNL     1      31.104  26.893  13.859  1.00  0.00     0.014 A 
HETATM   10  C18 UNL     1      31.847  26.914  12.553  1.00  0.00     0.042 A 
ENDROOT
BRANCH   6  11
HETATM   11  N1  UNL     1      30.681  30.977  12.555  1.00  0.00    -0.303 N 
HETATM   12  C6  UNL     1      31.345  32.048  13.081  1.00  0.00     0.145 A 
HETATM   13  C7  UNL     1      30.623  33.208  12.801  1.00  0.00     0.068 A 
HETATM   14  C8  UNL     1      29.513  32.856  12.094  1.00  0.00     0.001 A 
HETATM   15  C14 UNL     1      29.574  31.479  11.955  1.00  0.00     0.151 A 
BRANCH  12  16
HETATM   16  O1  UNL     1      32.545  32.061  13.783  1.00  0.00    -0.346 OA
ATOM     17  H1  UNL     1      33.425  32.184  13.446  1.00  0.00     0.219 HD
ENDBRANCH  12  16
BRANCH  14  18
HETATM   18  C9  UNL     1      28.501  33.700  11.442  1.00  0.00     0.023 C 
HETATM   19  C10 UNL     1      28.708  35.208  11.752  1.00  0.00     0.009 C 
HETATM   20  C11 UNL     1      27.680  35.739  10.725  1.00  0.00     0.001 C 
HETATM   21  C12 UNL     1      28.304  35.118   9.461  1.00  0.00     0.001 C 
HETATM   22  C13 UNL     1      28.941  33.833   9.929  1.00  0.00     0.009 C 
ENDBRANCH  14  18
BRANCH  15  23
HETATM   23  O2  UNL     1      28.635  30.728  11.302  1.00  0.00    -0.345 OA
ATOM     24  H2  UNL     1      28.042  31.063  10.639  1.00  0.00     0.219 HD
ENDBRANCH  15  23
ENDBRANCH   6  11
TORSDOF 4
ENDMDL
MODEL 5
REMARK VINA RESULT: -7.648782948      1.241      1.942
REMARK  4 active torsions:
REMARK  status: ('A' for Active; 'I' for Inactive)
REMARK    1  A    between atoms: C5_6  and  N1_7 
REMARK    2  A    between atoms: C6_8  and  O1_9 
REMARK    3  A    between atoms: C8_12  and  C9_13 
REMARK    4  A    between atoms: C14_18  and  O2_19 
ROOT
HETATM    1  C1  UNL     1      35.147  27.956  13.974  1.00  0.00     0.100 C 
HETATM    2  C2  UNL     1      34.194  27.795  13.219  1.00  0.00    -0.144 C 
HETATM    3  C3  UNL     1      33.057  27.597  12.328  1.00  0.00     0.160 C 
HETATM    4  F1  UNL     1      33.588  27.168  11.105  1.00  0.00    -0.229 F 
HETATM    5  C4  UNL     1      32.415  28.929  12.045  1.00  0.00     0.082 C 
HETATM    6  C5  UNL     1      31.164  29.144  12.808  1.00  0.00     0.098 C 
HETATM    7  C15 UNL     1      30.211  28.015  12.458  1.00  0.00     0.031 C 
HETATM    8  C16 UNL     1      30.751  26.717  12.950  1.00  0.00    -0.004 A 
HETATM    9  C17 UNL     1      31.530  26.579  14.199  1.00  0.00     0.014 A 
HETATM   10  C18 UNL     1      32.198  26.537  12.854  1.00  0.00     0.042 A 
ENDROOT
BRANCH   6  11
HETATM   11  N1  UNL     1      30.568  30.421  12.505  1.00  0.00    -0.303 N 
HETATM   12  C6  UNL     1      29.372  30.550  11.858  1.00  0.00     0.145 A 
HETATM   13  C7  UNL     1      29.125  31.903  11.631  1.00  0.00     0.068 A 
HETATM   14  C8  UNL     1      30.167  32.615  12.145  1.00  0.00     0.001 A 
HETATM   15  C14 UNL     1      31.039  31.680  12.678  1.00  0.00     0.151 A 
BRANCH  12  16
HETATM   16  O1  UNL     1      28.490  29.550  11.465  1.00  0.00    -0.346 OA
ATOM     17  H1  UNL     1      27.999  28.947  12.011  1.00  0.00     0.219 HD
ENDBRANCH  12  16
BRANCH  14  18
HETATM   18  C9  UNL     1      30.338  34.068  12.292  1.00  0.00     0.023 C 
HETATM   19  C10 UNL     1      29.916  34.840  11.011  1.00  0.00     0.009 C 
HETATM   20  C11 UNL     1      29.979  36.255  11.632  1.00  0.00     0.001 C 
HETATM   21  C12 UNL     1      28.963  36.033  12.768  1.00  0.00     0.001 C 
HETATM   22  C13 UNL     1      29.106  34.578  13.142  1.00  0.00     0.009 C 
ENDBRANCH  14  18
BRANCH  15  23
HETATM   23  O2  UNL     1      32.222  31.991  13.292  1.00  0.00    -0.345 OA
ATOM     24  H2  UNL     1      32.797  32.700  13.029  1.00  0.00     0.219 HD
ENDBRANCH  15  23
ENDBRANCH   6  11
TORSDOF 4
ENDMDL
