MODEL 1
REMARK VINA RESULT: -8.483867007      0.000      0.000
REMARK  4 active torsions:
REMARK  status: ('A' for Active; 'I' for Inactive)
REMARK    1  A    between atoms: O1_1  and  C1_3 
REMARK    2  A    between atoms: C5_8  and  O2_9 
REMARK    3  A    between atoms: C6_11  and  C7_12 
REMARK    4  A    between atoms: N1_13  and  C8_15 
ROOT
HETATM    1  C7  UNL     1      30.607  31.610  12.370  1.00  0.00     0.101 C 
HETATM    2  N1  UNL     1      29.417  32.093  12.270  1.00  0.00    -0.389 N 
ATOM      3  H1  UNL     1      28.630  31.458  12.401  1.00  0.00     0.159 HD
ENDROOT
BRANCH   1   4
HETATM    4  C6  UNL     1      30.869  30.213  12.658  1.00  0.00     0.047 A 
HETATM    5  C1  UNL     1      30.155  29.230  11.969  1.00  0.00     0.080 A 
HETATM    6  C2  UNL     1      30.358  27.890  12.197  1.00  0.00     0.039 A 
HETATM    7  C3  UNL     1      31.271  27.466  13.110  1.00  0.00     0.029 A 
HETATM    8  C4  UNL     1      31.984  28.399  13.799  1.00  0.00     0.068 A 
HETATM    9 CL1  UNL     1      33.180  27.919  14.993  1.00  0.00    -0.081 Cl
HETATM   10  C5  UNL     1      31.788  29.765  13.577  1.00  0.00     0.101 A 
BRANCH   5  11
HETATM   11  O1  UNL     1      29.208  29.589  11.024  1.00  0.00    -0.360 OA
ATOM     12  H1  UNL     1      28.687  30.366  11.191  1.00  0.00     0.217 HD
ENDBRANCH   5  11
BRANCH  10  13
HETATM   13  O2  UNL     1      32.546  30.655  14.311  1.00  0.00    -0.358 OA
ATOM     14  H2  UNL     1      32.891  31.421  13.865  1.00  0.00     0.217 HD
ENDBRANCH  10  13
ENDBRANCH   1   4
BRANCH   2  15
HETATM   15  C8  UNL     1      29.133  33.465  11.987  1.00  0.00     0.030 C 
HETATM   16  C9  UNL     1      29.560  33.929  10.636  1.00  0.00     0.035 C 
HETATM   17  C10 UNL     1      29.225  35.391  10.490  1.00  0.00    -0.012 C 
HETATM   18  C11 UNL     1      27.742  35.619  10.546  1.00  0.00     0.009 C 
HETATM   19  C15 UNL     1      29.875  36.248  11.535  1.00  0.00     0.009 C 
HETATM   20  C12 UNL     1      27.242  35.102  11.877  1.00  0.00    -0.012 C 
HETATM   21  C13 UNL     1      27.860  35.911  12.992  1.00  0.00     0.009 C 
HETATM   22  C17 UNL     1      27.630  33.657  12.101  1.00  0.00     0.035 C 
HETATM   23  C14 UNL     1      29.365  35.780  12.889  1.00  0.00    -0.012 C 
HETATM   24  C16 UNL     1      29.767  34.345  13.044  1.00  0.00     0.035 C 
ENDBRANCH   2  15
TORSDOF 4
ENDMDL
MODEL 2
REMARK VINA RESULT: -8.422074647      0.143      1.602
REMARK  4 active torsions:
REMARK  status: ('A' for Active; 'I' for Inactive)
REMARK    1  A    between atoms: O1_1  and  C1_3 
REMARK    2  A    between atoms: C5_8  and  O2_9 
REMARK    3  A    between atoms: C6_11  and  C7_12 
REMARK    4  A    between atoms: N1_13  and  C8_15 
ROOT
HETATM    1  C7  UNL     1      30.500  31.644  12.339  1.00  0.00     0.101 C 
HETATM    2  N1  UNL     1      29.289  32.072  12.253  1.00  0.00    -0.389 N 
ATOM      3  H1  UNL     1      28.533  31.395  12.362  1.00  0.00     0.159 HD
ENDROOT
BRANCH   1   4
HETATM    4  C6  UNL     1      30.830  30.253  12.582  1.00  0.00     0.047 A 
HETATM    5  C1  UNL     1      30.163  29.258  11.863  1.00  0.00     0.080 A 
HETATM    6  C2  UNL     1      30.431  27.924  12.049  1.00  0.00     0.039 A 
HETATM    7  C3  UNL     1      31.366  27.515  12.946  1.00  0.00     0.029 A 
HETATM    8  C4  UNL     1      32.035  28.460  13.664  1.00  0.00     0.068 A 
HETATM    9 CL1  UNL     1      33.255  28.000  14.841  1.00  0.00    -0.081 Cl
HETATM   10  C5  UNL     1      31.772  29.821  13.486  1.00  0.00     0.101 A 
BRANCH   5  11
HETATM   11  O1  UNL     1      29.197  29.601  10.931  1.00  0.00    -0.360 OA
ATOM     12  H1  UNL     1      29.179  30.500  10.621  1.00  0.00     0.217 HD
ENDBRANCH   5  11
BRANCH  10  13
HETATM   13  O2  UNL     1      32.488  30.723  14.247  1.00  0.00    -0.358 OA
ATOM     14  H2  UNL     1      32.805  31.512  13.822  1.00  0.00     0.217 HD
ENDBRANCH  10  13
ENDBRANCH   1   4
BRANCH   2  15
HETATM   15  C8  UNL     1      28.938  33.436  12.014  1.00  0.00     0.030 C 
HETATM   16  C9  UNL     1      27.477  33.730  12.080  1.00  0.00     0.035 C 
HETATM   17  C10 UNL     1      27.256  35.191  11.782  1.00  0.00    -0.012 C 
HETATM   18  C11 UNL     1      27.892  36.063  12.826  1.00  0.00     0.009 C 
HETATM   19  C15 UNL     1      27.782  35.600  10.438  1.00  0.00     0.009 C 
HETATM   20  C12 UNL     1      29.373  35.756  12.849  1.00  0.00    -0.012 C 
HETATM   21  C13 UNL     1      29.983  36.134  11.520  1.00  0.00     0.009 C 
HETATM   22  C17 UNL     1      29.639  34.283  13.064  1.00  0.00     0.035 C 
HETATM   23  C14 UNL     1      29.280  35.341  10.438  1.00  0.00    -0.012 C 
HETATM   24  C16 UNL     1      29.477  33.873  10.668  1.00  0.00     0.035 C 
ENDBRANCH   2  15
TORSDOF 4
ENDMDL
MODEL 3
REMARK VINA RESULT: -8.368201785      1.175      2.680
REMARK  4 active torsions:
REMARK  status: ('A' for Active; 'I' for Inactive)
REMARK    1  A    between atoms: O1_1  and  C1_3 
REMARK    2  A    between atoms: C5_8  and  O2_9 
REMARK    3  A    between atoms: C6_11  and  C7_12 
REMARK    4  A    between atoms: N1_13  and  C8_15 
ROOT
HETATM    1  C7  UNL     1      30.477  31.612  12.349  1.00  0.00     0.101 C 
HETATM    2  N1  UNL     1      29.278  32.030  12.134  1.00  0.00    -0.389 N 
ATOM      3  H1  UNL     1      28.530  31.338  12.085  1.00  0.00     0.159 HD
ENDROOT
BRANCH   1   4
HETATM    4  C6  UNL     1      30.803  30.210  12.523  1.00  0.00     0.047 A 
HETATM    5  C1  UNL     1      31.776  29.847  13.457  1.00  0.00     0.080 A 
HETATM    6  C2  UNL     1      32.129  28.536  13.668  1.00  0.00     0.039 A 
HETATM    7  C3  UNL     1      31.539  27.531  12.970  1.00  0.00     0.029 A 
HETATM    8  C4  UNL     1      30.586  27.850  12.051  1.00  0.00     0.068 A 
HETATM    9 CL1  UNL     1      29.783  26.600  11.114  1.00  0.00    -0.081 Cl
HETATM   10  C5  UNL     1      30.217  29.180  11.826  1.00  0.00     0.101 A 
BRANCH   5  11
HETATM   11  O1  UNL     1      32.420  30.819  14.205  1.00  0.00    -0.360 OA
ATOM     12  H1  UNL     1      32.666  31.626  13.767  1.00  0.00     0.217 HD
ENDBRANCH   5  11
BRANCH  10  13
HETATM   13  O2  UNL     1      29.243  29.430  10.880  1.00  0.00    -0.358 OA
ATOM     14  H2  UNL     1      28.702  30.203  10.991  1.00  0.00     0.217 HD
ENDBRANCH  10  13
ENDBRANCH   1   4
BRANCH   2  15
HETATM   15  C8  UNL     1      28.931  33.405  11.959  1.00  0.00     0.030 C 
HETATM   16  C9  UNL     1      27.474  33.705  12.070  1.00  0.00     0.035 C 
HETATM   17  C10 UNL     1      27.256  35.177  11.837  1.00  0.00    -0.012 C 
HETATM   18  C11 UNL     1      27.921  36.002  12.901  1.00  0.00     0.009 C 
HETATM   19  C15 UNL     1      27.755  35.639  10.500  1.00  0.00     0.009 C 
HETATM   20  C12 UNL     1      29.400  35.686  12.878  1.00  0.00    -0.012 C 
HETATM   21  C13 UNL     1      29.983  36.115  11.553  1.00  0.00     0.009 C 
HETATM   22  C17 UNL     1      29.661  34.205  13.027  1.00  0.00     0.035 C 
HETATM   23  C14 UNL     1      29.251  35.371  10.456  1.00  0.00    -0.012 C 
HETATM   24  C16 UNL     1      29.443  33.894  10.621  1.00  0.00     0.035 C 
ENDBRANCH   2  15
TORSDOF 4
ENDMDL
MODEL 4
REMARK VINA RESULT: -8.345254092      1.148      2.135
REMARK  4 active torsions:
REMARK  status: ('A' for Active; 'I' for Inactive)
REMARK    1  A    between atoms: O1_1  and  C1_3 
REMARK    2  A    between atoms: C5_8  and  O2_9 
REMARK    3  A    between atoms: C6_11  and  C7_12 
REMARK    4  A    between atoms: N1_13  and  C8_15 
ROOT
HETATM    1  C7  UNL     1      30.623  31.604  12.451  1.00  0.00     0.101 C 
HETATM    2  N1  UNL     1      29.472  32.041  12.073  1.00  0.00    -0.389 N 
ATOM      3  H1  UNL     1      28.735  31.358  11.898  1.00  0.00     0.159 HD
ENDROOT
BRANCH   1   4
HETATM    4  C6  UNL     1      30.910  30.195  12.636  1.00  0.00     0.047 A 
HETATM    5  C1  UNL     1      31.869  29.813  13.576  1.00  0.00     0.080 A 
HETATM    6  C2  UNL     1      32.185  28.494  13.798  1.00  0.00     0.039 A 
HETATM    7  C3  UNL     1      31.569  27.500  13.105  1.00  0.00     0.029 A 
HETATM    8  C4  UNL     1      30.629  27.839  12.180  1.00  0.00     0.068 A 
HETATM    9 CL1  UNL     1      29.795  26.605  11.249  1.00  0.00    -0.081 Cl
HETATM   10  C5  UNL     1      30.298  29.177  11.944  1.00  0.00     0.101 A 
BRANCH   5  11
HETATM   11  O1  UNL     1      32.537  30.772  14.320  1.00  0.00    -0.360 OA
ATOM     12  H1  UNL     1      33.009  30.485  15.094  1.00  0.00     0.217 HD
ENDBRANCH   5  11
BRANCH  10  13
HETATM   13  O2  UNL     1      29.335  29.447  10.993  1.00  0.00    -0.358 OA
ATOM     14  H2  UNL     1      28.933  30.309  10.997  1.00  0.00     0.217 HD
ENDBRANCH  10  13
ENDBRANCH   1   4
BRANCH   2  15
HETATM   15  C8  UNL     1      29.165  33.423  11.883  1.00  0.00     0.030 C 
HETATM   16  C9  UNL     1      29.533  33.971  10.546  1.00  0.00     0.035 C 
HETATM   17  C10 UNL     1      29.180  35.436  10.500  1.00  0.00    -0.012 C 
HETATM   18  C11 UNL     1      27.698  35.643  10.628  1.00  0.00     0.009 C 
HETATM   19  C15 UNL     1      29.863  36.237  11.568  1.00  0.00     0.009 C 
HETATM   20  C12 UNL     1      27.256  35.043  11.944  1.00  0.00    -0.012 C 
HETATM   21  C13 UNL     1      27.910  35.792  13.080  1.00  0.00     0.009 C 
HETATM   22  C17 UNL     1      27.665  33.592  12.067  1.00  0.00     0.035 C 
HETATM   23  C14 UNL     1      29.411  35.685  12.911  1.00  0.00    -0.012 C 
HETATM   24  C16 UNL     1      29.832  34.247  12.964  1.00  0.00     0.035 C 
ENDBRANCH   2  15
TORSDOF 4
ENDMDL
MODEL 5
REMARK VINA RESULT: -8.343919507      3.411      3.856
REMARK  4 active torsions:
REMARK  status: ('A' for Active; 'I' for Inactive)
REMARK    1  A    between atoms: O1_1  and  C1_3 
REMARK    2  A    between atoms: C5_8  and  O2_9 
REMARK    3  A    between atoms: C6_11  and  C7_12 
REMARK    4  A    between atoms: N1_13  and  C8_15 
ROOT
HETATM    1  C7  UNL     1      27.615  31.417  10.393  1.00  0.00     0.101 C 
HETATM    2  N1  UNL     1      28.456  31.998  11.176  1.00  0.00    -0.389 N 
ATOM      3  H1  UNL     1      29.105  31.412  11.702  1.00  0.00     0.159 HD
ENDROOT
BRANCH   1   4
HETATM    4  C6  UNL     1      27.554  29.977  10.231  1.00  0.00     0.047 A 
HETATM    5  C1  UNL     1      27.246  29.179  11.335  1.00  0.00     0.080 A 
HETATM    6  C2  UNL     1      27.173  27.810  11.245  1.00  0.00     0.039 A 
HETATM    7  C3  UNL     1      27.398  27.173  10.066  1.00  0.00     0.029 A 
HETATM    8  C4  UNL     1      27.702  27.922   8.970  1.00  0.00     0.068 A 
HETATM    9 CL1  UNL     1      28.005  27.162   7.415  1.00  0.00    -0.081 Cl
HETATM   10  C5  UNL     1      27.779  29.315   9.047  1.00  0.00     0.101 A 
BRANCH   5  11
HETATM   11  O1  UNL     1      27.003  29.761  12.569  1.00  0.00    -0.360 OA
ATOM     12  H1  UNL     1      27.219  29.258  13.347  1.00  0.00     0.217 HD
ENDBRANCH   5  11
BRANCH  10  13
HETATM   13  O2  UNL     1      28.091  30.011   7.896  1.00  0.00    -0.358 OA
ATOM     14  H2  UNL     1      27.415  30.103   7.234  1.00  0.00     0.217 HD
ENDBRANCH  10  13
ENDBRANCH   1   4
BRANCH   2  15
HETATM   15  C8  UNL     1      28.537  33.414  11.353  1.00  0.00     0.030 C 
HETATM   16  C9  UNL     1      28.991  34.173  10.152  1.00  0.00     0.035 C 
HETATM   17  C10 UNL     1      29.054  35.639  10.493  1.00  0.00    -0.012 C 
HETATM   18  C11 UNL     1      27.694  36.182  10.823  1.00  0.00     0.009 C 
HETATM   19  C15 UNL     1      29.974  35.935  11.640  1.00  0.00     0.009 C 
HETATM   20  C12 UNL     1      27.155  35.399  12.000  1.00  0.00    -0.012 C 
HETATM   21  C13 UNL     1      28.034  35.636  13.204  1.00  0.00     0.009 C 
HETATM   22  C17 UNL     1      27.150  33.911  11.731  1.00  0.00     0.035 C 
HETATM   23  C14 UNL     1      29.439  35.192  12.854  1.00  0.00    -0.012 C 
HETATM   24  C16 UNL     1      29.447  33.731  12.521  1.00  0.00     0.035 C 
ENDBRANCH   2  15
TORSDOF 4
ENDMDL
