MODEL 1
REMARK VINA RESULT: -4.981200167      0.000      0.000
REMARK  4 active torsions:
REMARK  status: ('A' for Active; 'I' for Inactive)
REMARK    1  A    between atoms: N1_1  and  C1_5 
REMARK    2  A    between atoms: C1_5  and  C2_6 
REMARK    3  A    between atoms: C2_6  and  C3_7 
REMARK    4  A    between atoms: C3_7  and  C4_8 
ROOT
HETATM    1  C4  UNL     1     -11.797  -6.761  49.663  1.00  0.00     0.149 A 
HETATM    2  N2  UNL     1     -12.484  -5.622  50.211  1.00  0.00    -0.353 N 
ATOM      3  H2  UNL     1     -12.783  -4.799  49.688  1.00  0.00     0.163 HD
HETATM    4  C5  UNL     1     -12.659  -5.812  51.469  1.00  0.00     0.190 A 
HETATM    5  N3  UNL     1     -13.314  -4.867  52.312  1.00  0.00    -0.063 NA
HETATM    6  N4  UNL     1     -12.110  -7.068  51.831  1.00  0.00    -0.321 N 
ATOM      7  H4  UNL     1     -12.119  -7.456  52.774  1.00  0.00     0.169 HD
HETATM    8  C6  UNL     1     -11.593  -7.657  50.797  1.00  0.00     0.118 A 
HETATM    9  N5  UNL     1     -10.960  -8.942  50.845  1.00  0.00    -0.085 NA
ENDROOT
BRANCH   1  10
HETATM   10  C3  UNL     1     -10.508  -6.265  49.047  1.00  0.00     0.034 C 
BRANCH  10  11
HETATM   11  C2  UNL     1     -10.231  -7.185  47.855  1.00  0.00     0.029 C 
BRANCH  11  12
HETATM   12  C1  UNL     1      -8.832  -7.746  47.927  1.00  0.00     0.230 C 
BRANCH  12  13
HETATM   13  N1  UNL     1      -8.910  -9.126  48.407  1.00  0.00    -0.079 N 
ATOM     14  H13 UNL     1      -9.678  -9.646  47.983  1.00  0.00     0.274 HD
ATOM     15  H12 UNL     1      -8.144  -9.704  48.063  1.00  0.00     0.274 HD
ATOM     16  H11 UNL     1      -8.962  -9.111  49.425  1.00  0.00     0.274 HD
ENDBRANCH  12  13
ENDBRANCH  11  12
ENDBRANCH  10  11
ENDBRANCH   1  10
TORSDOF 4
ENDMDL
MODEL 2
REMARK VINA RESULT: -4.567769162      1.386      4.481
REMARK  4 active torsions:
REMARK  status: ('A' for Active; 'I' for Inactive)
REMARK    1  A    between atoms: N1_1  and  C1_5 
REMARK    2  A    between atoms: C1_5  and  C2_6 
REMARK    3  A    between atoms: C2_6  and  C3_7 
REMARK    4  A    between atoms: C3_7  and  C4_8 
ROOT
HETATM    1  C4  UNL     1     -10.192  -7.213  49.185  1.00  0.00     0.149 A 
HETATM    2  N2  UNL     1      -9.335  -6.796  48.107  1.00  0.00    -0.353 N 
ATOM      3  H2  UNL     1      -9.189  -5.834  47.803  1.00  0.00     0.163 HD
HETATM    4  C5  UNL     1      -8.785  -7.835  47.592  1.00  0.00     0.190 A 
HETATM    5  N3  UNL     1      -7.872  -7.767  46.499  1.00  0.00    -0.063 NA
HETATM    6  N4  UNL     1      -9.232  -8.990  48.283  1.00  0.00    -0.321 N 
ATOM      7  H4  UNL     1      -8.942  -9.943  48.067  1.00  0.00     0.169 HD
HETATM    8  C6  UNL     1     -10.062  -8.666  49.226  1.00  0.00     0.118 A 
HETATM    9  N5  UNL     1     -10.686  -9.617  50.099  1.00  0.00    -0.085 NA
ENDROOT
BRANCH   1  10
HETATM   10  C3  UNL     1     -11.593  -6.743  48.864  1.00  0.00     0.034 C 
BRANCH  10  11
HETATM   11  C2  UNL     1     -11.926  -5.671  49.906  1.00  0.00     0.029 C 
BRANCH  11  12
HETATM   12  C1  UNL     1     -12.899  -6.204  50.928  1.00  0.00     0.230 C 
BRANCH  12  13
HETATM   13  N1  UNL     1     -12.202  -7.177  51.769  1.00  0.00    -0.079 N 
ATOM     14  H13 UNL     1     -12.043  -6.834  52.717  1.00  0.00     0.274 HD
ATOM     15  H12 UNL     1     -12.785  -7.978  52.008  1.00  0.00     0.274 HD
ATOM     16  H11 UNL     1     -11.338  -7.448  51.301  1.00  0.00     0.274 HD
ENDBRANCH  12  13
ENDBRANCH  11  12
ENDBRANCH  10  11
ENDBRANCH   1  10
TORSDOF 4
ENDMDL
MODEL 3
REMARK VINA RESULT: -4.551486435      2.378      4.322
REMARK  4 active torsions:
REMARK  status: ('A' for Active; 'I' for Inactive)
REMARK    1  A    between atoms: N1_1  and  C1_5 
REMARK    2  A    between atoms: C1_5  and  C2_6 
REMARK    3  A    between atoms: C2_6  and  C3_7 
REMARK    4  A    between atoms: C3_7  and  C4_8 
ROOT
HETATM    1  C4  UNL     1     -10.134  -7.086  47.991  1.00  0.00     0.149 A 
HETATM    2  N2  UNL     1     -10.841  -7.809  49.014  1.00  0.00    -0.353 N 
ATOM      3  H2  UNL     1     -11.717  -7.521  49.448  1.00  0.00     0.163 HD
HETATM    4  C5  UNL     1     -10.185  -8.878  49.291  1.00  0.00     0.190 A 
HETATM    5  N3  UNL     1     -10.618  -9.822  50.268  1.00  0.00    -0.063 NA
HETATM    6  N4  UNL     1      -9.021  -8.933  48.483  1.00  0.00    -0.321 N 
ATOM      7  H4  UNL     1      -8.331  -9.683  48.510  1.00  0.00     0.169 HD
HETATM    8  C6  UNL     1      -8.954  -7.897  47.706  1.00  0.00     0.118 A 
HETATM    9  N5  UNL     1      -7.891  -7.668  46.772  1.00  0.00    -0.085 NA
ENDROOT
BRANCH   1  10
HETATM   10  C3  UNL     1      -9.805  -5.717  48.542  1.00  0.00     0.034 C 
BRANCH  10  11
HETATM   11  C2  UNL     1     -11.029  -5.285  49.354  1.00  0.00     0.029 C 
BRANCH  11  12
HETATM   12  C1  UNL     1     -11.025  -3.793  49.575  1.00  0.00     0.230 C 
BRANCH  12  13
HETATM   13  N1  UNL     1      -9.675  -3.291  49.315  1.00  0.00    -0.079 N 
ATOM     14  H13 UNL     1      -9.110  -3.230  50.162  1.00  0.00     0.274 HD
ATOM     15  H12 UNL     1      -9.098  -3.962  48.811  1.00  0.00     0.274 HD
ATOM     16  H11 UNL     1      -9.752  -2.397  48.830  1.00  0.00     0.274 HD
ENDBRANCH  12  13
ENDBRANCH  11  12
ENDBRANCH  10  11
ENDBRANCH   1  10
TORSDOF 4
ENDMDL
MODEL 4
REMARK VINA RESULT: -4.367520401      2.159      4.981
REMARK  4 active torsions:
REMARK  status: ('A' for Active; 'I' for Inactive)
REMARK    1  A    between atoms: N1_1  and  C1_5 
REMARK    2  A    between atoms: C1_5  and  C2_6 
REMARK    3  A    between atoms: C2_6  and  C3_7 
REMARK    4  A    between atoms: C3_7  and  C4_8 
ROOT
HETATM    1  C4  UNL     1     -12.708  -5.538  51.003  1.00  0.00     0.149 A 
HETATM    2  N2  UNL     1     -11.934  -6.482  50.241  1.00  0.00    -0.353 N 
ATOM      3  H2  UNL     1     -11.626  -6.358  49.277  1.00  0.00     0.163 HD
HETATM    4  C5  UNL     1     -11.694  -7.507  50.977  1.00  0.00     0.190 A 
HETATM    5  N3  UNL     1     -10.943  -8.630  50.520  1.00  0.00    -0.063 NA
HETATM    6  N4  UNL     1     -12.282  -7.313  52.252  1.00  0.00    -0.321 N 
ATOM      7  H4  UNL     1     -12.236  -7.982  53.020  1.00  0.00     0.169 HD
HETATM    8  C6  UNL     1     -12.889  -6.168  52.307  1.00  0.00     0.118 A 
HETATM    9  N5  UNL     1     -13.580  -5.687  53.467  1.00  0.00    -0.085 NA
ENDROOT
BRANCH   1  10
HETATM   10  C3  UNL     1     -14.005  -5.306  50.261  1.00  0.00     0.034 C 
BRANCH  10  11
HETATM   11  C2  UNL     1     -14.364  -3.836  50.492  1.00  0.00     0.029 C 
BRANCH  11  12
HETATM   12  C1  UNL     1     -15.832  -3.687  50.804  1.00  0.00     0.230 C 
BRANCH  12  13
HETATM   13  N1  UNL     1     -16.144  -4.514  51.971  1.00  0.00    -0.079 N 
ATOM     14  H13 UNL     1     -15.602  -5.378  51.995  1.00  0.00     0.274 HD
ATOM     15  H12 UNL     1     -15.799  -4.110  52.841  1.00  0.00     0.274 HD
ATOM     16  H11 UNL     1     -17.150  -4.682  51.988  1.00  0.00     0.274 HD
ENDBRANCH  12  13
ENDBRANCH  11  12
ENDBRANCH  10  11
ENDBRANCH   1  10
TORSDOF 4
ENDMDL
MODEL 5
REMARK VINA RESULT: -4.264545194      2.115      4.778
REMARK  4 active torsions:
REMARK  status: ('A' for Active; 'I' for Inactive)
REMARK    1  A    between atoms: N1_1  and  C1_5 
REMARK    2  A    between atoms: C1_5  and  C2_6 
REMARK    3  A    between atoms: C2_6  and  C3_7 
REMARK    4  A    between atoms: C3_7  and  C4_8 
ROOT
HETATM    1  C4  UNL     1     -12.806  -5.436  51.017  1.00  0.00     0.149 A 
HETATM    2  N2  UNL     1     -12.034  -6.328  50.192  1.00  0.00    -0.353 N 
ATOM      3  H2  UNL     1     -11.767  -6.159  49.223  1.00  0.00     0.163 HD
HETATM    4  C5  UNL     1     -11.738  -7.371  50.879  1.00  0.00     0.190 A 
HETATM    5  N3  UNL     1     -10.974  -8.454  50.353  1.00  0.00    -0.063 NA
HETATM    6  N4  UNL     1     -12.283  -7.242  52.181  1.00  0.00    -0.321 N 
ATOM      7  H4  UNL     1     -12.189  -7.937  52.921  1.00  0.00     0.169 HD
HETATM    8  C6  UNL     1     -12.920  -6.118  52.302  1.00  0.00     0.118 A 
HETATM    9  N5  UNL     1     -13.580  -5.701  53.504  1.00  0.00    -0.085 NA
ENDROOT
BRANCH   1  10
HETATM   10  C3  UNL     1     -14.136  -5.215  50.332  1.00  0.00     0.034 C 
BRANCH  10  11
HETATM   11  C2  UNL     1     -14.570  -3.795  50.705  1.00  0.00     0.029 C 
BRANCH  11  12
HETATM   12  C1  UNL     1     -13.415  -2.832  50.577  1.00  0.00     0.230 C 
BRANCH  12  13
HETATM   13  N1  UNL     1     -13.871  -1.658  49.833  1.00  0.00    -0.079 N 
ATOM     14  H13 UNL     1     -14.887  -1.565  49.831  1.00  0.00     0.274 HD
ATOM     15  H12 UNL     1     -13.653  -0.783  50.309  1.00  0.00     0.274 HD
ATOM     16  H11 UNL     1     -13.480  -1.700  48.892  1.00  0.00     0.274 HD
ENDBRANCH  12  13
ENDBRANCH  11  12
ENDBRANCH  10  11
ENDBRANCH   1  10
TORSDOF 4
ENDMDL
