MODEL 1
REMARK VINA RESULT: -4.742634766      0.000      0.000
REMARK  5 active torsions:
REMARK  status: ('A' for Active; 'I' for Inactive)
REMARK    1  A    between atoms: N4_10  and  C3_11 
REMARK    2  A    between atoms: C3_11  and  C4_12 
REMARK    3  A    between atoms: C4_12  and  C5_13 
REMARK    4  A    between atoms: C5_13  and  N5_14 
REMARK    5  A    between atoms: C5_13  and  N6_18 
ROOT
HETATM    1  C3  UNL     1     -10.564  -7.965  49.169  1.00  0.00     0.172 C 
ENDROOT
BRANCH   1   2
HETATM    2  N4  UNL     1     -11.379  -6.992  49.876  1.00  0.00    -0.123 N 
HETATM    3  C1  UNL     1     -11.773  -7.052  51.183  1.00  0.00     0.693 A 
HETATM    4  N1  UNL     1     -11.492  -7.982  52.021  1.00  0.00    -0.233 N 
HETATM    5  N2  UNL     1     -12.516  -5.971  51.476  1.00  0.00    -0.185 N 
ATOM      6  H12 UNL     1     -11.786  -8.028  52.997  1.00  0.00     0.174 HD
ATOM      7  H11 UNL     1     -10.928  -8.803  51.800  1.00  0.00     0.174 HD
HETATM    8  C2  UNL     1     -12.596  -5.219  50.352  1.00  0.00     0.215 A 
ATOM      9  H2  UNL     1     -12.941  -5.757  52.378  1.00  0.00     0.185 HD
HETATM   10  N3  UNL     1     -11.903  -5.866  49.422  1.00  0.00    -0.279 N 
ATOM     11  H3  UNL     1     -11.787  -5.533  48.465  1.00  0.00     0.188 HD
ENDBRANCH   1   2
BRANCH   1  12
HETATM   12  C4  UNL     1      -9.789  -7.257  48.060  1.00  0.00     0.084 C 
BRANCH  12  13
HETATM   13  C5  UNL     1      -8.434  -7.856  47.862  1.00  0.00     0.379 C 
BRANCH  13  14
HETATM   14  N5  UNL     1      -8.275  -9.133  48.511  1.00  0.00    -0.050 N 
ATOM     15  H53 UNL     1      -8.927  -9.228  49.291  1.00  0.00     0.276 HD
ATOM     16  H52 UNL     1      -8.615  -9.887  47.915  1.00  0.00     0.276 HD
ATOM     17  H51 UNL     1      -7.319  -9.315  48.815  1.00  0.00     0.276 HD
ENDBRANCH  13  14
BRANCH  13  18
HETATM   18  N6  UNL     1      -8.166  -8.082  46.434  1.00  0.00    -0.050 N 
ATOM     19  H63 UNL     1      -9.027  -8.233  45.908  1.00  0.00     0.276 HD
ATOM     20  H62 UNL     1      -7.850  -7.231  45.970  1.00  0.00     0.276 HD
ATOM     21  H61 UNL     1      -7.507  -8.849  46.307  1.00  0.00     0.276 HD
ENDBRANCH  13  18
ENDBRANCH  12  13
ENDBRANCH   1  12
TORSDOF 5
ENDMDL
MODEL 2
REMARK VINA RESULT: -4.668589489      0.835      1.830
REMARK  5 active torsions:
REMARK  status: ('A' for Active; 'I' for Inactive)
REMARK    1  A    between atoms: N4_10  and  C3_11 
REMARK    2  A    between atoms: C3_11  and  C4_12 
REMARK    3  A    between atoms: C4_12  and  C5_13 
REMARK    4  A    between atoms: C5_13  and  N5_14 
REMARK    5  A    between atoms: C5_13  and  N6_18 
ROOT
HETATM    1  C3  UNL     1     -10.469  -6.139  48.587  1.00  0.00     0.172 C 
ENDROOT
BRANCH   1   2
HETATM    2  N4  UNL     1     -11.252  -6.363  49.791  1.00  0.00    -0.123 N 
HETATM    3  C1  UNL     1     -12.092  -5.471  50.396  1.00  0.00     0.693 A 
HETATM    4  N1  UNL     1     -12.341  -4.274  50.007  1.00  0.00    -0.233 N 
HETATM    5  N2  UNL     1     -12.637  -6.040  51.485  1.00  0.00    -0.185 N 
ATOM      6  H12 UNL     1     -12.968  -3.608  50.459  1.00  0.00     0.174 HD
ATOM      7  H11 UNL     1     -11.928  -3.842  49.181  1.00  0.00     0.174 HD
HETATM    8  C2  UNL     1     -12.142  -7.298  51.575  1.00  0.00     0.215 A 
ATOM      9  H2  UNL     1     -13.301  -5.605  52.126  1.00  0.00     0.185 HD
HETATM   10  N3  UNL     1     -11.319  -7.448  50.543  1.00  0.00    -0.279 N 
ATOM     11  H3  UNL     1     -10.798  -8.304  50.351  1.00  0.00     0.188 HD
ENDBRANCH   1   2
BRANCH   1  12
HETATM   12  C4  UNL     1     -10.278  -7.468  47.861  1.00  0.00     0.084 C 
BRANCH  12  13
HETATM   13  C5  UNL     1      -8.868  -7.954  47.958  1.00  0.00     0.379 C 
BRANCH  13  14
HETATM   14  N5  UNL     1      -8.758  -9.285  48.502  1.00  0.00    -0.050 N 
ATOM     15  H53 UNL     1      -8.025  -9.327  49.211  1.00  0.00     0.276 HD
ATOM     16  H52 UNL     1      -9.567  -9.505  49.083  1.00  0.00     0.276 HD
ATOM     17  H51 UNL     1      -8.616 -10.001  47.791  1.00  0.00     0.276 HD
ENDBRANCH  13  14
BRANCH  13  18
HETATM   18  N6  UNL     1      -8.237  -7.998  46.631  1.00  0.00    -0.050 N 
ATOM     19  H63 UNL     1      -8.778  -7.479  45.939  1.00  0.00     0.276 HD
ATOM     20  H62 UNL     1      -7.380  -7.446  46.601  1.00  0.00     0.276 HD
ATOM     21  H61 UNL     1      -8.075  -8.961  46.339  1.00  0.00     0.276 HD
ENDBRANCH  13  18
ENDBRANCH  12  13
ENDBRANCH   1  12
TORSDOF 5
ENDMDL
MODEL 3
REMARK VINA RESULT: -4.642454395      1.325      1.785
REMARK  5 active torsions:
REMARK  status: ('A' for Active; 'I' for Inactive)
REMARK    1  A    between atoms: N4_10  and  C3_11 
REMARK    2  A    between atoms: C3_11  and  C4_12 
REMARK    3  A    between atoms: C4_12  and  C5_13 
REMARK    4  A    between atoms: C5_13  and  N5_14 
REMARK    5  A    between atoms: C5_13  and  N6_18 
ROOT
HETATM    1  C3  UNL     1     -10.799  -7.192  49.116  1.00  0.00     0.172 C 
ENDROOT
BRANCH   1   2
HETATM    2  N4  UNL     1     -10.988  -5.772  49.358  1.00  0.00    -0.123 N 
HETATM    3  C1  UNL     1     -12.003  -5.192  50.065  1.00  0.00     0.693 A 
HETATM    4  N1  UNL     1     -12.973  -5.801  50.644  1.00  0.00    -0.233 N 
HETATM    5  N2  UNL     1     -11.839  -3.859  50.070  1.00  0.00    -0.185 N 
ATOM      6  H12 UNL     1     -13.732  -5.368  51.172  1.00  0.00     0.174 HD
ATOM      7  H11 UNL     1     -13.099  -6.813  50.640  1.00  0.00     0.174 HD
HETATM    8  C2  UNL     1     -10.715  -3.587  49.363  1.00  0.00     0.215 A 
ATOM      9  H2  UNL     1     -12.448  -3.176  50.522  1.00  0.00     0.185 HD
HETATM   10  N3  UNL     1     -10.240  -4.759  48.957  1.00  0.00    -0.279 N 
ATOM     11  H3  UNL     1      -9.392  -4.865  48.399  1.00  0.00     0.188 HD
ENDBRANCH   1   2
BRANCH   1  12
HETATM   12  C4  UNL     1     -10.138  -7.383  47.752  1.00  0.00     0.084 C 
BRANCH  12  13
HETATM   13  C5  UNL     1      -8.761  -7.949  47.880  1.00  0.00     0.379 C 
BRANCH  13  14
HETATM   14  N5  UNL     1      -8.735  -9.264  48.470  1.00  0.00    -0.050 N 
ATOM     15  H53 UNL     1      -9.595  -9.444  48.989  1.00  0.00     0.276 HD
ATOM     16  H52 UNL     1      -8.817  -9.984  47.753  1.00  0.00     0.276 HD
ATOM     17  H51 UNL     1      -7.917  -9.427  49.056  1.00  0.00     0.276 HD
ENDBRANCH  13  14
BRANCH  13  18
HETATM   18  N6  UNL     1      -8.125  -8.077  46.560  1.00  0.00    -0.050 N 
ATOM     19  H63 UNL     1      -7.896  -7.166  46.162  1.00  0.00     0.276 HD
ATOM     20  H62 UNL     1      -7.180  -8.455  46.631  1.00  0.00     0.276 HD
ATOM     21  H61 UNL     1      -8.706  -8.629  45.931  1.00  0.00     0.276 HD
ENDBRANCH  13  18
ENDBRANCH  12  13
ENDBRANCH   1  12
TORSDOF 5
ENDMDL
MODEL 4
REMARK VINA RESULT: -4.180932683      2.334      5.465
REMARK  5 active torsions:
REMARK  status: ('A' for Active; 'I' for Inactive)
REMARK    1  A    between atoms: N4_10  and  C3_11 
REMARK    2  A    between atoms: C3_11  and  C4_12 
REMARK    3  A    between atoms: C4_12  and  C5_13 
REMARK    4  A    between atoms: C5_13  and  N5_14 
REMARK    5  A    between atoms: C5_13  and  N6_18 
ROOT
HETATM    1  C3  UNL     1     -13.422  -5.522  51.920  1.00  0.00     0.172 C 
ENDROOT
BRANCH   1   2
HETATM    2  N4  UNL     1     -12.495  -5.993  50.905  1.00  0.00    -0.123 N 
HETATM    3  C1  UNL     1     -11.673  -7.082  50.992  1.00  0.00     0.693 A 
HETATM    4  N1  UNL     1     -11.575  -7.885  51.988  1.00  0.00    -0.233 N 
HETATM    5  N2  UNL     1     -10.964  -7.197  49.857  1.00  0.00    -0.185 N 
ATOM      6  H12 UNL     1     -10.962  -8.697  52.053  1.00  0.00     0.174 HD
ATOM      7  H11 UNL     1     -12.113  -7.797  52.850  1.00  0.00     0.174 HD
HETATM    8  C2  UNL     1     -11.334  -6.178  49.043  1.00  0.00     0.215 A 
ATOM      9  H2  UNL     1     -10.274  -7.918  49.646  1.00  0.00     0.185 HD
HETATM   10  N3  UNL     1     -12.250  -5.485  49.710  1.00  0.00    -0.279 N 
ATOM     11  H3  UNL     1     -12.713  -4.654  49.341  1.00  0.00     0.188 HD
ENDBRANCH   1   2
BRANCH   1  12
HETATM   12  C4  UNL     1     -14.849  -5.645  51.390  1.00  0.00     0.084 C 
BRANCH  12  13
HETATM   13  C5  UNL     1     -15.727  -6.399  52.336  1.00  0.00     0.379 C 
BRANCH  13  14
HETATM   14  N5  UNL     1     -16.832  -7.059  51.687  1.00  0.00    -0.050 N 
ATOM     15  H53 UNL     1     -16.961  -8.000  52.060  1.00  0.00     0.276 HD
ATOM     16  H52 UNL     1     -17.718  -6.643  51.970  1.00  0.00     0.276 HD
ATOM     17  H51 UNL     1     -16.749  -7.081  50.671  1.00  0.00     0.276 HD
ENDBRANCH  13  14
BRANCH  13  18
HETATM   18  N6  UNL     1     -14.967  -7.449  53.030  1.00  0.00    -0.050 N 
ATOM     19  H63 UNL     1     -14.435  -8.023  52.377  1.00  0.00     0.276 HD
ATOM     20  H62 UNL     1     -14.189  -7.063  53.564  1.00  0.00     0.276 HD
ATOM     21  H61 UNL     1     -15.583  -8.014  53.614  1.00  0.00     0.276 HD
ENDBRANCH  13  18
ENDBRANCH  12  13
ENDBRANCH   1  12
TORSDOF 5
ENDMDL
MODEL 5
REMARK VINA RESULT: -4.085399207      2.639      3.981
REMARK  5 active torsions:
REMARK  status: ('A' for Active; 'I' for Inactive)
REMARK    1  A    between atoms: N4_10  and  C3_11 
REMARK    2  A    between atoms: C3_11  and  C4_12 
REMARK    3  A    between atoms: C4_12  and  C5_13 
REMARK    4  A    between atoms: C5_13  and  N5_14 
REMARK    5  A    between atoms: C5_13  and  N6_18 
ROOT
HETATM    1  C3  UNL     1     -13.428  -5.149  51.132  1.00  0.00     0.172 C 
ENDROOT
BRANCH   1   2
HETATM    2  N4  UNL     1     -14.672  -5.827  51.458  1.00  0.00    -0.123 N 
HETATM    3  C1  UNL     1     -14.889  -6.676  52.506  1.00  0.00     0.693 A 
HETATM    4  N1  UNL     1     -14.031  -7.027  53.393  1.00  0.00    -0.233 N 
HETATM    5  N2  UNL     1     -16.163  -7.104  52.477  1.00  0.00    -0.185 N 
ATOM      6  H12 UNL     1     -14.192  -7.661  54.176  1.00  0.00     0.174 HD
ATOM      7  H11 UNL     1     -13.064  -6.702  53.415  1.00  0.00     0.174 HD
HETATM    8  C2  UNL     1     -16.760  -6.527  51.407  1.00  0.00     0.215 A 
ATOM      9  H2  UNL     1     -16.599  -7.746  53.139  1.00  0.00     0.185 HD
HETATM   10  N3  UNL     1     -15.832  -5.772  50.827  1.00  0.00    -0.279 N 
ATOM     11  H3  UNL     1     -15.997  -5.213  49.990  1.00  0.00     0.188 HD
ENDBRANCH   1   2
BRANCH   1  12
HETATM   12  C4  UNL     1     -12.830  -5.778  49.876  1.00  0.00     0.084 C 
BRANCH  12  13
HETATM   13  C5  UNL     1     -11.488  -6.379  50.143  1.00  0.00     0.379 C 
BRANCH  13  14
HETATM   14  N5  UNL     1     -11.542  -7.545  50.989  1.00  0.00    -0.050 N 
ATOM     15  H53 UNL     1     -11.482  -7.281  51.973  1.00  0.00     0.276 HD
ATOM     16  H52 UNL     1     -12.476  -7.954  50.981  1.00  0.00     0.276 HD
ATOM     17  H51 UNL     1     -10.838  -8.244  50.758  1.00  0.00     0.276 HD
ENDBRANCH  13  14
BRANCH  13  18
HETATM   18  N6  UNL     1     -10.849  -6.807  48.890  1.00  0.00    -0.050 N 
ATOM     19  H63 UNL     1     -11.484  -7.356  48.311  1.00  0.00     0.276 HD
ATOM     20  H62 UNL     1     -10.700  -6.023  48.254  1.00  0.00     0.276 HD
ATOM     21  H61 UNL     1      -9.982  -7.309  49.080  1.00  0.00     0.276 HD
ENDBRANCH  13  18
ENDBRANCH  12  13
ENDBRANCH   1  12
TORSDOF 5
ENDMDL
