MODEL 1
REMARK VINA RESULT: -4.470913293      0.000      0.000
REMARK  2 active torsions:
REMARK  status: ('A' for Active; 'I' for Inactive)
REMARK       I    between atoms: N1_1  and  C1_5 
REMARK       I    between atoms: C1_5  and  N2_6 
REMARK       I    between atoms: C1_5  and  N3_10 
REMARK    1  A    between atoms: N3_10  and  N4_12 
REMARK    2  A    between atoms: C2_14  and  C3_15 
ROOT
HETATM    1  N1  UNL     1     -16.767  -5.372  51.771  1.00  0.00    -0.032 N 
ATOM      2  H11 UNL     1     -16.346  -4.788  52.494  1.00  0.00     0.279 HD
ATOM      3  H12 UNL     1     -17.632  -4.975  51.403  1.00  0.00     0.279 HD
ATOM      4  H13 UNL     1     -16.230  -5.369  50.904  1.00  0.00     0.279 HD
HETATM    5  C1  UNL     1     -16.955  -6.714  52.305  1.00  0.00     0.494 C 
HETATM    6  N2  UNL     1     -17.546  -7.535  51.291  1.00  0.00    -0.032 N 
ATOM      7  H21 UNL     1     -17.678  -8.475  51.665  1.00  0.00     0.279 HD
ATOM      8  H22 UNL     1     -17.009  -7.531  50.424  1.00  0.00     0.279 HD
ATOM      9  H23 UNL     1     -18.411  -7.137  50.923  1.00  0.00     0.279 HD
HETATM   10  N3  UNL     1     -15.612  -7.189  52.670  1.00  0.00    -0.284 N 
ATOM     11  H3  UNL     1     -15.215  -8.026  52.243  1.00  0.00     0.184 HD
ENDROOT
BRANCH  10  12
HETATM   12  N4  UNL     1     -14.896  -6.458  53.620  1.00  0.00    -0.311 N 
HETATM   13  C2  UNL     1     -13.714  -6.017  53.449  1.00  0.00     0.137 C 
ATOM     14  H4  UNL     1     -15.351  -6.265  54.512  1.00  0.00     0.185 HD
BRANCH  13  15
HETATM   15  C3  UNL     1     -12.994  -6.244  52.214  1.00  0.00     0.066 A 
HETATM   16  C4  UNL     1     -12.974  -5.507  51.059  1.00  0.00     0.051 A 
HETATM   17  C5  UNL     1     -12.140  -6.109  50.135  1.00  0.00     0.109 A 
HETATM   18  N5  UNL     1     -11.667  -7.206  50.757  1.00  0.00    -0.311 N 
HETATM   19  N6  UNL     1     -12.159  -7.294  51.969  1.00  0.00    -0.300 N 
ATOM     20  H5  UNL     1     -11.018  -7.875  50.343  1.00  0.00     0.186 HD
ATOM     21  H6  UNL     1     -11.949  -8.040  52.631  1.00  0.00     0.187 HD
ENDBRANCH  13  15
ENDBRANCH  10  12
TORSDOF 2
ENDMDL
MODEL 2
REMARK VINA RESULT: -4.061646695      1.203      1.297
REMARK  2 active torsions:
REMARK  status: ('A' for Active; 'I' for Inactive)
REMARK       I    between atoms: N1_1  and  C1_5 
REMARK       I    between atoms: C1_5  and  N2_6 
REMARK       I    between atoms: C1_5  and  N3_10 
REMARK    1  A    between atoms: N3_10  and  N4_12 
REMARK    2  A    between atoms: C2_14  and  C3_15 
ROOT
HETATM    1  N1  UNL     1     -18.041  -5.569  52.370  1.00  0.00    -0.032 N 
ATOM      2  H11 UNL     1     -17.637  -4.806  52.913  1.00  0.00     0.279 HD
ATOM      3  H12 UNL     1     -18.886  -5.948  52.799  1.00  0.00     0.279 HD
ATOM      4  H13 UNL     1     -18.458  -5.250  51.496  1.00  0.00     0.279 HD
HETATM    5  C1  UNL     1     -17.020  -6.586  52.161  1.00  0.00     0.494 C 
HETATM    6  N2  UNL     1     -17.588  -7.659  51.400  1.00  0.00    -0.032 N 
ATOM      7  H21 UNL     1     -16.872  -8.372  51.254  1.00  0.00     0.279 HD
ATOM      8  H22 UNL     1     -18.004  -7.339  50.525  1.00  0.00     0.279 HD
ATOM      9  H23 UNL     1     -18.432  -8.037  51.828  1.00  0.00     0.279 HD
HETATM   10  N3  UNL     1     -15.935  -5.917  51.429  1.00  0.00    -0.284 N 
ATOM     11  H3  UNL     1     -15.644  -6.242  50.507  1.00  0.00     0.184 HD
ENDROOT
BRANCH  10  12
HETATM   12  N4  UNL     1     -15.316  -4.822  52.034  1.00  0.00    -0.311 N 
HETATM   13  C2  UNL     1     -14.058  -4.703  52.195  1.00  0.00     0.137 C 
ATOM     14  H4  UNL     1     -15.912  -4.066  52.371  1.00  0.00     0.185 HD
BRANCH  13  15
HETATM   15  C3  UNL     1     -13.139  -5.728  51.747  1.00  0.00     0.066 A 
HETATM   16  C4  UNL     1     -12.444  -5.832  50.570  1.00  0.00     0.051 A 
HETATM   17  C5  UNL     1     -11.683  -6.986  50.578  1.00  0.00     0.109 A 
HETATM   18  N5  UNL     1     -11.935  -7.559  51.770  1.00  0.00    -0.311 N 
HETATM   19  N6  UNL     1     -12.782  -6.834  52.458  1.00  0.00    -0.300 N 
ATOM     20  H5  UNL     1     -11.523  -8.435  52.093  1.00  0.00     0.186 HD
ATOM     21  H6  UNL     1     -13.125  -7.065  53.391  1.00  0.00     0.187 HD
ENDBRANCH  13  15
ENDBRANCH  10  12
TORSDOF 2
ENDMDL
MODEL 3
REMARK VINA RESULT: -3.999128640      1.284      4.496
REMARK  2 active torsions:
REMARK  status: ('A' for Active; 'I' for Inactive)
REMARK       I    between atoms: N1_1  and  C1_5 
REMARK       I    between atoms: C1_5  and  N2_6 
REMARK       I    between atoms: C1_5  and  N3_10 
REMARK    1  A    between atoms: N3_10  and  N4_12 
REMARK    2  A    between atoms: C2_14  and  C3_15 
ROOT
HETATM    1  N1  UNL     1     -11.596  -7.865  51.495  1.00  0.00    -0.032 N 
ATOM      2  H11 UNL     1     -11.638  -8.028  52.501  1.00  0.00     0.279 HD
ATOM      3  H12 UNL     1     -10.676  -8.070  51.105  1.00  0.00     0.279 HD
ATOM      4  H13 UNL     1     -12.131  -8.552  50.964  1.00  0.00     0.279 HD
HETATM    5  C1  UNL     1     -12.022  -6.499  51.224  1.00  0.00     0.494 C 
HETATM    6  N2  UNL     1     -11.962  -6.269  49.812  1.00  0.00    -0.032 N 
ATOM      7  H21 UNL     1     -12.260  -5.312  49.622  1.00  0.00     0.279 HD
ATOM      8  H22 UNL     1     -12.497  -6.956  49.281  1.00  0.00     0.279 HD
ATOM      9  H23 UNL     1     -11.042  -6.475  49.422  1.00  0.00     0.279 HD
HETATM   10  N3  UNL     1     -13.399  -6.404  51.730  1.00  0.00    -0.284 N 
ATOM     11  H3  UNL     1     -14.173  -6.167  51.109  1.00  0.00     0.184 HD
ENDROOT
BRANCH  10  12
HETATM   12  N4  UNL     1     -13.615  -6.647  53.087  1.00  0.00    -0.311 N 
HETATM   13  C2  UNL     1     -14.760  -6.655  53.645  1.00  0.00     0.137 C 
ATOM     14  H4  UNL     1     -12.800  -6.831  53.673  1.00  0.00     0.185 HD
BRANCH  13  15
HETATM   15  C3  UNL     1     -15.969  -6.403  52.891  1.00  0.00     0.066 A 
HETATM   16  C4  UNL     1     -16.719  -5.260  52.786  1.00  0.00     0.051 A 
HETATM   17  C5  UNL     1     -17.797  -5.484  51.951  1.00  0.00     0.109 A 
HETATM   18  N5  UNL     1     -17.675  -6.768  51.564  1.00  0.00    -0.311 N 
HETATM   19  N6  UNL     1     -16.614  -7.313  52.107  1.00  0.00    -0.300 N 
ATOM     20  H5  UNL     1     -18.320  -7.250  50.936  1.00  0.00     0.186 HD
ATOM     21  H6  UNL     1     -16.315  -8.277  51.964  1.00  0.00     0.187 HD
ENDBRANCH  13  15
ENDBRANCH  10  12
TORSDOF 2
ENDMDL
MODEL 4
REMARK VINA RESULT: -3.964283318      2.128      4.762
REMARK  2 active torsions:
REMARK  status: ('A' for Active; 'I' for Inactive)
REMARK       I    between atoms: N1_1  and  C1_5 
REMARK       I    between atoms: C1_5  and  N2_6 
REMARK       I    between atoms: C1_5  and  N3_10 
REMARK    1  A    between atoms: N3_10  and  N4_12 
REMARK    2  A    between atoms: C2_14  and  C3_15 
ROOT
HETATM    1  N1  UNL     1     -10.073  -5.459  48.722  1.00  0.00    -0.032 N 
ATOM      2  H11 UNL     1     -10.498  -4.533  48.662  1.00  0.00     0.279 HD
ATOM      3  H12 UNL     1      -9.485  -5.672  47.916  1.00  0.00     0.279 HD
ATOM      4  H13 UNL     1      -9.351  -5.512  49.441  1.00  0.00     0.279 HD
HETATM    5  C1  UNL     1     -11.127  -6.445  48.919  1.00  0.00     0.494 C 
HETATM    6  N2  UNL     1     -10.531  -7.745  49.003  1.00  0.00    -0.032 N 
ATOM      7  H21 UNL     1     -11.270  -8.435  49.140  1.00  0.00     0.279 HD
ATOM      8  H22 UNL     1      -9.809  -7.797  49.722  1.00  0.00     0.279 HD
ATOM      9  H23 UNL     1      -9.944  -7.958  48.197  1.00  0.00     0.279 HD
HETATM   10  N3  UNL     1     -11.793  -6.071  50.175  1.00  0.00    -0.284 N 
ATOM     11  H3  UNL     1     -11.822  -6.715  50.966  1.00  0.00     0.184 HD
ENDROOT
BRANCH  10  12
HETATM   12  N4  UNL     1     -12.383  -4.809  50.252  1.00  0.00    -0.311 N 
HETATM   13  C2  UNL     1     -13.362  -4.516  51.012  1.00  0.00     0.137 C 
ATOM     14  H4  UNL     1     -12.004  -4.070  49.659  1.00  0.00     0.185 HD
BRANCH  13  15
HETATM   15  C3  UNL     1     -13.961  -5.502  51.886  1.00  0.00     0.066 A 
HETATM   16  C4  UNL     1     -15.164  -6.151  51.785  1.00  0.00     0.051 A 
HETATM   17  C5  UNL     1     -15.322  -7.011  52.856  1.00  0.00     0.109 A 
HETATM   18  N5  UNL     1     -14.201  -6.864  53.587  1.00  0.00    -0.311 N 
HETATM   19  N6  UNL     1     -13.402  -5.986  53.031  1.00  0.00    -0.300 N 
ATOM     20  H5  UNL     1     -14.001  -7.365  54.453  1.00  0.00     0.186 HD
ATOM     21  H6  UNL     1     -12.494  -5.706  53.401  1.00  0.00     0.187 HD
ENDBRANCH  13  15
ENDBRANCH  10  12
TORSDOF 2
ENDMDL
MODEL 5
REMARK VINA RESULT: -3.911295940      4.702      7.347
REMARK  2 active torsions:
REMARK  status: ('A' for Active; 'I' for Inactive)
REMARK       I    between atoms: N1_1  and  C1_5 
REMARK       I    between atoms: C1_5  and  N2_6 
REMARK       I    between atoms: C1_5  and  N3_10 
REMARK    1  A    between atoms: N3_10  and  N4_12 
REMARK    2  A    between atoms: C2_14  and  C3_15 
ROOT
HETATM    1  N1  UNL     1      -7.964  -1.284  51.872  1.00  0.00    -0.032 N 
ATOM      2  H11 UNL     1      -8.473  -0.653  51.252  1.00  0.00     0.279 HD
ATOM      3  H12 UNL     1      -7.353  -0.786  52.519  1.00  0.00     0.279 HD
ATOM      4  H13 UNL     1      -8.570  -1.727  52.562  1.00  0.00     0.279 HD
HETATM    5  C1  UNL     1      -7.242  -2.255  51.060  1.00  0.00     0.494 C 
HETATM    6  N2  UNL     1      -6.527  -3.140  51.930  1.00  0.00    -0.032 N 
ATOM      7  H21 UNL     1      -6.021  -3.820  51.361  1.00  0.00     0.279 HD
ATOM      8  H22 UNL     1      -7.133  -3.583  52.620  1.00  0.00     0.279 HD
ATOM      9  H23 UNL     1      -5.916  -2.642  52.577  1.00  0.00     0.279 HD
HETATM   10  N3  UNL     1      -8.268  -2.968  50.285  1.00  0.00    -0.284 N 
ATOM     11  H3  UNL     1      -8.388  -3.977  50.374  1.00  0.00     0.184 HD
ENDROOT
BRANCH  10  12
HETATM   12  N4  UNL     1      -9.074  -2.221  49.424  1.00  0.00    -0.311 N 
HETATM   13  C2  UNL     1     -10.165  -2.637  48.915  1.00  0.00     0.137 C 
ATOM     14  H4  UNL     1      -8.768  -1.277  49.187  1.00  0.00     0.185 HD
BRANCH  13  15
HETATM   15  C3  UNL     1     -10.673  -3.962  49.199  1.00  0.00     0.066 A 
HETATM   16  C4  UNL     1     -10.244  -5.184  48.748  1.00  0.00     0.051 A 
HETATM   17  C5  UNL     1     -11.035  -6.183  49.283  1.00  0.00     0.109 A 
HETATM   18  N5  UNL     1     -11.933  -5.539  50.054  1.00  0.00    -0.311 N 
HETATM   19  N6  UNL     1     -11.731  -4.245  50.010  1.00  0.00    -0.300 N 
ATOM     20  H5  UNL     1     -12.668  -5.995  50.595  1.00  0.00     0.186 HD
ATOM     21  H6  UNL     1     -12.285  -3.550  50.511  1.00  0.00     0.187 HD
ENDBRANCH  13  15
ENDBRANCH  10  12
TORSDOF 2
ENDMDL
