MODEL 1
REMARK VINA RESULT: -4.433400289      0.000      0.000
REMARK  4 active torsions:
REMARK  status: ('A' for Active; 'I' for Inactive)
REMARK    1  A    between atoms: C2_3  and  N3_7 
REMARK    2  A    between atoms: N3_7  and  N4_9 
REMARK    3  A    between atoms: N4_9  and  C3_11 
REMARK    4  A    between atoms: C5_13  and  N5_14 
ROOT
HETATM    1  N1  UNL     1     -11.322  -7.633  52.030  1.00  0.00    -0.188 NA
HETATM    2  C1  UNL     1     -11.613  -7.013  51.097  1.00  0.00     0.137 C 
HETATM    3  C2  UNL     1     -11.990  -6.241  49.943  1.00  0.00     0.196 C 
HETATM    4  N2  UNL     1     -12.861  -5.325  50.093  1.00  0.00    -0.376 N 
ATOM      5  H21 UNL     1     -13.128  -4.777  49.275  1.00  0.00     0.158 HD
ATOM      6  H22 UNL     1     -13.303  -5.110  50.987  1.00  0.00     0.158 HD
ENDROOT
BRANCH   3   7
HETATM    7  N3  UNL     1     -11.368  -6.544  48.686  1.00  0.00    -0.281 N 
ATOM      8  H3  UNL     1     -11.920  -6.665  47.837  1.00  0.00     0.189 HD
BRANCH   7   9
HETATM    9  N4  UNL     1      -9.997  -6.664  48.668  1.00  0.00    -0.328 N 
ATOM     10  H4  UNL     1      -9.377  -5.895  48.921  1.00  0.00     0.180 HD
BRANCH   9  11
HETATM   11  C3  UNL     1      -9.504  -7.945  48.271  1.00  0.00     0.132 A 
HETATM   12  C4  UNL     1      -9.120  -8.273  46.892  1.00  0.00     0.063 A 
HETATM   13  C5  UNL     1      -8.040  -7.931  47.822  1.00  0.00     0.209 A 
BRANCH  13  14
HETATM   14  N5  UNL     1      -7.230  -8.914  48.483  1.00  0.00    -0.073 N 
ATOM     15  H53 UNL     1      -6.810  -9.550  47.805  1.00  0.00     0.274 HD
ATOM     16  H52 UNL     1      -6.385  -8.489  48.863  1.00  0.00     0.274 HD
ATOM     17  H51 UNL     1      -7.730  -9.433  49.205  1.00  0.00     0.274 HD
ENDBRANCH  13  14
ENDBRANCH   9  11
ENDBRANCH   7   9
ENDBRANCH   3   7
TORSDOF 4
ENDMDL
MODEL 2
REMARK VINA RESULT: -4.386645839      2.270      5.133
REMARK  4 active torsions:
REMARK  status: ('A' for Active; 'I' for Inactive)
REMARK    1  A    between atoms: C2_3  and  N3_7 
REMARK    2  A    between atoms: N3_7  and  N4_9 
REMARK    3  A    between atoms: N4_9  and  C3_11 
REMARK    4  A    between atoms: C5_13  and  N5_14 
ROOT
HETATM    1  N1  UNL     1     -10.670  -9.504  50.153  1.00  0.00    -0.188 NA
HETATM    2  C1  UNL     1     -10.735  -8.452  49.673  1.00  0.00     0.137 C 
HETATM    3  C2  UNL     1     -10.802  -7.149  49.067  1.00  0.00     0.196 C 
HETATM    4  N2  UNL     1     -10.415  -7.028  47.862  1.00  0.00    -0.376 N 
ATOM      5  H21 UNL     1     -10.463  -6.103  47.432  1.00  0.00     0.158 HD
ATOM      6  H22 UNL     1     -10.061  -7.804  47.303  1.00  0.00     0.158 HD
ENDROOT
BRANCH   3   7
HETATM    7  N3  UNL     1     -11.300  -6.057  49.853  1.00  0.00    -0.281 N 
ATOM      8  H3  UNL     1     -10.696  -5.282  50.127  1.00  0.00     0.189 HD
BRANCH   7   9
HETATM    9  N4  UNL     1     -12.626  -6.092  50.224  1.00  0.00    -0.328 N 
ATOM     10  H4  UNL     1     -13.385  -6.018  49.547  1.00  0.00     0.180 HD
BRANCH   9  11
HETATM   11  C3  UNL     1     -12.861  -6.242  51.625  1.00  0.00     0.132 A 
HETATM   12  C4  UNL     1     -13.387  -5.169  52.478  1.00  0.00     0.063 A 
HETATM   13  C5  UNL     1     -14.341  -6.179  52.013  1.00  0.00     0.209 A 
BRANCH  13  14
HETATM   14  N5  UNL     1     -14.769  -7.287  52.818  1.00  0.00    -0.073 N 
ATOM     15  H53 UNL     1     -15.519  -7.006  53.449  1.00  0.00     0.274 HD
ATOM     16  H52 UNL     1     -15.270  -7.972  52.253  1.00  0.00     0.274 HD
ATOM     17  H51 UNL     1     -14.009  -7.731  53.335  1.00  0.00     0.274 HD
ENDBRANCH  13  14
ENDBRANCH   9  11
ENDBRANCH   7   9
ENDBRANCH   3   7
TORSDOF 4
ENDMDL
MODEL 3
REMARK VINA RESULT: -4.373244382      1.464      4.361
REMARK  4 active torsions:
REMARK  status: ('A' for Active; 'I' for Inactive)
REMARK    1  A    between atoms: C2_3  and  N3_7 
REMARK    2  A    between atoms: N3_7  and  N4_9 
REMARK    3  A    between atoms: N4_9  and  C3_11 
REMARK    4  A    between atoms: C5_13  and  N5_14 
ROOT
HETATM    1  N1  UNL     1     -10.633  -9.598  50.127  1.00  0.00    -0.188 NA
HETATM    2  C1  UNL     1     -10.243  -8.869  49.318  1.00  0.00     0.137 C 
HETATM    3  C2  UNL     1      -9.743  -7.972  48.310  1.00  0.00     0.196 C 
HETATM    4  N2  UNL     1      -9.014  -8.454  47.386  1.00  0.00    -0.376 N 
ATOM      5  H21 UNL     1      -8.660  -7.818  46.671  1.00  0.00     0.158 HD
ATOM      6  H22 UNL     1      -8.767  -9.442  47.321  1.00  0.00     0.158 HD
ENDROOT
BRANCH   3   7
HETATM    7  N3  UNL     1     -10.091  -6.582  48.400  1.00  0.00    -0.281 N 
ATOM      8  H3  UNL     1      -9.407  -5.851  48.208  1.00  0.00     0.189 HD
BRANCH   7   9
HETATM    9  N4  UNL     1     -11.385  -6.273  48.756  1.00  0.00    -0.328 N 
ATOM     10  H4  UNL     1     -12.170  -6.385  48.114  1.00  0.00     0.180 HD
BRANCH   9  11
HETATM   11  C3  UNL     1     -11.548  -5.784  50.088  1.00  0.00     0.132 A 
HETATM   12  C4  UNL     1     -12.664  -4.925  50.505  1.00  0.00     0.063 A 
HETATM   13  C5  UNL     1     -12.774  -6.354  50.809  1.00  0.00     0.209 A 
BRANCH  13  14
HETATM   14  N5  UNL     1     -12.472  -6.910  52.097  1.00  0.00    -0.073 N 
ATOM     15  H53 UNL     1     -13.000  -7.768  52.252  1.00  0.00     0.274 HD
ATOM     16  H52 UNL     1     -11.525  -7.288  52.114  1.00  0.00     0.274 HD
ATOM     17  H51 UNL     1     -12.614  -6.254  52.865  1.00  0.00     0.274 HD
ENDBRANCH  13  14
ENDBRANCH   9  11
ENDBRANCH   7   9
ENDBRANCH   3   7
TORSDOF 4
ENDMDL
MODEL 4
REMARK VINA RESULT: -4.354248365      2.209      5.393
REMARK  4 active torsions:
REMARK  status: ('A' for Active; 'I' for Inactive)
REMARK    1  A    between atoms: C2_3  and  N3_7 
REMARK    2  A    between atoms: N3_7  and  N4_9 
REMARK    3  A    between atoms: N4_9  and  C3_11 
REMARK    4  A    between atoms: C5_13  and  N5_14 
ROOT
HETATM    1  N1  UNL     1      -9.480  -8.389  47.623  1.00  0.00    -0.188 NA
HETATM    2  C1  UNL     1      -9.996  -7.592  48.286  1.00  0.00     0.137 C 
HETATM    3  C2  UNL     1     -10.625  -6.591  49.106  1.00  0.00     0.196 C 
HETATM    4  N2  UNL     1     -10.453  -5.369  48.797  1.00  0.00    -0.376 N 
ATOM      5  H21 UNL     1     -10.900  -4.659  49.379  1.00  0.00     0.158 HD
ATOM      6  H22 UNL     1      -9.896  -5.062  48.000  1.00  0.00     0.158 HD
ENDROOT
BRANCH   3   7
HETATM    7  N3  UNL     1     -11.409  -7.023  50.227  1.00  0.00    -0.281 N 
ATOM      8  H3  UNL     1     -11.213  -7.904  50.703  1.00  0.00     0.189 HD
BRANCH   7   9
HETATM    9  N4  UNL     1     -12.436  -6.204  50.638  1.00  0.00    -0.328 N 
ATOM     10  H4  UNL     1     -12.849  -5.498  50.028  1.00  0.00     0.180 HD
BRANCH   9  11
HETATM   11  C3  UNL     1     -12.882  -6.414  51.978  1.00  0.00     0.132 A 
HETATM   12  C4  UNL     1     -13.441  -5.350  52.822  1.00  0.00     0.063 A 
HETATM   13  C5  UNL     1     -14.394  -6.245  52.159  1.00  0.00     0.209 A 
BRANCH  13  14
HETATM   14  N5  UNL     1     -15.018  -7.356  52.818  1.00  0.00    -0.073 N 
ATOM     15  H53 UNL     1     -14.344  -7.859  53.395  1.00  0.00     0.274 HD
ATOM     16  H52 UNL     1     -15.656  -7.033  53.546  1.00  0.00     0.274 HD
ATOM     17  H51 UNL     1     -15.493  -7.993  52.178  1.00  0.00     0.274 HD
ENDBRANCH  13  14
ENDBRANCH   9  11
ENDBRANCH   7   9
ENDBRANCH   3   7
TORSDOF 4
ENDMDL
MODEL 5
REMARK VINA RESULT: -4.351927362      0.996      1.130
REMARK  4 active torsions:
REMARK  status: ('A' for Active; 'I' for Inactive)
REMARK    1  A    between atoms: C2_3  and  N3_7 
REMARK    2  A    between atoms: N3_7  and  N4_9 
REMARK    3  A    between atoms: N4_9  and  C3_11 
REMARK    4  A    between atoms: C5_13  and  N5_14 
ROOT
HETATM    1  N1  UNL     1     -11.368  -7.627  52.028  1.00  0.00    -0.188 NA
HETATM    2  C1  UNL     1     -11.677  -6.944  51.146  1.00  0.00     0.137 C 
HETATM    3  C2  UNL     1     -12.076  -6.100  50.051  1.00  0.00     0.196 C 
HETATM    4  N2  UNL     1     -13.274  -5.671  50.031  1.00  0.00    -0.376 N 
ATOM      5  H21 UNL     1     -13.557  -5.073  49.254  1.00  0.00     0.158 HD
ATOM      6  H22 UNL     1     -13.964  -5.893  50.749  1.00  0.00     0.158 HD
ENDROOT
BRANCH   3   7
HETATM    7  N3  UNL     1     -11.105  -5.788  49.042  1.00  0.00    -0.281 N 
ATOM      8  H3  UNL     1     -10.649  -4.876  49.010  1.00  0.00     0.189 HD
BRANCH   7   9
HETATM    9  N4  UNL     1     -10.812  -6.765  48.117  1.00  0.00    -0.328 N 
ATOM     10  H4  UNL     1     -11.485  -7.073  47.415  1.00  0.00     0.180 HD
BRANCH   9  11
HETATM   11  C3  UNL     1      -9.499  -7.317  48.212  1.00  0.00     0.132 A 
HETATM   12  C4  UNL     1      -9.233  -8.734  48.492  1.00  0.00     0.063 A 
HETATM   13  C5  UNL     1      -9.163  -8.307  47.092  1.00  0.00     0.209 A 
BRANCH  13  14
HETATM   14  N5  UNL     1      -7.929  -8.013  46.421  1.00  0.00    -0.073 N 
ATOM     15  H53 UNL     1      -7.607  -8.820  45.888  1.00  0.00     0.274 HD
ATOM     16  H52 UNL     1      -8.081  -7.355  45.657  1.00  0.00     0.274 HD
ATOM     17  H51 UNL     1      -7.196  -7.677  47.047  1.00  0.00     0.274 HD
ENDBRANCH  13  14
ENDBRANCH   9  11
ENDBRANCH   7   9
ENDBRANCH   3   7
TORSDOF 4
ENDMDL
