MODEL 1
REMARK VINA RESULT: -5.335711916      0.000      0.000
REMARK  10 active torsions:
REMARK  status: ('A' for Active; 'I' for Inactive)
REMARK    1  A    between atoms: O1_2  and  C2_3 
REMARK    2  A    between atoms: C3_4  and  N1_5 
REMARK    3  A    between atoms: C4_9  and  O2_10 
REMARK    4  A    between atoms: O2_10  and  C5_11 
REMARK    5  A    between atoms: C6_12  and  O3_13 
REMARK    6  A    between atoms: C7_15  and  S1_17 
REMARK    7  A    between atoms: C12_21  and  N2_23 
REMARK    8  A    between atoms: C14_28  and  C15_29 
REMARK    9  A    between atoms: C15_29  and  N3_30 
REMARK   10  A    between atoms: C16_34  and  O5_35 
ROOT
HETATM    1  C2  UNL     1      79.596  19.913  43.359  1.00  0.00     0.187 C 
HETATM    2  C3  UNL     1      80.074  19.931  44.784  1.00  0.00     0.269 C 
HETATM    3  C4  UNL     1      80.644  18.563  45.084  1.00  0.00     0.294 C 
HETATM    4  O4  UNL     1      80.792  17.799  43.930  1.00  0.00    -0.349 OA
HETATM    5  C14 UNL     1      79.579  17.491  43.352  1.00  0.00     0.181 C 
HETATM    6  C16 UNL     1      78.702  18.715  43.174  1.00  0.00     0.180 C 
ENDROOT
BRANCH   3   7
HETATM    7  O2  UNL     1      81.807  18.712  45.776  1.00  0.00    -0.348 OA
BRANCH   7   8
HETATM    8  C5  UNL     1      82.336  17.567  46.316  1.00  0.00     0.194 C 
HETATM    9  C6  UNL     1      83.687  17.354  45.682  1.00  0.00     0.172 C 
HETATM   10  C7  UNL     1      84.554  16.381  46.431  1.00  0.00     0.050 C 
HETATM   11  C8  UNL     1      84.023  14.979  46.397  1.00  0.00     0.034 C 
HETATM   12  C10 UNL     1      84.741  16.905  47.793  1.00  0.00    -0.006 C 
HETATM   13  C11 UNL     1      83.720  17.480  48.394  1.00  0.00     0.011 C 
HETATM   14  C12 UNL     1      82.359  17.650  47.799  1.00  0.00     0.166 C 
HETATM   15  C13 UNL     1      81.407  16.619  48.425  1.00  0.00     0.053 C 
BRANCH   9  16
HETATM   16  O3  UNL     1      83.547  16.867  44.382  1.00  0.00    -0.391 OA
ATOM     17  H3  UNL     1      82.918  17.388  43.897  1.00  0.00     0.210 HD
ENDBRANCH   9  16
BRANCH  10  18
HETATM   18  S1  UNL     1      86.183  16.381  45.618  1.00  0.00    -0.157 SA
HETATM   19  C9  UNL     1      86.627  18.035  45.035  1.00  0.00     0.091 C 
ENDBRANCH  10  18
BRANCH  14  20
HETATM   20  N2  UNL     1      81.876  18.939  48.265  1.00  0.00    -0.065 N 
ATOM     21  H23 UNL     1      82.281  19.707  47.727  1.00  0.00     0.275 HD
ATOM     22  H22 UNL     1      80.895  19.079  48.025  1.00  0.00     0.275 HD
ATOM     23  H21 UNL     1      82.037  19.057  49.265  1.00  0.00     0.275 HD
ENDBRANCH  14  20
ENDBRANCH   7   8
ENDBRANCH   3   7
BRANCH   2  24
HETATM   24  N1  UNL     1      79.020  20.183  45.738  1.00  0.00    -0.068 N 
ATOM     25  H13 UNL     1      79.228  19.738  46.632  1.00  0.00     0.275 HD
ATOM     26  H12 UNL     1      79.023  21.160  46.031  1.00  0.00     0.275 HD
ATOM     27  H11 UNL     1      78.097  19.908  45.403  1.00  0.00     0.275 HD
ENDBRANCH   2  24
BRANCH   1  28
HETATM   28  O1  UNL     1      79.117  21.078  42.881  1.00  0.00    -0.386 OA
HETATM   29  C1  UNL     1      79.898  22.193  43.026  1.00  0.00     0.202 C 
ENDBRANCH   1  28
BRANCH   5  30
HETATM   30  C15 UNL     1      78.843  16.370  44.040  1.00  0.00     0.264 C 
BRANCH  30  31
HETATM   31  N3  UNL     1      77.674  16.001  43.268  1.00  0.00    -0.077 N 
ATOM     32  H33 UNL     1      77.911  15.757  42.306  1.00  0.00     0.274 HD
ATOM     33  H32 UNL     1      77.291  15.101  43.558  1.00  0.00     0.274 HD
ATOM     34  H31 UNL     1      76.979  16.745  43.314  1.00  0.00     0.274 HD
ENDBRANCH  30  31
ENDBRANCH   5  30
BRANCH   6  35
HETATM   35  O5  UNL     1      77.646  18.687  44.076  1.00  0.00    -0.390 OA
ATOM     36  H5  UNL     1      77.878  19.044  44.925  1.00  0.00     0.210 HD
ENDBRANCH   6  35
TORSDOF 10
ENDMDL
MODEL 2
REMARK VINA RESULT: -5.315937433     11.201     13.733
REMARK  10 active torsions:
REMARK  status: ('A' for Active; 'I' for Inactive)
REMARK    1  A    between atoms: O1_2  and  C2_3 
REMARK    2  A    between atoms: C3_4  and  N1_5 
REMARK    3  A    between atoms: C4_9  and  O2_10 
REMARK    4  A    between atoms: O2_10  and  C5_11 
REMARK    5  A    between atoms: C6_12  and  O3_13 
REMARK    6  A    between atoms: C7_15  and  S1_17 
REMARK    7  A    between atoms: C12_21  and  N2_23 
REMARK    8  A    between atoms: C14_28  and  C15_29 
REMARK    9  A    between atoms: C15_29  and  N3_30 
REMARK   10  A    between atoms: C16_34  and  O5_35 
ROOT
HETATM    1  C2  UNL     1      69.391  26.443  44.271  1.00  0.00     0.187 C 
HETATM    2  C3  UNL     1      69.419  25.870  42.881  1.00  0.00     0.269 C 
HETATM    3  C4  UNL     1      70.863  25.577  42.545  1.00  0.00     0.294 C 
HETATM    4  O4  UNL     1      71.686  25.676  43.663  1.00  0.00    -0.349 OA
HETATM    5  C14 UNL     1      71.753  26.965  44.146  1.00  0.00     0.181 C 
HETATM    6  C16 UNL     1      70.380  27.578  44.335  1.00  0.00     0.180 C 
ENDROOT
BRANCH   3   7
HETATM    7  O2  UNL     1      70.937  24.362  41.936  1.00  0.00    -0.348 OA
BRANCH   7   8
HETATM    8  C5  UNL     1      71.415  24.362  40.650  1.00  0.00     0.194 C 
HETATM    9  C6  UNL     1      72.885  24.034  40.718  1.00  0.00     0.172 C 
HETATM   10  C7  UNL     1      73.468  23.615  39.397  1.00  0.00     0.050 C 
HETATM   11  C8  UNL     1      73.491  24.726  38.390  1.00  0.00     0.034 C 
HETATM   12  C10 UNL     1      72.732  22.425  38.941  1.00  0.00    -0.006 C 
HETATM   13  C11 UNL     1      71.430  22.374  39.136  1.00  0.00     0.011 C 
HETATM   14  C12 UNL     1      70.619  23.444  39.795  1.00  0.00     0.166 C 
HETATM   15  C13 UNL     1      69.847  24.221  38.718  1.00  0.00     0.053 C 
BRANCH   9  16
HETATM   16  O3  UNL     1      73.613  25.139  41.159  1.00  0.00    -0.391 OA
ATOM     17  H3  UNL     1      73.615  25.822  40.499  1.00  0.00     0.210 HD
ENDBRANCH   9  16
BRANCH  10  18
HETATM   18  S1  UNL     1      75.188  23.107  39.709  1.00  0.00    -0.157 SA
HETATM   19  C9  UNL     1      76.356  24.148  38.803  1.00  0.00     0.091 C 
ENDBRANCH  10  18
BRANCH  14  20
HETATM   20  N2  UNL     1      69.598  22.754  40.567  1.00  0.00    -0.065 N 
ATOM     21  H23 UNL     1      68.926  23.409  40.967  1.00  0.00     0.275 HD
ATOM     22  H22 UNL     1      68.966  22.228  39.963  1.00  0.00     0.275 HD
ATOM     23  H21 UNL     1      70.013  22.158  41.283  1.00  0.00     0.275 HD
ENDBRANCH  14  20
ENDBRANCH   7   8
ENDBRANCH   3   7
BRANCH   2  24
HETATM   24  N1  UNL     1      68.913  26.777  41.878  1.00  0.00    -0.068 N 
ATOM     25  H13 UNL     1      68.446  27.573  42.312  1.00  0.00     0.275 HD
ATOM     26  H12 UNL     1      69.678  27.264  41.411  1.00  0.00     0.275 HD
ATOM     27  H11 UNL     1      68.302  26.326  41.197  1.00  0.00     0.275 HD
ENDBRANCH   2  24
BRANCH   1  28
HETATM   28  O1  UNL     1      68.171  26.703  44.779  1.00  0.00    -0.386 OA
HETATM   29  C1  UNL     1      67.328  25.643  44.979  1.00  0.00     0.202 C 
ENDBRANCH   1  28
BRANCH   5  30
HETATM   30  C15 UNL     1      72.666  27.866  43.355  1.00  0.00     0.264 C 
BRANCH  30  31
HETATM   31  N3  UNL     1      73.982  27.269  43.255  1.00  0.00    -0.077 N 
ATOM     32  H33 UNL     1      74.391  27.086  44.171  1.00  0.00     0.274 HD
ATOM     33  H32 UNL     1      73.943  26.308  42.915  1.00  0.00     0.274 HD
ATOM     34  H31 UNL     1      74.585  27.855  42.677  1.00  0.00     0.274 HD
ENDBRANCH  30  31
ENDBRANCH   5  30
BRANCH   6  35
HETATM   35  O5  UNL     1      70.148  28.549  43.369  1.00  0.00    -0.390 OA
ATOM     36  H5  UNL     1      70.051  28.184  42.497  1.00  0.00     0.210 HD
ENDBRANCH   6  35
TORSDOF 10
ENDMDL
MODEL 3
REMARK VINA RESULT: -5.279460566     13.981     15.631
REMARK  10 active torsions:
REMARK  status: ('A' for Active; 'I' for Inactive)
REMARK    1  A    between atoms: O1_2  and  C2_3 
REMARK    2  A    between atoms: C3_4  and  N1_5 
REMARK    3  A    between atoms: C4_9  and  O2_10 
REMARK    4  A    between atoms: O2_10  and  C5_11 
REMARK    5  A    between atoms: C6_12  and  O3_13 
REMARK    6  A    between atoms: C7_15  and  S1_17 
REMARK    7  A    between atoms: C12_21  and  N2_23 
REMARK    8  A    between atoms: C14_28  and  C15_29 
REMARK    9  A    between atoms: C15_29  and  N3_30 
REMARK   10  A    between atoms: C16_34  and  O5_35 
ROOT
HETATM    1  C2  UNL     1      71.108  27.135  44.211  1.00  0.00     0.187 C 
HETATM    2  C3  UNL     1      70.554  25.924  44.909  1.00  0.00     0.269 C 
HETATM    3  C4  UNL     1      69.698  25.181  43.908  1.00  0.00     0.294 C 
HETATM    4  O4  UNL     1      69.870  25.669  42.616  1.00  0.00    -0.349 OA
HETATM    5  C14 UNL     1      69.417  26.964  42.486  1.00  0.00     0.181 C 
HETATM    6  C16 UNL     1      69.964  27.875  43.567  1.00  0.00     0.180 C 
ENDROOT
BRANCH   3   7
HETATM    7  O2  UNL     1      69.955  23.848  44.012  1.00  0.00    -0.348 OA
BRANCH   7   8
HETATM    8  C5  UNL     1      68.857  23.030  44.101  1.00  0.00     0.194 C 
HETATM    9  C6  UNL     1      67.777  23.805  44.813  1.00  0.00     0.172 C 
HETATM   10  C7  UNL     1      66.406  23.209  44.651  1.00  0.00     0.050 C 
HETATM   11  C8  UNL     1      66.265  21.877  45.326  1.00  0.00     0.034 C 
HETATM   12  C10 UNL     1      66.101  23.173  43.212  1.00  0.00    -0.006 C 
HETATM   13  C11 UNL     1      67.064  22.857  42.370  1.00  0.00     0.011 C 
HETATM   14  C12 UNL     1      68.469  22.525  42.759  1.00  0.00     0.166 C 
HETATM   15  C13 UNL     1      68.670  21.005  42.662  1.00  0.00     0.053 C 
BRANCH   9  16
HETATM   16  O3  UNL     1      68.041  23.868  46.181  1.00  0.00    -0.391 OA
ATOM     17  H3  UNL     1      67.683  24.665  46.554  1.00  0.00     0.210 HD
ENDBRANCH   9  16
BRANCH  10  18
HETATM   18  S1  UNL     1      65.229  24.359  45.430  1.00  0.00    -0.157 SA
HETATM   19  C9  UNL     1      64.554  23.671  46.960  1.00  0.00     0.091 C 
ENDBRANCH  10  18
BRANCH  14  20
HETATM   20  N2  UNL     1      69.316  23.085  41.718  1.00  0.00    -0.065 N 
ATOM     21  H23 UNL     1      68.763  23.537  40.989  1.00  0.00     0.275 HD
ATOM     22  H22 UNL     1      69.831  23.899  42.053  1.00  0.00     0.275 HD
ATOM     23  H21 UNL     1      69.942  22.380  41.330  1.00  0.00     0.275 HD
ENDBRANCH  14  20
ENDBRANCH   7   8
ENDBRANCH   3   7
BRANCH   2  24
HETATM   24  N1  UNL     1      69.719  26.247  46.041  1.00  0.00    -0.068 N 
ATOM     25  H13 UNL     1      69.570  27.254  46.105  1.00  0.00     0.275 HD
ATOM     26  H12 UNL     1      68.759  25.944  45.882  1.00  0.00     0.275 HD
ATOM     27  H11 UNL     1      70.073  25.877  46.924  1.00  0.00     0.275 HD
ENDBRANCH   2  24
BRANCH   1  28
HETATM   28  O1  UNL     1      71.962  27.891  44.927  1.00  0.00    -0.386 OA
HETATM   29  C1  UNL     1      72.446  29.031  44.342  1.00  0.00     0.202 C 
ENDBRANCH   1  28
BRANCH   5  30
HETATM   30  C15 UNL     1      67.918  27.076  42.364  1.00  0.00     0.264 C 
BRANCH  30  31
HETATM   31  N3  UNL     1      67.574  28.233  41.562  1.00  0.00    -0.077 N 
ATOM     32  H33 UNL     1      67.234  29.007  42.132  1.00  0.00     0.274 HD
ATOM     33  H32 UNL     1      68.400  28.688  41.172  1.00  0.00     0.274 HD
ATOM     34  H31 UNL     1      66.906  27.967  40.839  1.00  0.00     0.274 HD
ENDBRANCH  30  31
ENDBRANCH   5  30
BRANCH   6  35
HETATM   35  O5  UNL     1      68.963  28.208  44.470  1.00  0.00    -0.390 OA
ATOM     36  H5  UNL     1      68.824  29.146  44.536  1.00  0.00     0.210 HD
ENDBRANCH   6  35
TORSDOF 10
ENDMDL
MODEL 4
REMARK VINA RESULT: -5.262838667     13.040     14.490
REMARK  10 active torsions:
REMARK  status: ('A' for Active; 'I' for Inactive)
REMARK    1  A    between atoms: O1_2  and  C2_3 
REMARK    2  A    between atoms: C3_4  and  N1_5 
REMARK    3  A    between atoms: C4_9  and  O2_10 
REMARK    4  A    between atoms: O2_10  and  C5_11 
REMARK    5  A    between atoms: C6_12  and  O3_13 
REMARK    6  A    between atoms: C7_15  and  S1_17 
REMARK    7  A    between atoms: C12_21  and  N2_23 
REMARK    8  A    between atoms: C14_28  and  C15_29 
REMARK    9  A    between atoms: C15_29  and  N3_30 
REMARK   10  A    between atoms: C16_34  and  O5_35 
ROOT
HETATM    1  C2  UNL     1      71.105  27.235  44.467  1.00  0.00     0.187 C 
HETATM    2  C3  UNL     1      70.543  26.057  45.213  1.00  0.00     0.269 C 
HETATM    3  C4  UNL     1      69.806  25.200  44.209  1.00  0.00     0.294 C 
HETATM    4  O4  UNL     1      70.067  25.595  42.900  1.00  0.00    -0.349 OA
HETATM    5  C14 UNL     1      69.575  26.853  42.629  1.00  0.00     0.181 C 
HETATM    6  C16 UNL     1      69.992  27.869  43.674  1.00  0.00     0.180 C 
ENDROOT
BRANCH   3   7
HETATM    7  O2  UNL     1      70.105  23.892  44.440  1.00  0.00    -0.348 OA
BRANCH   7   8
HETATM    8  C5  UNL     1      69.071  23.107  44.883  1.00  0.00     0.194 C 
HETATM    9  C6  UNL     1      68.597  22.286  43.711  1.00  0.00     0.172 C 
HETATM   10  C7  UNL     1      67.747  21.111  44.108  1.00  0.00     0.050 C 
HETATM   11  C8  UNL     1      66.428  21.518  44.696  1.00  0.00     0.034 C 
HETATM   12  C10 UNL     1      68.548  20.258  44.999  1.00  0.00    -0.006 C 
HETATM   13  C11 UNL     1      69.336  20.833  45.884  1.00  0.00     0.011 C 
HETATM   14  C12 UNL     1      69.488  22.310  46.065  1.00  0.00     0.166 C 
HETATM   15  C13 UNL     1      68.718  22.742  47.322  1.00  0.00     0.053 C 
BRANCH   9  16
HETATM   16  O3  UNL     1      67.841  23.068  42.839  1.00  0.00    -0.391 OA
ATOM     17  H3  UNL     1      68.024  22.834  41.937  1.00  0.00     0.210 HD
ENDBRANCH   9  16
BRANCH  10  18
HETATM   18  S1  UNL     1      67.413  20.158  42.593  1.00  0.00    -0.157 SA
HETATM   19  C9  UNL     1      68.867  20.098  41.521  1.00  0.00     0.091 C 
ENDBRANCH  10  18
BRANCH  14  20
HETATM   20  N2  UNL     1      70.888  22.532  46.386  1.00  0.00    -0.065 N 
ATOM     21  H23 UNL     1      71.289  23.279  45.817  1.00  0.00     0.275 HD
ATOM     22  H22 UNL     1      70.998  22.959  47.306  1.00  0.00     0.275 HD
ATOM     23  H21 UNL     1      71.429  21.670  46.307  1.00  0.00     0.275 HD
ENDBRANCH  14  20
ENDBRANCH   7   8
ENDBRANCH   3   7
BRANCH   2  24
HETATM   24  N1  UNL     1      69.603  26.427  46.244  1.00  0.00    -0.068 N 
ATOM     25  H13 UNL     1      69.948  27.224  46.779  1.00  0.00     0.275 HD
ATOM     26  H12 UNL     1      68.766  26.847  45.837  1.00  0.00     0.275 HD
ATOM     27  H11 UNL     1      69.356  25.655  46.862  1.00  0.00     0.275 HD
ENDBRANCH   2  24
BRANCH   1  28
HETATM   28  O1  UNL     1      71.864  28.083  45.187  1.00  0.00    -0.386 OA
HETATM   29  C1  UNL     1      72.523  29.076  44.512  1.00  0.00     0.202 C 
ENDBRANCH   1  28
BRANCH   5  30
HETATM   30  C15 UNL     1      68.088  26.885  42.377  1.00  0.00     0.264 C 
BRANCH  30  31
HETATM   31  N3  UNL     1      67.743  28.073  41.623  1.00  0.00    -0.077 N 
ATOM     32  H33 UNL     1      66.832  27.989  41.171  1.00  0.00     0.274 HD
ATOM     33  H32 UNL     1      67.533  28.866  42.231  1.00  0.00     0.274 HD
ATOM     34  H31 UNL     1      68.483  28.288  40.956  1.00  0.00     0.274 HD
ENDBRANCH  30  31
ENDBRANCH   5  30
BRANCH   6  35
HETATM   35  O5  UNL     1      68.905  28.224  44.462  1.00  0.00    -0.390 OA
ATOM     36  H5  UNL     1      68.415  28.956  44.106  1.00  0.00     0.210 HD
ENDBRANCH   6  35
TORSDOF 10
ENDMDL
MODEL 5
REMARK VINA RESULT: -5.177310801     13.572     15.322
REMARK  10 active torsions:
REMARK  status: ('A' for Active; 'I' for Inactive)
REMARK    1  A    between atoms: O1_2  and  C2_3 
REMARK    2  A    between atoms: C3_4  and  N1_5 
REMARK    3  A    between atoms: C4_9  and  O2_10 
REMARK    4  A    between atoms: O2_10  and  C5_11 
REMARK    5  A    between atoms: C6_12  and  O3_13 
REMARK    6  A    between atoms: C7_15  and  S1_17 
REMARK    7  A    between atoms: C12_21  and  N2_23 
REMARK    8  A    between atoms: C14_28  and  C15_29 
REMARK    9  A    between atoms: C15_29  and  N3_30 
REMARK   10  A    between atoms: C16_34  and  O5_35 
ROOT
HETATM    1  C2  UNL     1      70.223  26.873  43.541  1.00  0.00     0.187 C 
HETATM    2  C3  UNL     1      68.881  27.248  44.104  1.00  0.00     0.269 C 
HETATM    3  C4  UNL     1      68.159  25.962  44.439  1.00  0.00     0.294 C 
HETATM    4  O4  UNL     1      69.006  24.860  44.373  1.00  0.00    -0.349 OA
HETATM    5  C14 UNL     1      69.450  24.622  43.090  1.00  0.00     0.181 C 
HETATM    6  C16 UNL     1      70.010  25.870  42.437  1.00  0.00     0.180 C 
ENDROOT
BRANCH   3   7
HETATM    7  O2  UNL     1      67.555  26.098  45.651  1.00  0.00    -0.348 OA
BRANCH   7   8
HETATM    8  C5  UNL     1      67.581  24.992  46.463  1.00  0.00     0.194 C 
HETATM    9  C6  UNL     1      68.572  25.268  47.565  1.00  0.00     0.172 C 
HETATM   10  C7  UNL     1      68.437  24.337  48.739  1.00  0.00     0.050 C 
HETATM   11  C8  UNL     1      68.800  22.921  48.405  1.00  0.00     0.034 C 
HETATM   12  C10 UNL     1      67.074  24.484  49.272  1.00  0.00    -0.006 C 
HETATM   13  C11 UNL     1      66.076  24.628  48.424  1.00  0.00     0.011 C 
HETATM   14  C12 UNL     1      66.213  24.656  46.935  1.00  0.00     0.166 C 
HETATM   15  C13 UNL     1      65.747  23.309  46.364  1.00  0.00     0.053 C 
BRANCH   9  16
HETATM   16  O3  UNL     1      69.878  25.148  47.091  1.00  0.00    -0.391 OA
ATOM     17  H3  UNL     1      70.473  25.665  47.619  1.00  0.00     0.210 HD
ENDBRANCH   9  16
BRANCH  10  18
HETATM   18  S1  UNL     1      69.590  24.924  50.019  1.00  0.00    -0.157 SA
HETATM   19  C9  UNL     1      71.051  23.863  50.124  1.00  0.00     0.091 C 
ENDBRANCH  10  18
BRANCH  14  20
HETATM   20  N2  UNL     1      65.237  25.624  46.461  1.00  0.00    -0.065 N 
ATOM     21  H23 UNL     1      65.267  26.484  47.010  1.00  0.00     0.275 HD
ATOM     22  H22 UNL     1      65.502  26.007  45.554  1.00  0.00     0.275 HD
ATOM     23  H21 UNL     1      64.299  25.226  46.440  1.00  0.00     0.275 HD
ENDBRANCH  14  20
ENDBRANCH   7   8
ENDBRANCH   3   7
BRANCH   2  24
HETATM   24  N1  UNL     1      68.055  27.983  43.176  1.00  0.00    -0.068 N 
ATOM     25  H13 UNL     1      67.312  27.391  42.805  1.00  0.00     0.275 HD
ATOM     26  H12 UNL     1      67.490  28.677  43.665  1.00  0.00     0.275 HD
ATOM     27  H11 UNL     1      68.585  28.416  42.419  1.00  0.00     0.275 HD
ENDBRANCH   2  24
BRANCH   1  28
HETATM   28  O1  UNL     1      71.048  27.896  43.248  1.00  0.00    -0.386 OA
HETATM   29  C1  UNL     1      72.393  27.692  43.407  1.00  0.00     0.202 C 
ENDBRANCH   1  28
BRANCH   5  30
HETATM   30  C15 UNL     1      68.435  23.936  42.211  1.00  0.00     0.264 C 
BRANCH  30  31
HETATM   31  N3  UNL     1      69.103  23.295  41.096  1.00  0.00    -0.077 N 
ATOM     32  H33 UNL     1      69.798  23.903  40.664  1.00  0.00     0.274 HD
ATOM     33  H32 UNL     1      69.728  22.549  41.402  1.00  0.00     0.274 HD
ATOM     34  H31 UNL     1      68.412  22.963  40.423  1.00  0.00     0.274 HD
ENDBRANCH  30  31
ENDBRANCH   5  30
BRANCH   6  35
HETATM   35  O5  UNL     1      69.144  26.329  41.453  1.00  0.00    -0.390 OA
ATOM     36  H5  UNL     1      68.230  26.257  41.704  1.00  0.00     0.210 HD
ENDBRANCH   6  35
TORSDOF 10
ENDMDL
