MODEL 1
REMARK VINA RESULT: -8.490844958      0.000      0.000
REMARK  9 active torsions:
REMARK  status: ('A' for Active; 'I' for Inactive)
REMARK    1  A    between atoms: O1_2  and  C2_3 
REMARK    2  A    between atoms: C3_4  and  O2_5 
REMARK    3  A    between atoms: C4_7  and  O3_8 
REMARK    4  A    between atoms: C6_12  and  O5_13 
REMARK    5  A    between atoms: C7_15  and  N1_16 
REMARK    6  A    between atoms: C7_15  and  C8_20 
REMARK       I    between atoms: C8_20  and  N2_22 
REMARK    7  A    between atoms: N2_22  and  O7_24 
REMARK    8  A    between atoms: O7_24  and  C9_25 
REMARK    9  A    between atoms: C15_31  and  O8_32 
ROOT
HETATM    1  C2  UNL     1      79.172  23.907  41.177  1.00  0.00     0.181 C 
HETATM    2  C3  UNL     1      79.863  25.187  41.554  1.00  0.00     0.180 C 
HETATM    3  C4  UNL     1      79.303  26.381  40.820  1.00  0.00     0.179 C 
HETATM    4  C5  UNL     1      77.816  26.519  40.965  1.00  0.00     0.165 C 
HETATM    5  O4  UNL     1      77.498  27.578  41.848  1.00  0.00    -0.350 OA
HETATM    6  C6  UNL     1      76.188  27.315  42.249  1.00  0.00     0.303 C 
HETATM    7  C7  UNL     1      76.060  25.779  42.320  1.00  0.00     0.262 C 
HETATM    8  C14 UNL     1      77.359  25.349  41.848  1.00  0.00     0.100 C 
HETATM    9  C15 UNL     1      77.649  24.039  41.266  1.00  0.00     0.162 C 
ENDROOT
BRANCH   7  10
HETATM   10  N1  UNL     1      75.973  25.504  43.780  1.00  0.00    -0.056 N 
ATOM     11  H13 UNL     1      76.875  25.450  44.255  1.00  0.00     0.276 HD
ATOM     12  H12 UNL     1      75.607  26.278  44.335  1.00  0.00     0.276 HD
ATOM     13  H11 UNL     1      75.418  24.650  43.830  1.00  0.00     0.276 HD
ENDBRANCH   7  10
BRANCH   7  14
HETATM   14  C8  UNL     1      74.816  25.442  41.698  1.00  0.00     0.283 C 
HETATM   15  O6  UNL     1      73.741  25.818  42.301  1.00  0.00    -0.268 OA
HETATM   16  N2  UNL     1      74.590  24.749  40.492  1.00  0.00    -0.232 N 
ATOM     17  H2  UNL     1      75.403  24.419  39.971  1.00  0.00     0.197 HD
BRANCH  16  18
HETATM   18  O7  UNL     1      73.361  24.493  39.982  1.00  0.00    -0.272 OA
BRANCH  18  19
HETATM   19  C9  UNL     1      73.331  23.133  39.724  1.00  0.00     0.152 C 
HETATM   20  C10 UNL     1      71.893  22.754  39.346  1.00  0.00     0.034 C 
HETATM   21  C11 UNL     1      72.139  21.330  38.867  1.00  0.00     0.003 C 
HETATM   22  C12 UNL     1      73.474  21.394  38.159  1.00  0.00     0.003 C 
HETATM   23  C13 UNL     1      74.047  22.768  38.460  1.00  0.00     0.034 C 
ENDBRANCH  18  19
ENDBRANCH  16  18
ENDBRANCH   7  14
BRANCH   6  24
HETATM   24  O5  UNL     1      75.832  27.911  43.429  1.00  0.00    -0.368 OA
ATOM     25  H5  UNL     1      75.299  27.365  43.995  1.00  0.00     0.212 HD
ENDBRANCH   6  24
BRANCH   9  26
HETATM   26  O8  UNL     1      77.025  23.617  40.154  1.00  0.00    -0.387 OA
HETATM   27  C16 UNL     1      77.450  23.886  38.924  1.00  0.00     0.202 C 
ENDBRANCH   9  26
BRANCH   3  28
HETATM   28  O3  UNL     1      79.701  26.402  39.483  1.00  0.00    -0.390 OA
ATOM     29  H3  UNL     1      80.448  26.973  39.346  1.00  0.00     0.210 HD
ENDBRANCH   3  28
BRANCH   1  30
HETATM   30  O1  UNL     1      79.685  22.869  41.898  1.00  0.00    -0.385 OA
HETATM   31  C1  UNL     1      79.472  22.900  43.251  1.00  0.00     0.202 C 
ENDBRANCH   1  30
BRANCH   2  32
HETATM   32  O2  UNL     1      81.188  25.057  41.013  1.00  0.00    -0.390 OA
ATOM     33  H2  UNL     1      81.754  25.001  41.775  1.00  0.00     0.210 HD
ENDBRANCH   2  32
TORSDOF 9
ENDMDL
MODEL 2
REMARK VINA RESULT: -7.307262166      5.909      8.747
REMARK  9 active torsions:
REMARK  status: ('A' for Active; 'I' for Inactive)
REMARK    1  A    between atoms: O1_2  and  C2_3 
REMARK    2  A    between atoms: C3_4  and  O2_5 
REMARK    3  A    between atoms: C4_7  and  O3_8 
REMARK    4  A    between atoms: C6_12  and  O5_13 
REMARK    5  A    between atoms: C7_15  and  N1_16 
REMARK    6  A    between atoms: C7_15  and  C8_20 
REMARK       I    between atoms: C8_20  and  N2_22 
REMARK    7  A    between atoms: N2_22  and  O7_24 
REMARK    8  A    between atoms: O7_24  and  C9_25 
REMARK    9  A    between atoms: C15_31  and  O8_32 
ROOT
HETATM    1  C2  UNL     1      68.653  27.034  43.134  1.00  0.00     0.181 C 
HETATM    2  C3  UNL     1      70.029  27.627  43.017  1.00  0.00     0.180 C 
HETATM    3  C4  UNL     1      71.110  26.660  43.434  1.00  0.00     0.179 C 
HETATM    4  C5  UNL     1      71.036  25.346  42.713  1.00  0.00     0.165 C 
HETATM    5  O4  UNL     1      72.061  25.252  41.742  1.00  0.00    -0.350 OA
HETATM    6  C6  UNL     1      71.624  24.257  40.868  1.00  0.00     0.303 C 
HETATM    7  C7  UNL     1      70.087  24.388  40.802  1.00  0.00     0.262 C 
HETATM    8  C14 UNL     1      69.837  25.444  41.760  1.00  0.00     0.100 C 
HETATM    9  C15 UNL     1      68.567  25.665  42.451  1.00  0.00     0.162 C 
ENDROOT
BRANCH   7  10
HETATM   10  N1  UNL     1      69.842  24.921  39.434  1.00  0.00    -0.056 N 
ATOM     11  H13 UNL     1      70.597  25.499  39.064  1.00  0.00     0.276 HD
ATOM     12  H12 UNL     1      69.873  24.219  38.695  1.00  0.00     0.276 HD
ATOM     13  H11 UNL     1      68.946  25.401  39.523  1.00  0.00     0.276 HD
ENDBRANCH   7  10
BRANCH   7  14
HETATM   14  C8  UNL     1      69.559  23.061  40.897  1.00  0.00     0.283 C 
HETATM   15  O6  UNL     1      69.678  22.309  39.858  1.00  0.00    -0.268 OA
HETATM   16  N2  UNL     1      68.918  22.441  41.988  1.00  0.00    -0.232 N 
ATOM     17  H2  UNL     1      68.787  22.988  42.839  1.00  0.00     0.197 HD
BRANCH  16  18
HETATM   18  O7  UNL     1      68.464  21.164  41.977  1.00  0.00    -0.272 OA
BRANCH  18  19
HETATM   19  C9  UNL     1      67.398  21.132  42.859  1.00  0.00     0.152 C 
HETATM   20  C10 UNL     1      66.341  22.129  42.362  1.00  0.00     0.034 C 
HETATM   21  C11 UNL     1      65.198  21.749  43.292  1.00  0.00     0.003 C 
HETATM   22  C12 UNL     1      65.303  20.246  43.428  1.00  0.00     0.003 C 
HETATM   23  C13 UNL     1      66.620  19.854  42.780  1.00  0.00     0.034 C 
ENDBRANCH  18  19
ENDBRANCH  16  18
ENDBRANCH   7  14
BRANCH   6  24
HETATM   24  O5  UNL     1      72.193  24.312  39.624  1.00  0.00    -0.368 OA
ATOM     25  H5  UNL     1      71.664  24.758  38.974  1.00  0.00     0.212 HD
ENDBRANCH   6  24
BRANCH   9  26
HETATM   26  O8  UNL     1      68.030  24.723  43.242  1.00  0.00    -0.387 OA
HETATM   27  C16 UNL     1      67.822  24.885  44.544  1.00  0.00     0.202 C 
ENDBRANCH   9  26
BRANCH   3  28
HETATM   28  O3  UNL     1      71.152  26.494  44.818  1.00  0.00    -0.390 OA
ATOM     29  H3  UNL     1      70.741  27.219  45.274  1.00  0.00     0.210 HD
ENDBRANCH   3  28
BRANCH   1  30
HETATM   30  O1  UNL     1      67.718  27.930  42.706  1.00  0.00    -0.385 OA
HETATM   31  C1  UNL     1      67.572  28.059  41.350  1.00  0.00     0.202 C 
ENDBRANCH   1  30
BRANCH   2  32
HETATM   32  O2  UNL     1      70.076  28.637  44.038  1.00  0.00    -0.390 OA
ATOM     33  H2  UNL     1      70.860  28.439  44.535  1.00  0.00     0.210 HD
ENDBRANCH   2  32
TORSDOF 9
ENDMDL
MODEL 3
REMARK VINA RESULT: -7.283834479      2.261      3.114
REMARK  9 active torsions:
REMARK  status: ('A' for Active; 'I' for Inactive)
REMARK    1  A    between atoms: O1_2  and  C2_3 
REMARK    2  A    between atoms: C3_4  and  O2_5 
REMARK    3  A    between atoms: C4_7  and  O3_8 
REMARK    4  A    between atoms: C6_12  and  O5_13 
REMARK    5  A    between atoms: C7_15  and  N1_16 
REMARK    6  A    between atoms: C7_15  and  C8_20 
REMARK       I    between atoms: C8_20  and  N2_22 
REMARK    7  A    between atoms: N2_22  and  O7_24 
REMARK    8  A    between atoms: O7_24  and  C9_25 
REMARK    9  A    between atoms: C15_31  and  O8_32 
ROOT
HETATM    1  C2  UNL     1      78.833  23.837  41.212  1.00  0.00     0.181 C 
HETATM    2  C3  UNL     1      79.596  25.084  41.558  1.00  0.00     0.180 C 
HETATM    3  C4  UNL     1      79.064  26.302  40.843  1.00  0.00     0.179 C 
HETATM    4  C5  UNL     1      77.592  26.508  41.045  1.00  0.00     0.165 C 
HETATM    5  O4  UNL     1      77.357  27.582  41.937  1.00  0.00    -0.350 OA
HETATM    6  C6  UNL     1      76.053  27.381  42.389  1.00  0.00     0.303 C 
HETATM    7  C7  UNL     1      75.857  25.852  42.470  1.00  0.00     0.262 C 
HETATM    8  C14 UNL     1      77.116  25.363  41.949  1.00  0.00     0.100 C 
HETATM    9  C15 UNL     1      77.322  24.040  41.359  1.00  0.00     0.162 C 
ENDROOT
BRANCH   7  10
HETATM   10  N1  UNL     1      75.814  25.583  43.933  1.00  0.00    -0.056 N 
ATOM     11  H13 UNL     1      75.742  26.419  44.514  1.00  0.00     0.276 HD
ATOM     12  H12 UNL     1      74.949  25.153  44.259  1.00  0.00     0.276 HD
ATOM     13  H11 UNL     1      76.652  25.024  44.098  1.00  0.00     0.276 HD
ENDBRANCH   7  10
BRANCH   7  14
HETATM   14  C8  UNL     1      74.576  25.572  41.897  1.00  0.00     0.283 C 
HETATM   15  O6  UNL     1      74.551  25.245  40.651  1.00  0.00    -0.268 OA
HETATM   16  N2  UNL     1      73.309  25.597  42.513  1.00  0.00    -0.232 N 
ATOM     17  H2  UNL     1      73.262  25.855  43.499  1.00  0.00     0.197 HD
BRANCH  16  18
HETATM   18  O7  UNL     1      72.149  25.299  41.878  1.00  0.00    -0.272 OA
BRANCH  18  19
HETATM   19  C9  UNL     1      71.135  25.723  42.719  1.00  0.00     0.152 C 
HETATM   20  C10 UNL     1      71.488  27.133  43.214  1.00  0.00     0.034 C 
HETATM   21  C11 UNL     1      70.167  27.491  43.879  1.00  0.00     0.003 C 
HETATM   22  C12 UNL     1      69.113  26.881  42.983  1.00  0.00     0.003 C 
HETATM   23  C13 UNL     1      69.858  26.007  41.988  1.00  0.00     0.034 C 
ENDBRANCH  18  19
ENDBRANCH  16  18
ENDBRANCH   7  14
BRANCH   6  24
HETATM   24  O5  UNL     1      75.771  27.993  43.580  1.00  0.00    -0.368 OA
ATOM     25  H5  UNL     1      74.844  28.121  43.743  1.00  0.00     0.212 HD
ENDBRANCH   6  24
BRANCH   9  26
HETATM   26  O8  UNL     1      76.637  23.645  40.274  1.00  0.00    -0.387 OA
HETATM   27  C16 UNL     1      77.096  23.758  39.033  1.00  0.00     0.202 C 
ENDBRANCH   9  26
BRANCH   3  28
HETATM   28  O3  UNL     1      79.410  26.303  39.491  1.00  0.00    -0.390 OA
ATOM     29  H3  UNL     1      79.307  27.164  39.101  1.00  0.00     0.210 HD
ENDBRANCH   3  28
BRANCH   1  30
HETATM   30  O1  UNL     1      79.325  22.777  41.915  1.00  0.00    -0.385 OA
HETATM   31  C1  UNL     1      79.163  22.818  43.275  1.00  0.00     0.202 C 
ENDBRANCH   1  30
BRANCH   2  32
HETATM   32  O2  UNL     1      80.892  24.893  40.967  1.00  0.00    -0.390 OA
ATOM     33  H2  UNL     1      80.717  24.449  40.145  1.00  0.00     0.210 HD
ENDBRANCH   2  32
TORSDOF 9
ENDMDL
MODEL 4
REMARK VINA RESULT: -7.115487556      2.566      5.789
REMARK  9 active torsions:
REMARK  status: ('A' for Active; 'I' for Inactive)
REMARK    1  A    between atoms: O1_2  and  C2_3 
REMARK    2  A    between atoms: C3_4  and  O2_5 
REMARK    3  A    between atoms: C4_7  and  O3_8 
REMARK    4  A    between atoms: C6_12  and  O5_13 
REMARK    5  A    between atoms: C7_15  and  N1_16 
REMARK    6  A    between atoms: C7_15  and  C8_20 
REMARK       I    between atoms: C8_20  and  N2_22 
REMARK    7  A    between atoms: N2_22  and  O7_24 
REMARK    8  A    between atoms: O7_24  and  C9_25 
REMARK    9  A    between atoms: C15_31  and  O8_32 
ROOT
HETATM    1  C2  UNL     1      76.014  25.570  39.685  1.00  0.00     0.181 C 
HETATM    2  C3  UNL     1      77.057  26.467  39.080  1.00  0.00     0.180 C 
HETATM    3  C4  UNL     1      77.866  27.197  40.124  1.00  0.00     0.179 C 
HETATM    4  C5  UNL     1      78.481  26.281  41.141  1.00  0.00     0.165 C 
HETATM    5  O4  UNL     1      79.872  26.149  40.916  1.00  0.00    -0.350 OA
HETATM    6  C6  UNL     1      80.223  24.976  41.584  1.00  0.00     0.303 C 
HETATM    7  C7  UNL     1      79.015  24.025  41.446  1.00  0.00     0.262 C 
HETATM    8  C14 UNL     1      78.058  24.858  40.751  1.00  0.00     0.100 C 
HETATM    9  C15 UNL     1      76.608  24.662  40.766  1.00  0.00     0.162 C 
ENDROOT
BRANCH   7  10
HETATM   10  N1  UNL     1      79.503  22.978  40.507  1.00  0.00    -0.056 N 
ATOM     11  H13 UNL     1      80.115  23.325  39.768  1.00  0.00     0.276 HD
ATOM     12  H12 UNL     1      80.180  22.331  40.910  1.00  0.00     0.276 HD
ATOM     13  H11 UNL     1      78.644  22.539  40.174  1.00  0.00     0.276 HD
ENDBRANCH   7  10
BRANCH   7  14
HETATM   14  C8  UNL     1      78.802  23.444  42.736  1.00  0.00     0.283 C 
HETATM   15  O6  UNL     1      78.522  24.251  43.702  1.00  0.00    -0.268 OA
HETATM   16  N2  UNL     1      78.849  22.087  43.113  1.00  0.00    -0.232 N 
ATOM     17  H2  UNL     1      79.073  21.399  42.394  1.00  0.00     0.197 HD
BRANCH  16  18
HETATM   18  O7  UNL     1      78.616  21.639  44.371  1.00  0.00    -0.272 OA
BRANCH  18  19
HETATM   19  C9  UNL     1      79.417  20.522  44.531  1.00  0.00     0.152 C 
HETATM   20  C10 UNL     1      79.245  19.633  43.291  1.00  0.00     0.034 C 
HETATM   21  C11 UNL     1      80.368  18.640  43.551  1.00  0.00     0.003 C 
HETATM   22  C12 UNL     1      81.478  19.471  44.153  1.00  0.00     0.003 C 
HETATM   23  C13 UNL     1      80.878  20.838  44.435  1.00  0.00     0.034 C 
ENDBRANCH  18  19
ENDBRANCH  16  18
ENDBRANCH   7  14
BRANCH   6  24
HETATM   24  O5  UNL     1      81.380  24.399  41.134  1.00  0.00    -0.368 OA
ATOM     25  H5  UNL     1      81.891  23.972  41.811  1.00  0.00     0.212 HD
ENDBRANCH   6  24
BRANCH   9  26
HETATM   26  O8  UNL     1      75.913  24.696  41.914  1.00  0.00    -0.387 OA
HETATM   27  C16 UNL     1      75.071  25.673  42.236  1.00  0.00     0.202 C 
ENDBRANCH   9  26
BRANCH   3  28
HETATM   28  O3  UNL     1      77.136  28.225  40.722  1.00  0.00    -0.390 OA
ATOM     29  H3  UNL     1      76.724  28.787  40.076  1.00  0.00     0.210 HD
ENDBRANCH   3  28
BRANCH   1  30
HETATM   30  O1  UNL     1      75.342  24.904  38.703  1.00  0.00    -0.385 OA
HETATM   31  C1  UNL     1      75.386  23.536  38.755  1.00  0.00     0.202 C 
ENDBRANCH   1  30
BRANCH   2  32
HETATM   32  O2  UNL     1      76.308  27.517  38.446  1.00  0.00    -0.390 OA
ATOM     33  H2  UNL     1      76.844  27.782  37.707  1.00  0.00     0.210 HD
ENDBRANCH   2  32
TORSDOF 9
ENDMDL
MODEL 5
REMARK VINA RESULT: -7.107807330      6.151      8.808
REMARK  9 active torsions:
REMARK  status: ('A' for Active; 'I' for Inactive)
REMARK    1  A    between atoms: O1_2  and  C2_3 
REMARK    2  A    between atoms: C3_4  and  O2_5 
REMARK    3  A    between atoms: C4_7  and  O3_8 
REMARK    4  A    between atoms: C6_12  and  O5_13 
REMARK    5  A    between atoms: C7_15  and  N1_16 
REMARK    6  A    between atoms: C7_15  and  C8_20 
REMARK       I    between atoms: C8_20  and  N2_22 
REMARK    7  A    between atoms: N2_22  and  O7_24 
REMARK    8  A    between atoms: O7_24  and  C9_25 
REMARK    9  A    between atoms: C15_31  and  O8_32 
ROOT
HETATM    1  C2  UNL     1      67.893  24.459  46.352  1.00  0.00     0.181 C 
HETATM    2  C3  UNL     1      68.745  25.300  47.260  1.00  0.00     0.180 C 
HETATM    3  C4  UNL     1      70.175  25.392  46.787  1.00  0.00     0.179 C 
HETATM    4  C5  UNL     1      70.297  25.857  45.366  1.00  0.00     0.165 C 
HETATM    5  O4  UNL     1      70.750  27.197  45.317  1.00  0.00    -0.350 OA
HETATM    6  C6  UNL     1      70.389  27.640  44.045  1.00  0.00     0.303 C 
HETATM    7  C7  UNL     1      69.053  26.942  43.710  1.00  0.00     0.262 C 
HETATM    8  C14 UNL     1      68.866  26.089  44.863  1.00  0.00     0.100 C 
HETATM    9  C15 UNL     1      68.043  24.880  44.887  1.00  0.00     0.162 C 
ENDROOT
BRANCH   7  10
HETATM   10  N1  UNL     1      68.058  28.048  43.772  1.00  0.00    -0.056 N 
ATOM     11  H13 UNL     1      68.352  28.908  43.309  1.00  0.00     0.276 HD
ATOM     12  H12 UNL     1      67.226  27.899  43.201  1.00  0.00     0.276 HD
ATOM     13  H11 UNL     1      67.874  28.146  44.770  1.00  0.00     0.276 HD
ENDBRANCH   7  10
BRANCH   7  14
HETATM   14  C8  UNL     1      69.162  26.476  42.362  1.00  0.00     0.283 C 
HETATM   15  O6  UNL     1      68.521  27.137  41.460  1.00  0.00    -0.268 OA
HETATM   16  N2  UNL     1      69.890  25.378  41.862  1.00  0.00    -0.232 N 
ATOM     17  H2  UNL     1      70.414  24.810  42.528  1.00  0.00     0.197 HD
BRANCH  16  18
HETATM   18  O7  UNL     1      69.937  25.028  40.553  1.00  0.00    -0.272 OA
BRANCH  18  19
HETATM   19  C9  UNL     1      70.743  23.905  40.488  1.00  0.00     0.152 C 
HETATM   20  C10 UNL     1      70.289  23.065  39.286  1.00  0.00     0.034 C 
HETATM   21  C11 UNL     1      71.433  22.062  39.249  1.00  0.00     0.003 C 
HETATM   22  C12 UNL     1      72.658  22.869  39.617  1.00  0.00     0.003 C 
HETATM   23  C13 UNL     1      72.149  24.224  40.078  1.00  0.00     0.034 C 
ENDBRANCH  18  19
ENDBRANCH  16  18
ENDBRANCH   7  14
BRANCH   6  24
HETATM   24  O5  UNL     1      70.294  29.001  43.932  1.00  0.00    -0.368 OA
ATOM     25  H5  UNL     1      71.011  29.403  43.455  1.00  0.00     0.212 HD
ENDBRANCH   6  24
BRANCH   9  26
HETATM   26  O8  UNL     1      68.302  23.844  44.072  1.00  0.00    -0.387 OA
HETATM   27  C16 UNL     1      68.673  22.643  44.503  1.00  0.00     0.202 C 
ENDBRANCH   9  26
BRANCH   3  28
HETATM   28  O3  UNL     1      70.873  24.205  47.010  1.00  0.00    -0.390 OA
ATOM     29  H3  UNL     1      71.494  24.024  46.313  1.00  0.00     0.210 HD
ENDBRANCH   3  28
BRANCH   1  30
HETATM   30  O1  UNL     1      66.605  24.443  46.799  1.00  0.00    -0.385 OA
HETATM   31  C1  UNL     1      65.683  25.101  46.029  1.00  0.00     0.202 C 
ENDBRANCH   1  30
BRANCH   2  32
HETATM   32  O2  UNL     1      68.846  24.536  48.473  1.00  0.00    -0.390 OA
ATOM     33  H2  UNL     1      68.456  23.696  48.261  1.00  0.00     0.210 HD
ENDBRANCH   2  32
TORSDOF 9
ENDMDL
