MODEL 1
REMARK VINA RESULT: -7.560044844      0.000      0.000
REMARK  9 active torsions:
REMARK  status: ('A' for Active; 'I' for Inactive)
REMARK    1  A    between atoms: S1_2  and  C2_3 
REMARK    2  A    between atoms: C3_5  and  C4_6 
REMARK    3  A    between atoms: C4_6  and  S2_7 
REMARK    4  A    between atoms: S2_7  and  C5_8 
REMARK    5  A    between atoms: C8_11  and  O2_12 
REMARK    6  A    between atoms: C9_14  and  C10_15 
REMARK    7  A    between atoms: C11_19  and  O5_20 
REMARK    8  A    between atoms: C12_22  and  O6_23 
REMARK    9  A    between atoms: C13_25  and  O7_26 
ROOT
HETATM    1  C2  UNL     1      78.790  24.356  42.162  1.00  0.00     0.214 C 
HETATM    2  O1  UNL     1      77.400  24.383  42.118  1.00  0.00    -0.364 OA
HETATM    3  C3  UNL     1      76.993  25.660  41.764  1.00  0.00     0.163 C 
HETATM    4  C11 UNL     1      77.189  25.816  40.277  1.00  0.00     0.179 C 
HETATM    5  C12 UNL     1      78.665  25.619  39.994  1.00  0.00     0.181 C 
HETATM    6  C13 UNL     1      79.433  25.379  41.279  1.00  0.00     0.188 C 
ENDROOT
BRANCH   3   7
HETATM    7  C4  UNL     1      75.572  25.946  42.184  1.00  0.00     0.111 C 
BRANCH   7   8
HETATM    8  S2  UNL     1      75.472  27.278  43.401  1.00  0.00    -0.135 SA
BRANCH   8   9
HETATM    9  C5  UNL     1      73.784  28.000  43.287  1.00  0.00     0.184 C 
HETATM   10  C6  UNL     1      72.786  26.932  43.003  1.00  0.00     0.045 C 
HETATM   11  C7  UNL     1      71.643  26.895  43.981  1.00  0.00     0.038 C 
HETATM   12  C8  UNL     1      71.207  28.269  44.416  1.00  0.00     0.156 C 
HETATM   13  C9  UNL     1      72.313  29.258  44.564  1.00  0.00     0.240 C 
HETATM   14  O4  UNL     1      73.579  28.752  44.404  1.00  0.00    -0.359 OA
BRANCH  12  15
HETATM   15  O2  UNL     1      70.210  28.701  43.509  1.00  0.00    -0.393 OA
ATOM     16  H2  UNL     1      69.523  28.045  43.512  1.00  0.00     0.210 HD
ENDBRANCH  12  15
BRANCH  13  17
HETATM   17  C10 UNL     1      72.065  30.458  43.705  1.00  0.00     0.262 C 
HETATM   18  N1  UNL     1      71.036  31.391  43.995  1.00  0.00    -0.060 NA
HETATM   19  O3  UNL     1      72.765  30.684  42.690  1.00  0.00    -0.274 OA
ENDBRANCH  13  17
ENDBRANCH   8   9
ENDBRANCH   7   8
ENDBRANCH   3   7
BRANCH   4  20
HETATM   20  O5  UNL     1      76.495  24.853  39.551  1.00  0.00    -0.390 OA
ATOM     21  H5  UNL     1      77.062  24.375  38.957  1.00  0.00     0.210 HD
ENDBRANCH   4  20
BRANCH   1  22
HETATM   22  S1  UNL     1      79.425  22.686  41.831  1.00  0.00    -0.139 SA
HETATM   23  C1  UNL     1      80.123  22.060  43.392  1.00  0.00     0.092 C 
ENDBRANCH   1  22
BRANCH   5  24
HETATM   24  O6  UNL     1      78.887  24.520  39.171  1.00  0.00    -0.390 OA
ATOM     25  H6  UNL     1      79.707  24.087  39.379  1.00  0.00     0.210 HD
ENDBRANCH   5  24
BRANCH   6  26
HETATM   26  O7  UNL     1      80.691  24.872  40.915  1.00  0.00    -0.389 OA
ATOM     27  H7  UNL     1      81.318  25.576  41.033  1.00  0.00     0.210 HD
ENDBRANCH   6  26
TORSDOF 9
ENDMDL
MODEL 2
REMARK VINA RESULT: -7.460160061      1.713      2.284
REMARK  9 active torsions:
REMARK  status: ('A' for Active; 'I' for Inactive)
REMARK    1  A    between atoms: S1_2  and  C2_3 
REMARK    2  A    between atoms: C3_5  and  C4_6 
REMARK    3  A    between atoms: C4_6  and  S2_7 
REMARK    4  A    between atoms: S2_7  and  C5_8 
REMARK    5  A    between atoms: C8_11  and  O2_12 
REMARK    6  A    between atoms: C9_14  and  C10_15 
REMARK    7  A    between atoms: C11_19  and  O5_20 
REMARK    8  A    between atoms: C12_22  and  O6_23 
REMARK    9  A    between atoms: C13_25  and  O7_26 
ROOT
HETATM    1  C2  UNL     1      76.364  24.397  40.449  1.00  0.00     0.214 C 
HETATM    2  O1  UNL     1      76.169  25.773  40.507  1.00  0.00    -0.364 OA
HETATM    3  C3  UNL     1      76.927  26.283  41.549  1.00  0.00     0.163 C 
HETATM    4  C11 UNL     1      78.362  26.358  41.088  1.00  0.00     0.179 C 
HETATM    5  C12 UNL     1      78.797  24.950  40.740  1.00  0.00     0.181 C 
HETATM    6  C13 UNL     1      77.682  23.959  41.007  1.00  0.00     0.188 C 
ENDROOT
BRANCH   3   7
HETATM    7  C4  UNL     1      76.414  27.618  42.032  1.00  0.00     0.111 C 
BRANCH   7   8
HETATM    8  S2  UNL     1      75.572  27.491  43.627  1.00  0.00    -0.135 SA
BRANCH   8   9
HETATM    9  C5  UNL     1      73.865  28.138  43.397  1.00  0.00     0.184 C 
HETATM   10  C6  UNL     1      72.937  27.027  43.043  1.00  0.00     0.045 C 
HETATM   11  C7  UNL     1      71.733  26.936  43.940  1.00  0.00     0.038 C 
HETATM   12  C8  UNL     1      71.208  28.288  44.346  1.00  0.00     0.156 C 
HETATM   13  C9  UNL     1      72.255  29.324  44.571  1.00  0.00     0.240 C 
HETATM   14  O4  UNL     1      73.550  28.876  44.498  1.00  0.00    -0.359 OA
BRANCH  12  15
HETATM   15  O2  UNL     1      70.257  28.679  43.374  1.00  0.00    -0.393 OA
ATOM     16  H2  UNL     1      69.825  29.459  43.699  1.00  0.00     0.210 HD
ENDBRANCH  12  15
BRANCH  13  17
HETATM   17  C10 UNL     1      72.014  30.515  43.698  1.00  0.00     0.262 C 
HETATM   18  N1  UNL     1      70.999  31.465  43.986  1.00  0.00    -0.060 NA
HETATM   19  O3  UNL     1      72.706  30.719  42.673  1.00  0.00    -0.274 OA
ENDBRANCH  13  17
ENDBRANCH   8   9
ENDBRANCH   7   8
ENDBRANCH   3   7
BRANCH   4  20
HETATM   20  O5  UNL     1      78.506  27.133  39.942  1.00  0.00    -0.390 OA
ATOM     21  H5  UNL     1      78.641  28.051  40.145  1.00  0.00     0.210 HD
ENDBRANCH   4  20
BRANCH   1  22
HETATM   22  S1  UNL     1      76.104  23.769  38.764  1.00  0.00    -0.139 SA
HETATM   23  C1  UNL     1      74.778  22.524  38.856  1.00  0.00     0.092 C 
ENDBRANCH   1  22
BRANCH   5  24
HETATM   24  O6  UNL     1      79.136  24.835  39.396  1.00  0.00    -0.390 OA
ATOM     25  H6  UNL     1      79.197  23.926  39.126  1.00  0.00     0.210 HD
ENDBRANCH   5  24
BRANCH   6  26
HETATM   26  O7  UNL     1      78.027  22.766  40.350  1.00  0.00    -0.389 OA
ATOM     27  H7  UNL     1      77.846  22.056  40.954  1.00  0.00     0.210 HD
ENDBRANCH   6  26
TORSDOF 9
ENDMDL
MODEL 3
REMARK VINA RESULT: -7.363923620      1.839      2.426
REMARK  9 active torsions:
REMARK  status: ('A' for Active; 'I' for Inactive)
REMARK    1  A    between atoms: S1_2  and  C2_3 
REMARK    2  A    between atoms: C3_5  and  C4_6 
REMARK    3  A    between atoms: C4_6  and  S2_7 
REMARK    4  A    between atoms: S2_7  and  C5_8 
REMARK    5  A    between atoms: C8_11  and  O2_12 
REMARK    6  A    between atoms: C9_14  and  C10_15 
REMARK    7  A    between atoms: C11_19  and  O5_20 
REMARK    8  A    between atoms: C12_22  and  O6_23 
REMARK    9  A    between atoms: C13_25  and  O7_26 
ROOT
HETATM    1  C2  UNL     1      78.711  24.410  42.145  1.00  0.00     0.214 C 
HETATM    2  O1  UNL     1      77.326  24.374  42.026  1.00  0.00    -0.364 OA
HETATM    3  C3  UNL     1      76.876  25.643  41.699  1.00  0.00     0.163 C 
HETATM    4  C11 UNL     1      77.143  25.869  40.232  1.00  0.00     0.179 C 
HETATM    5  C12 UNL     1      78.639  25.754  40.023  1.00  0.00     0.181 C 
HETATM    6  C13 UNL     1      79.349  25.498  41.338  1.00  0.00     0.188 C 
ENDROOT
BRANCH   3   7
HETATM    7  C4  UNL     1      75.422  25.845  42.051  1.00  0.00     0.111 C 
BRANCH   7   8
HETATM    8  S2  UNL     1      75.141  27.393  42.940  1.00  0.00    -0.135 SA
BRANCH   8   9
HETATM    9  C5  UNL     1      73.455  27.306  43.671  1.00  0.00     0.184 C 
HETATM   10  C6  UNL     1      73.063  28.634  44.220  1.00  0.00     0.045 C 
HETATM   11  C7  UNL     1      71.747  29.142  43.696  1.00  0.00     0.038 C 
HETATM   12  C8  UNL     1      70.732  28.045  43.517  1.00  0.00     0.156 C 
HETATM   13  C9  UNL     1      71.292  26.744  43.054  1.00  0.00     0.240 C 
HETATM   14  O4  UNL     1      72.627  26.758  42.738  1.00  0.00    -0.359 OA
BRANCH  12  15
HETATM   15  O2  UNL     1      70.021  27.928  44.735  1.00  0.00    -0.393 OA
ATOM     16  H2  UNL     1      69.244  27.410  44.560  1.00  0.00     0.210 HD
ENDBRANCH  12  15
BRANCH  13  17
HETATM   17  C10 UNL     1      70.944  25.649  44.013  1.00  0.00     0.262 C 
HETATM   18  N1  UNL     1      69.844  24.779  43.795  1.00  0.00    -0.060 NA
HETATM   19  O3  UNL     1      71.618  25.459  45.053  1.00  0.00    -0.274 OA
ENDBRANCH  13  17
ENDBRANCH   8   9
ENDBRANCH   7   8
ENDBRANCH   3   7
BRANCH   4  20
HETATM   20  O5  UNL     1      76.536  24.905  39.433  1.00  0.00    -0.390 OA
ATOM     21  H5  UNL     1      77.145  24.515  38.817  1.00  0.00     0.210 HD
ENDBRANCH   4  20
BRANCH   1  22
HETATM   22  S1  UNL     1      79.444  22.787  41.786  1.00  0.00    -0.139 SA
HETATM   23  C1  UNL     1      80.003  22.090  43.373  1.00  0.00     0.092 C 
ENDBRANCH   1  22
BRANCH   5  24
HETATM   24  O6  UNL     1      78.958  24.701  39.172  1.00  0.00    -0.390 OA
ATOM     25  H6  UNL     1      79.895  24.644  39.022  1.00  0.00     0.210 HD
ENDBRANCH   5  24
BRANCH   6  26
HETATM   26  O7  UNL     1      80.648  25.065  41.025  1.00  0.00    -0.389 OA
ATOM     27  H7  UNL     1      81.249  25.637  41.489  1.00  0.00     0.210 HD
ENDBRANCH   6  26
TORSDOF 9
ENDMDL
MODEL 4
REMARK VINA RESULT: -7.226310542      2.452      3.095
REMARK  9 active torsions:
REMARK  status: ('A' for Active; 'I' for Inactive)
REMARK    1  A    between atoms: S1_2  and  C2_3 
REMARK    2  A    between atoms: C3_5  and  C4_6 
REMARK    3  A    between atoms: C4_6  and  S2_7 
REMARK    4  A    between atoms: S2_7  and  C5_8 
REMARK    5  A    between atoms: C8_11  and  O2_12 
REMARK    6  A    between atoms: C9_14  and  C10_15 
REMARK    7  A    between atoms: C11_19  and  O5_20 
REMARK    8  A    between atoms: C12_22  and  O6_23 
REMARK    9  A    between atoms: C13_25  and  O7_26 
ROOT
HETATM    1  C2  UNL     1      74.905  24.076  40.423  1.00  0.00     0.214 C 
HETATM    2  O1  UNL     1      74.957  25.445  40.661  1.00  0.00    -0.364 OA
HETATM    3  C3  UNL     1      76.268  25.797  40.941  1.00  0.00     0.163 C 
HETATM    4  C11 UNL     1      77.026  25.847  39.638  1.00  0.00     0.179 C 
HETATM    5  C12 UNL     1      76.955  24.464  39.022  1.00  0.00     0.181 C 
HETATM    6  C13 UNL     1      76.199  23.510  39.925  1.00  0.00     0.188 C 
ENDROOT
BRANCH   3   7
HETATM    7  C4  UNL     1      76.364  27.094  41.705  1.00  0.00     0.111 C 
BRANCH   7   8
HETATM    8  S2  UNL     1      75.621  26.978  43.349  1.00  0.00    -0.135 SA
BRANCH   8   9
HETATM    9  C5  UNL     1      73.941  27.723  43.245  1.00  0.00     0.184 C 
HETATM   10  C6  UNL     1      72.928  26.669  42.960  1.00  0.00     0.045 C 
HETATM   11  C7  UNL     1      71.788  26.644  43.943  1.00  0.00     0.038 C 
HETATM   12  C8  UNL     1      71.373  28.021  44.385  1.00  0.00     0.156 C 
HETATM   13  C9  UNL     1      72.493  28.995  44.533  1.00  0.00     0.240 C 
HETATM   14  O4  UNL     1      73.751  28.473  44.366  1.00  0.00    -0.359 OA
BRANCH  12  15
HETATM   15  O2  UNL     1      70.379  28.471  43.485  1.00  0.00    -0.393 OA
ATOM     16  H2  UNL     1      69.535  28.265  43.871  1.00  0.00     0.210 HD
ENDBRANCH  12  15
BRANCH  13  17
HETATM   17  C10 UNL     1      72.258  30.202  43.681  1.00  0.00     0.262 C 
HETATM   18  N1  UNL     1      71.150  31.065  43.887  1.00  0.00    -0.060 NA
HETATM   19  O3  UNL     1      73.039  30.497  42.746  1.00  0.00    -0.274 OA
ENDBRANCH  13  17
ENDBRANCH   8   9
ENDBRANCH   7   8
ENDBRANCH   3   7
BRANCH   4  20
HETATM   20  O5  UNL     1      76.455  26.735  38.732  1.00  0.00    -0.390 OA
ATOM     21  H5  UNL     1      75.515  26.620  38.662  1.00  0.00     0.210 HD
ENDBRANCH   4  20
BRANCH   1  22
HETATM   22  S1  UNL     1      73.519  23.652  39.327  1.00  0.00    -0.139 SA
HETATM   23  C1  UNL     1      71.986  23.966  40.259  1.00  0.00     0.092 C 
ENDBRANCH   1  22
BRANCH   5  24
HETATM   24  O6  UNL     1      76.295  24.482  37.798  1.00  0.00    -0.390 OA
ATOM     25  H6  UNL     1      76.858  24.800  37.101  1.00  0.00     0.210 HD
ENDBRANCH   5  24
BRANCH   6  26
HETATM   26  O7  UNL     1      75.880  22.381  39.152  1.00  0.00    -0.389 OA
ATOM     27  H7  UNL     1      75.635  22.697  38.290  1.00  0.00     0.210 HD
ENDBRANCH   6  26
TORSDOF 9
ENDMDL
MODEL 5
REMARK VINA RESULT: -7.146819033      5.075      7.489
REMARK  9 active torsions:
REMARK  status: ('A' for Active; 'I' for Inactive)
REMARK    1  A    between atoms: S1_2  and  C2_3 
REMARK    2  A    between atoms: C3_5  and  C4_6 
REMARK    3  A    between atoms: C4_6  and  S2_7 
REMARK    4  A    between atoms: S2_7  and  C5_8 
REMARK    5  A    between atoms: C8_11  and  O2_12 
REMARK    6  A    between atoms: C9_14  and  C10_15 
REMARK    7  A    between atoms: C11_19  and  O5_20 
REMARK    8  A    between atoms: C12_22  and  O6_23 
REMARK    9  A    between atoms: C13_25  and  O7_26 
ROOT
HETATM    1  C2  UNL     1      81.563  19.683  45.009  1.00  0.00     0.214 C 
HETATM    2  O1  UNL     1      80.487  20.565  45.015  1.00  0.00    -0.364 OA
HETATM    3  C3  UNL     1      80.073  20.766  43.708  1.00  0.00     0.163 C 
HETATM    4  C11 UNL     1      79.272  19.560  43.282  1.00  0.00     0.179 C 
HETATM    5  C12 UNL     1      80.184  18.355  43.383  1.00  0.00     0.181 C 
HETATM    6  C13 UNL     1      81.574  18.766  43.826  1.00  0.00     0.188 C 
ENDROOT
BRANCH   3   7
HETATM    7  C4  UNL     1      79.299  22.051  43.542  1.00  0.00     0.111 C 
BRANCH   7   8
HETATM    8  S2  UNL     1      79.906  23.043  42.159  1.00  0.00    -0.135 SA
BRANCH   8   9
HETATM    9  C5  UNL     1      78.445  23.833  41.368  1.00  0.00     0.184 C 
HETATM   10  C6  UNL     1      78.105  25.103  42.068  1.00  0.00     0.045 C 
HETATM   11  C7  UNL     1      78.018  26.294  41.151  1.00  0.00     0.038 C 
HETATM   12  C8  UNL     1      77.410  25.956  39.817  1.00  0.00     0.156 C 
HETATM   13  C9  UNL     1      77.766  24.607  39.291  1.00  0.00     0.240 C 
HETATM   14  O4  UNL     1      78.691  23.913  40.031  1.00  0.00    -0.359 OA
BRANCH  12  15
HETATM   15  O2  UNL     1      76.012  26.142  39.932  1.00  0.00    -0.393 OA
ATOM     16  H2  UNL     1      75.604  25.661  39.221  1.00  0.00     0.210 HD
ENDBRANCH  12  15
BRANCH  13  17
HETATM   17  C10 UNL     1      76.533  23.804  39.020  1.00  0.00     0.262 C 
HETATM   18  N1  UNL     1      75.887  23.821  37.756  1.00  0.00    -0.060 NA
HETATM   19  O3  UNL     1      76.022  23.082  39.907  1.00  0.00    -0.274 OA
ENDBRANCH  13  17
ENDBRANCH   8   9
ENDBRANCH   7   8
ENDBRANCH   3   7
BRANCH   4  20
HETATM   20  O5  UNL     1      78.184  19.330  44.119  1.00  0.00    -0.390 OA
ATOM     21  H5  UNL     1      77.649  18.604  43.820  1.00  0.00     0.210 HD
ENDBRANCH   4  20
BRANCH   1  22
HETATM   22  S1  UNL     1      81.668  18.766  46.574  1.00  0.00    -0.139 SA
HETATM   23  C1  UNL     1      80.062  18.953  47.412  1.00  0.00     0.092 C 
ENDBRANCH   1  22
BRANCH   5  24
HETATM   24  O6  UNL     1      79.713  17.432  44.310  1.00  0.00    -0.390 OA
ATOM     25  H6  UNL     1      78.770  17.488  44.412  1.00  0.00     0.210 HD
ENDBRANCH   5  24
BRANCH   6  26
HETATM   26  O7  UNL     1      82.240  17.595  44.225  1.00  0.00    -0.389 OA
ATOM     27  H7  UNL     1      82.260  17.019  43.469  1.00  0.00     0.210 HD
ENDBRANCH   6  26
TORSDOF 9
ENDMDL
