MODEL 1
REMARK VINA RESULT: -10.840327360      0.000      0.000
REMARK  12 active torsions:
REMARK  status: ('A' for Active; 'I' for Inactive)
REMARK    1  A    between atoms: C1_4  and  C2_6 
REMARK    2  A    between atoms: C5_9  and  O1_10 
REMARK    3  A    between atoms: O1_10  and  C6_11 
REMARK    4  A    between atoms: N3_14  and  C9_15 
REMARK    5  A    between atoms: N4_18  and  C12_19 
REMARK    6  A    between atoms: C12_19  and  O2_20 
REMARK    7  A    between atoms: C12_19  and  C13_22 
REMARK    8  A    between atoms: C13_22  and  C14_23 
REMARK    9  A    between atoms: C13_22  and  N5_30 
REMARK   10  A    between atoms: C14_23  and  C15_24 
REMARK       I    between atoms: N5_30  and  C21_32 
REMARK   11  A    between atoms: C21_32  and  C22_34 
REMARK   12  A    between atoms: C22_34  and  N6_35 
ROOT
HETATM    1  C12 UNL     1      21.227  -0.864  16.201  1.00  0.00     0.137 C 
ENDROOT
BRANCH   1   2
HETATM    2  N4  UNL     1      20.796  -2.114  15.716  1.00  0.00    -0.364 N 
HETATM    3  C11 UNL     1      19.378  -2.402  15.650  1.00  0.00     0.127 C 
HETATM    4  C10 UNL     1      19.200  -3.657  16.523  1.00  0.00     0.055 C 
HETATM    5  C9  UNL     1      19.908  -4.807  15.832  1.00  0.00     0.226 C 
HETATM    6  C29 UNL     1      20.930  -4.394  14.837  1.00  0.00     0.055 C 
HETATM    7  C28 UNL     1      21.694  -3.153  15.333  1.00  0.00     0.127 C 
BRANCH   5   8
HETATM    8  N3  UNL     1      18.858  -5.633  15.265  1.00  0.00     0.093 N 
HETATM    9  C8  UNL     1      17.688  -5.711  16.105  1.00  0.00     0.275 C 
HETATM   10  C7  UNL     1      16.491  -5.043  15.512  1.00  0.00     0.062 C 
HETATM   11  C6  UNL     1      16.118  -5.618  14.158  1.00  0.00     0.132 C 
HETATM   12  C31 UNL     1      17.394  -5.834  13.363  1.00  0.00     0.062 C 
HETATM   13  C30 UNL     1      18.483  -5.024  13.988  1.00  0.00     0.275 C 
BRANCH  11  14
HETATM   14  O1  UNL     1      15.399  -6.801  14.258  1.00  0.00    -0.346 OA
BRANCH  14  15
HETATM   15  C5  UNL     1      15.503  -7.909  13.476  1.00  0.00     0.069 A 
HETATM   16  C4  UNL     1      14.669  -8.002  12.359  1.00  0.00     0.037 A 
HETATM   17  C3  UNL     1      14.717  -9.091  11.520  1.00  0.00     0.017 A 
HETATM   18  C2  UNL     1      15.610 -10.121  11.783  1.00  0.00     0.005 A 
HETATM   19  C33 UNL     1      16.447 -10.049  12.884  1.00  0.00     0.017 A 
HETATM   20  C32 UNL     1      16.373  -8.949  13.700  1.00  0.00     0.037 A 
BRANCH  18  21
HETATM   21  C1  UNL     1      15.720 -11.301  10.947  1.00  0.00     0.120 C 
HETATM   22  N1  UNL     1      16.529 -11.353   9.967  1.00  0.00    -0.387 N 
ATOM     23  H12 UNL     1      16.606 -12.182   9.379  1.00  0.00     0.157 HD
ATOM     24  H11 UNL     1      17.106 -10.531   9.783  1.00  0.00     0.157 HD
HETATM   25  N2  UNL     1      14.922 -12.436  11.201  1.00  0.00    -0.082 NA
ENDBRANCH  18  21
ENDBRANCH  14  15
ENDBRANCH  11  14
ENDBRANCH   5   8
ENDBRANCH   1   2
BRANCH   1  26
HETATM   26  O2  UNL     1      21.185   0.115  15.341  1.00  0.00    -0.348 OA
ATOM     27  H2  UNL     1      20.836   0.935  15.673  1.00  0.00     0.219 HD
ENDBRANCH   1  26
BRANCH   1  28
HETATM   28  C13 UNL     1      21.703  -0.518  17.524  1.00  0.00     0.159 C 
BRANCH  28  29
HETATM   29  C14 UNL     1      23.084  -0.065  17.750  1.00  0.00     0.038 C 
BRANCH  29  30
HETATM   30  C15 UNL     1      23.857  -0.449  18.932  1.00  0.00    -0.012 C 
HETATM   31  C16 UNL     1      25.323   0.018  18.788  1.00  0.00     0.005 C 
HETATM   32  C17 UNL     1      25.488   1.479  19.036  1.00  0.00     0.000 C 
HETATM   33  C18 UNL     1      25.072   1.862  20.446  1.00  0.00     0.000 C 
HETATM   34  C19 UNL     1      23.616   1.472  20.573  1.00  0.00     0.000 C 
HETATM   35  C20 UNL     1      23.398   0.027  20.268  1.00  0.00     0.005 C 
ENDBRANCH  29  30
ENDBRANCH  28  29
BRANCH  28  36
HETATM   36  N5  UNL     1      20.762   0.500  18.049  1.00  0.00    -0.347 N 
HETATM   37  C21 UNL     1      19.601   0.128  18.738  1.00  0.00     0.254 C 
HETATM   38  O3  UNL     1      19.356  -1.114  18.914  1.00  0.00    -0.271 OA
ATOM     39  H5  UNL     1      20.964   1.489  17.906  1.00  0.00     0.163 HD
BRANCH  37  40
HETATM   40  C22 UNL     1      18.630   1.096  19.283  1.00  0.00     0.203 C 
HETATM   41  C23 UNL     1      19.312   1.865  20.406  1.00  0.00     0.049 C 
HETATM   42  C24 UNL     1      18.314   2.957  20.814  1.00  0.00     0.003 C 
HETATM   43  C25 UNL     1      17.166   2.250  21.480  1.00  0.00     0.000 C 
HETATM   44  C26 UNL     1      16.501   1.235  20.606  1.00  0.00     0.003 C 
HETATM   45  C27 UNL     1      17.450   0.374  19.846  1.00  0.00     0.049 C 
BRANCH  40  46
HETATM   46  N6  UNL     1      18.277   2.057  18.263  1.00  0.00    -0.061 N 
ATOM     47  H63 UNL     1      18.779   2.937  18.374  1.00  0.00     0.275 HD
ATOM     48  H62 UNL     1      18.639   1.795  17.346  1.00  0.00     0.275 HD
ATOM     49  H61 UNL     1      17.266   2.191  18.252  1.00  0.00     0.275 HD
ENDBRANCH  40  46
ENDBRANCH  37  40
ENDBRANCH  28  36
ENDBRANCH   1  28
TORSDOF 12
ENDMDL
MODEL 2
REMARK VINA RESULT: -10.611281431      1.371      4.189
REMARK  12 active torsions:
REMARK  status: ('A' for Active; 'I' for Inactive)
REMARK    1  A    between atoms: C1_4  and  C2_6 
REMARK    2  A    between atoms: C5_9  and  O1_10 
REMARK    3  A    between atoms: O1_10  and  C6_11 
REMARK    4  A    between atoms: N3_14  and  C9_15 
REMARK    5  A    between atoms: N4_18  and  C12_19 
REMARK    6  A    between atoms: C12_19  and  O2_20 
REMARK    7  A    between atoms: C12_19  and  C13_22 
REMARK    8  A    between atoms: C13_22  and  C14_23 
REMARK    9  A    between atoms: C13_22  and  N5_30 
REMARK   10  A    between atoms: C14_23  and  C15_24 
REMARK       I    between atoms: N5_30  and  C21_32 
REMARK   11  A    between atoms: C21_32  and  C22_34 
REMARK   12  A    between atoms: C22_34  and  N6_35 
ROOT
HETATM    1  C12 UNL     1      19.177   0.177  16.856  1.00  0.00     0.137 C 
ENDROOT
BRANCH   1   2
HETATM    2  N4  UNL     1      19.265  -1.065  16.199  1.00  0.00    -0.364 N 
HETATM    3  C11 UNL     1      18.243  -2.065  16.427  1.00  0.00     0.127 C 
HETATM    4  C10 UNL     1      19.011  -3.283  16.972  1.00  0.00     0.055 C 
HETATM    5  C9  UNL     1      19.895  -3.811  15.858  1.00  0.00     0.226 C 
HETATM    6  C29 UNL     1      20.168  -2.837  14.772  1.00  0.00     0.055 C 
HETATM    7  C28 UNL     1      20.355  -1.423  15.351  1.00  0.00     0.127 C 
BRANCH   5   8
HETATM    8  N3  UNL     1      19.253  -5.025  15.389  1.00  0.00     0.093 N 
HETATM    9  C8  UNL     1      18.103  -5.396  16.178  1.00  0.00     0.275 C 
HETATM   10  C7  UNL     1      16.815  -5.284  15.432  1.00  0.00     0.062 C 
HETATM   11  C6  UNL     1      16.797  -6.136  14.176  1.00  0.00     0.132 C 
HETATM   12  C31 UNL     1      18.142  -5.994  13.483  1.00  0.00     0.062 C 
HETATM   13  C30 UNL     1      18.819  -4.773  14.014  1.00  0.00     0.275 C 
BRANCH  11  14
HETATM   14  O1  UNL     1      16.521  -7.470  14.437  1.00  0.00    -0.346 OA
BRANCH  14  15
HETATM   15  C5  UNL     1      16.131  -8.429  13.555  1.00  0.00     0.069 A 
HETATM   16  C4  UNL     1      15.178  -8.084  12.593  1.00  0.00     0.037 A 
HETATM   17  C3  UNL     1      14.736  -8.999  11.666  1.00  0.00     0.017 A 
HETATM   18  C2  UNL     1      15.242 -10.293  11.682  1.00  0.00     0.005 A 
HETATM   19  C33 UNL     1      16.188 -10.655  12.626  1.00  0.00     0.017 A 
HETATM   20  C32 UNL     1      16.607  -9.719  13.536  1.00  0.00     0.037 A 
BRANCH  18  21
HETATM   21  C1  UNL     1      14.825 -11.313  10.739  1.00  0.00     0.120 C 
HETATM   22  N1  UNL     1      14.429 -11.018   9.567  1.00  0.00    -0.387 N 
ATOM     23  H12 UNL     1      14.136 -11.736   8.905  1.00  0.00     0.157 HD
ATOM     24  H11 UNL     1      14.412 -10.032   9.305  1.00  0.00     0.157 HD
HETATM   25  N2  UNL     1      14.849 -12.676  11.102  1.00  0.00    -0.082 NA
ENDBRANCH  18  21
ENDBRANCH  14  15
ENDBRANCH  11  14
ENDBRANCH   5   8
ENDBRANCH   1   2
BRANCH   1  26
HETATM   26  O2  UNL     1      18.799   1.179  16.110  1.00  0.00    -0.348 OA
ATOM     27  H2  UNL     1      17.967   1.065  15.666  1.00  0.00     0.219 HD
ENDBRANCH   1  26
BRANCH   1  28
HETATM   28  C13 UNL     1      19.440   0.493  18.244  1.00  0.00     0.159 C 
BRANCH  28  29
HETATM   29  C14 UNL     1      18.632  -0.083  19.330  1.00  0.00     0.038 C 
BRANCH  29  30
HETATM   30  C15 UNL     1      17.376   0.516  19.782  1.00  0.00    -0.012 C 
HETATM   31  C16 UNL     1      17.285   0.472  21.323  1.00  0.00     0.005 C 
HETATM   32  C17 UNL     1      18.128   1.513  21.978  1.00  0.00     0.000 C 
HETATM   33  C18 UNL     1      17.701   2.916  21.583  1.00  0.00     0.000 C 
HETATM   34  C19 UNL     1      17.853   2.990  20.079  1.00  0.00     0.000 C 
HETATM   35  C20 UNL     1      17.075   1.922  19.387  1.00  0.00     0.005 C 
ENDBRANCH  29  30
ENDBRANCH  28  29
BRANCH  28  36
HETATM   36  N5  UNL     1      20.869   0.176  18.477  1.00  0.00    -0.347 N 
HETATM   37  C21 UNL     1      21.675   0.999  19.273  1.00  0.00     0.254 C 
HETATM   38  O3  UNL     1      21.162   2.040  19.807  1.00  0.00    -0.271 OA
ATOM     39  H5  UNL     1      21.273  -0.657  18.048  1.00  0.00     0.163 HD
BRANCH  37  40
HETATM   40  C22 UNL     1      23.102   0.733  19.538  1.00  0.00     0.203 C 
HETATM   41  C23 UNL     1      23.816   2.073  19.652  1.00  0.00     0.049 C 
HETATM   42  C24 UNL     1      25.248   1.733  20.089  1.00  0.00     0.003 C 
HETATM   43  C25 UNL     1      25.897   1.057  18.913  1.00  0.00     0.000 C 
HETATM   44  C26 UNL     1      25.180  -0.177  18.464  1.00  0.00     0.003 C 
HETATM   45  C27 UNL     1      23.699  -0.031  18.403  1.00  0.00     0.049 C 
BRANCH  40  46
HETATM   46  N6  UNL     1      23.244   0.065  20.812  1.00  0.00    -0.061 N 
ATOM     47  H63 UNL     1      23.095   0.699  21.596  1.00  0.00     0.275 HD
ATOM     48  H62 UNL     1      22.476  -0.580  20.995  1.00  0.00     0.275 HD
ATOM     49  H61 UNL     1      24.153  -0.396  20.859  1.00  0.00     0.275 HD
ENDBRANCH  40  46
ENDBRANCH  37  40
ENDBRANCH  28  36
ENDBRANCH   1  28
TORSDOF 12
ENDMDL
MODEL 3
REMARK VINA RESULT: -10.584210732      1.239      1.516
REMARK  12 active torsions:
REMARK  status: ('A' for Active; 'I' for Inactive)
REMARK    1  A    between atoms: C1_4  and  C2_6 
REMARK    2  A    between atoms: C5_9  and  O1_10 
REMARK    3  A    between atoms: O1_10  and  C6_11 
REMARK    4  A    between atoms: N3_14  and  C9_15 
REMARK    5  A    between atoms: N4_18  and  C12_19 
REMARK    6  A    between atoms: C12_19  and  O2_20 
REMARK    7  A    between atoms: C12_19  and  C13_22 
REMARK    8  A    between atoms: C13_22  and  C14_23 
REMARK    9  A    between atoms: C13_22  and  N5_30 
REMARK   10  A    between atoms: C14_23  and  C15_24 
REMARK       I    between atoms: N5_30  and  C21_32 
REMARK   11  A    between atoms: C21_32  and  C22_34 
REMARK   12  A    between atoms: C22_34  and  N6_35 
ROOT
HETATM    1  C12 UNL     1      21.919  -1.849  16.989  1.00  0.00     0.137 C 
ENDROOT
BRANCH   1   2
HETATM    2  N4  UNL     1      20.846  -2.653  16.554  1.00  0.00    -0.364 N 
HETATM    3  C11 UNL     1      20.092  -2.260  15.383  1.00  0.00     0.127 C 
HETATM    4  C10 UNL     1      18.644  -2.120  15.886  1.00  0.00     0.055 C 
HETATM    5  C9  UNL     1      18.153  -3.502  16.276  1.00  0.00     0.226 C 
HETATM    6  C29 UNL     1      19.230  -4.490  16.532  1.00  0.00     0.055 C 
HETATM    7  C28 UNL     1      20.416  -3.821  17.250  1.00  0.00     0.127 C 
BRANCH   5   8
HETATM    8  N3  UNL     1      17.243  -3.908  15.220  1.00  0.00     0.093 N 
HETATM    9  C8  UNL     1      17.351  -5.309  14.891  1.00  0.00     0.275 C 
HETATM   10  C7  UNL     1      16.135  -6.095  15.256  1.00  0.00     0.062 C 
HETATM   11  C6  UNL     1      14.881  -5.566  14.585  1.00  0.00     0.132 C 
HETATM   12  C31 UNL     1      14.906  -4.049  14.652  1.00  0.00     0.062 C 
HETATM   13  C30 UNL     1      15.887  -3.639  15.701  1.00  0.00     0.275 C 
BRANCH  11  14
HETATM   14  O1  UNL     1      14.755  -5.995  13.271  1.00  0.00    -0.346 OA
BRANCH  14  15
HETATM   15  C5  UNL     1      15.014  -7.234  12.771  1.00  0.00     0.069 A 
HETATM   16  C4  UNL     1      13.929  -8.074  12.510  1.00  0.00     0.037 A 
HETATM   17  C3  UNL     1      14.111  -9.339  12.003  1.00  0.00     0.017 A 
HETATM   18  C2  UNL     1      15.397  -9.796  11.743  1.00  0.00     0.005 A 
HETATM   19  C33 UNL     1      16.487  -8.979  11.994  1.00  0.00     0.017 A 
HETATM   20  C32 UNL     1      16.270  -7.724  12.500  1.00  0.00     0.037 A 
BRANCH  18  21
HETATM   21  C1  UNL     1      15.670 -11.117  11.209  1.00  0.00     0.120 C 
HETATM   22  N1  UNL     1      16.641 -11.329  10.416  1.00  0.00    -0.387 N 
ATOM     23  H12 UNL     1      16.833 -12.258  10.041  1.00  0.00     0.157 HD
ATOM     24  H11 UNL     1      17.230 -10.535  10.162  1.00  0.00     0.157 HD
HETATM   25  N2  UNL     1      14.856 -12.214  11.560  1.00  0.00    -0.082 NA
ENDBRANCH  18  21
ENDBRANCH  14  15
ENDBRANCH  11  14
ENDBRANCH   5   8
ENDBRANCH   1   2
BRANCH   1  26
HETATM   26  O2  UNL     1      22.805  -1.558  16.077  1.00  0.00    -0.348 OA
ATOM     27  H2  UNL     1      23.711  -1.626  16.353  1.00  0.00     0.219 HD
ENDBRANCH   1  26
BRANCH   1  28
HETATM   28  C13 UNL     1      22.167  -1.299  18.305  1.00  0.00     0.159 C 
BRANCH  28  29
HETATM   29  C14 UNL     1      23.189  -0.263  18.524  1.00  0.00     0.038 C 
BRANCH  29  30
HETATM   30  C15 UNL     1      24.287  -0.428  19.477  1.00  0.00    -0.012 C 
HETATM   31  C16 UNL     1      25.549   0.308  18.972  1.00  0.00     0.005 C 
HETATM   32  C17 UNL     1      25.471   1.783  19.170  1.00  0.00     0.000 C 
HETATM   33  C18 UNL     1      25.343   2.150  20.639  1.00  0.00     0.000 C 
HETATM   34  C19 UNL     1      24.071   1.489  21.125  1.00  0.00     0.000 C 
HETATM   35  C20 UNL     1      24.081   0.017  20.885  1.00  0.00     0.005 C 
ENDBRANCH  29  30
ENDBRANCH  28  29
BRANCH  28  36
HETATM   36  N5  UNL     1      20.860  -0.810  18.803  1.00  0.00    -0.347 N 
HETATM   37  C21 UNL     1      20.168   0.213  18.142  1.00  0.00     0.254 C 
HETATM   38  O3  UNL     1      20.679   0.729  17.091  1.00  0.00    -0.271 OA
ATOM     39  H5  UNL     1      20.457  -1.227  19.642  1.00  0.00     0.163 HD
BRANCH  37  40
HETATM   40  C22 UNL     1      18.865   0.738  18.592  1.00  0.00     0.203 C 
HETATM   41  C23 UNL     1      19.125   1.777  19.674  1.00  0.00     0.049 C 
HETATM   42  C24 UNL     1      17.755   2.398  19.978  1.00  0.00     0.003 C 
HETATM   43  C25 UNL     1      16.952   1.328  20.666  1.00  0.00     0.000 C 
HETATM   44  C26 UNL     1      16.793   0.085  19.850  1.00  0.00     0.003 C 
HETATM   45  C27 UNL     1      18.044  -0.364  19.176  1.00  0.00     0.049 C 
BRANCH  40  46
HETATM   46  N6  UNL     1      18.210   1.418  17.498  1.00  0.00    -0.061 N 
ATOM     47  H63 UNL     1      17.625   2.189  17.820  1.00  0.00     0.275 HD
ATOM     48  H62 UNL     1      18.866   1.956  16.932  1.00  0.00     0.275 HD
ATOM     49  H61 UNL     1      17.684   0.745  16.940  1.00  0.00     0.275 HD
ENDBRANCH  40  46
ENDBRANCH  37  40
ENDBRANCH  28  36
ENDBRANCH   1  28
TORSDOF 12
ENDMDL
MODEL 4
REMARK VINA RESULT: -10.474713986      2.202      5.297
REMARK  12 active torsions:
REMARK  status: ('A' for Active; 'I' for Inactive)
REMARK    1  A    between atoms: C1_4  and  C2_6 
REMARK    2  A    between atoms: C5_9  and  O1_10 
REMARK    3  A    between atoms: O1_10  and  C6_11 
REMARK    4  A    between atoms: N3_14  and  C9_15 
REMARK    5  A    between atoms: N4_18  and  C12_19 
REMARK    6  A    between atoms: C12_19  and  O2_20 
REMARK    7  A    between atoms: C12_19  and  C13_22 
REMARK    8  A    between atoms: C13_22  and  C14_23 
REMARK    9  A    between atoms: C13_22  and  N5_30 
REMARK   10  A    between atoms: C14_23  and  C15_24 
REMARK       I    between atoms: N5_30  and  C21_32 
REMARK   11  A    between atoms: C21_32  and  C22_34 
REMARK   12  A    between atoms: C22_34  and  N6_35 
ROOT
HETATM    1  C12 UNL     1      18.553   2.538  19.461  1.00  0.00     0.137 C 
ENDROOT
BRANCH   1   2
HETATM    2  N4  UNL     1      18.345   1.389  18.674  1.00  0.00    -0.364 N 
HETATM    3  C11 UNL     1      18.053   0.126  19.320  1.00  0.00     0.127 C 
HETATM    4  C10 UNL     1      19.175  -0.816  18.847  1.00  0.00     0.055 C 
HETATM    5  C9  UNL     1      18.996  -1.040  17.358  1.00  0.00     0.226 C 
HETATM    6  C29 UNL     1      18.173  -0.011  16.673  1.00  0.00     0.055 C 
HETATM    7  C28 UNL     1      18.465   1.385  17.253  1.00  0.00     0.127 C 
BRANCH   5   8
HETATM    8  N3  UNL     1      18.461  -2.382  17.223  1.00  0.00     0.093 N 
HETATM    9  C8  UNL     1      17.385  -2.466  16.264  1.00  0.00     0.275 C 
HETATM   10  C7  UNL     1      17.738  -3.261  15.050  1.00  0.00     0.062 C 
HETATM   11  C6  UNL     1      18.158  -4.679  15.388  1.00  0.00     0.132 C 
HETATM   12  C31 UNL     1      19.061  -4.633  16.608  1.00  0.00     0.062 C 
HETATM   13  C30 UNL     1      19.562  -3.235  16.772  1.00  0.00     0.275 C 
BRANCH  11  14
HETATM   14  O1  UNL     1      17.076  -5.518  15.613  1.00  0.00    -0.346 OA
BRANCH  14  15
HETATM   15  C5  UNL     1      16.512  -6.402  14.745  1.00  0.00     0.069 A 
HETATM   16  C4  UNL     1      15.362  -6.003  14.061  1.00  0.00     0.037 A 
HETATM   17  C3  UNL     1      14.736  -6.841  13.167  1.00  0.00     0.017 A 
HETATM   18  C2  UNL     1      15.254  -8.109  12.936  1.00  0.00     0.005 A 
HETATM   19  C33 UNL     1      16.395  -8.523  13.602  1.00  0.00     0.017 A 
HETATM   20  C32 UNL     1      16.993  -7.664  14.487  1.00  0.00     0.037 A 
BRANCH  18  21
HETATM   21  C1  UNL     1      14.652  -9.048  12.009  1.00  0.00     0.120 C 
HETATM   22  N1  UNL     1      13.390  -9.180  11.918  1.00  0.00    -0.387 N 
ATOM     23  H12 UNL     1      12.967  -9.841  11.266  1.00  0.00     0.157 HD
ATOM     24  H11 UNL     1      12.806  -8.600  12.521  1.00  0.00     0.157 HD
HETATM   25  N2  UNL     1      15.460  -9.851  11.176  1.00  0.00    -0.082 NA
ENDBRANCH  18  21
ENDBRANCH  14  15
ENDBRANCH  11  14
ENDBRANCH   5   8
ENDBRANCH   1   2
BRANCH   1  26
HETATM   26  O2  UNL     1      17.725   3.522  19.243  1.00  0.00    -0.348 OA
ATOM     27  H2  UNL     1      17.073   3.663  19.920  1.00  0.00     0.219 HD
ENDBRANCH   1  26
BRANCH   1  28
HETATM   28  C13 UNL     1      19.553   2.773  20.481  1.00  0.00     0.159 C 
BRANCH  28  29
HETATM   29  C14 UNL     1      19.196   2.846  21.906  1.00  0.00     0.038 C 
BRANCH  29  30
HETATM   30  C15 UNL     1      17.907   2.382  22.421  1.00  0.00    -0.012 C 
HETATM   31  C16 UNL     1      18.122   1.309  23.512  1.00  0.00     0.005 C 
HETATM   32  C17 UNL     1      18.542   1.894  24.818  1.00  0.00     0.000 C 
HETATM   33  C18 UNL     1      17.493   2.842  25.375  1.00  0.00     0.000 C 
HETATM   34  C19 UNL     1      17.327   3.935  24.341  1.00  0.00     0.000 C 
HETATM   35  C20 UNL     1      16.970   3.385  23.001  1.00  0.00     0.005 C 
ENDBRANCH  29  30
ENDBRANCH  28  29
BRANCH  28  36
HETATM   36  N5  UNL     1      20.592   1.734  20.288  1.00  0.00    -0.347 N 
HETATM   37  C21 UNL     1      21.870   2.063  19.821  1.00  0.00     0.254 C 
HETATM   38  O3  UNL     1      22.139   3.284  19.558  1.00  0.00    -0.271 OA
ATOM     39  H5  UNL     1      20.371   0.761  20.500  1.00  0.00     0.163 HD
BRANCH  37  40
HETATM   40  C22 UNL     1      22.943   1.071  19.611  1.00  0.00     0.203 C 
HETATM   41  C23 UNL     1      24.264   1.821  19.517  1.00  0.00     0.049 C 
HETATM   42  C24 UNL     1      25.345   0.732  19.467  1.00  0.00     0.003 C 
HETATM   43  C25 UNL     1      25.198   0.056  18.131  1.00  0.00     0.000 C 
HETATM   44  C26 UNL     1      23.845  -0.541  17.911  1.00  0.00     0.003 C 
HETATM   45  C27 UNL     1      22.717   0.339  18.329  1.00  0.00     0.049 C 
BRANCH  40  46
HETATM   46  N6  UNL     1      23.029   0.198  20.759  1.00  0.00    -0.061 N 
ATOM     47  H63 UNL     1      22.132  -0.232  20.982  1.00  0.00     0.275 HD
ATOM     48  H62 UNL     1      23.554  -0.653  20.555  1.00  0.00     0.275 HD
ATOM     49  H61 UNL     1      23.418   0.709  21.551  1.00  0.00     0.275 HD
ENDBRANCH  40  46
ENDBRANCH  37  40
ENDBRANCH  28  36
ENDBRANCH   1  28
TORSDOF 12
ENDMDL
MODEL 5
REMARK VINA RESULT: -10.440116055      1.211      4.065
REMARK  12 active torsions:
REMARK  status: ('A' for Active; 'I' for Inactive)
REMARK    1  A    between atoms: C1_4  and  C2_6 
REMARK    2  A    between atoms: C5_9  and  O1_10 
REMARK    3  A    between atoms: O1_10  and  C6_11 
REMARK    4  A    between atoms: N3_14  and  C9_15 
REMARK    5  A    between atoms: N4_18  and  C12_19 
REMARK    6  A    between atoms: C12_19  and  O2_20 
REMARK    7  A    between atoms: C12_19  and  C13_22 
REMARK    8  A    between atoms: C13_22  and  C14_23 
REMARK    9  A    between atoms: C13_22  and  N5_30 
REMARK   10  A    between atoms: C14_23  and  C15_24 
REMARK       I    between atoms: N5_30  and  C21_32 
REMARK   11  A    between atoms: C21_32  and  C22_34 
REMARK   12  A    between atoms: C22_34  and  N6_35 
ROOT
HETATM    1  C12 UNL     1      20.066  -0.571  16.082  1.00  0.00     0.137 C 
ENDROOT
BRANCH   1   2
HETATM    2  N4  UNL     1      19.845  -1.908  15.694  1.00  0.00    -0.364 N 
HETATM    3  C11 UNL     1      18.494  -2.361  15.438  1.00  0.00     0.127 C 
HETATM    4  C10 UNL     1      18.286  -3.526  16.422  1.00  0.00     0.055 C 
HETATM    5  C9  UNL     1      19.209  -4.655  16.005  1.00  0.00     0.226 C 
HETATM    6  C29 UNL     1      20.344  -4.240  15.144  1.00  0.00     0.055 C 
HETATM    7  C28 UNL     1      20.890  -2.873  15.595  1.00  0.00     0.127 C 
BRANCH   5   8
HETATM    8  N3  UNL     1      18.356  -5.652  15.385  1.00  0.00     0.093 N 
HETATM    9  C8  UNL     1      16.994  -5.603  15.860  1.00  0.00     0.275 C 
HETATM   10  C7  UNL     1      16.021  -5.165  14.815  1.00  0.00     0.062 C 
HETATM   11  C6  UNL     1      16.043  -6.061  13.591  1.00  0.00     0.132 C 
HETATM   12  C31 UNL     1      17.490  -6.380  13.258  1.00  0.00     0.062 C 
HETATM   13  C30 UNL     1      18.363  -5.382  13.946  1.00  0.00     0.275 C 
BRANCH  11  14
HETATM   14  O1  UNL     1      15.314  -7.229  13.770  1.00  0.00    -0.346 OA
BRANCH  14  15
HETATM   15  C5  UNL     1      15.481  -8.421  13.135  1.00  0.00     0.069 A 
HETATM   16  C4  UNL     1      14.780  -8.632  11.946  1.00  0.00     0.037 A 
HETATM   17  C3  UNL     1      14.898  -9.811  11.247  1.00  0.00     0.017 A 
HETATM   18  C2  UNL     1      15.729 -10.814  11.728  1.00  0.00     0.005 A 
HETATM   19  C33 UNL     1      16.434 -10.625  12.904  1.00  0.00     0.017 A 
HETATM   20  C32 UNL     1      16.294  -9.438  13.577  1.00  0.00     0.037 A 
BRANCH  18  21
HETATM   21  C1  UNL     1      15.906 -12.084  11.049  1.00  0.00     0.120 C 
HETATM   22  N1  UNL     1      17.061 -12.544  10.783  1.00  0.00    -0.387 N 
ATOM     23  H12 UNL     1      17.185 -13.436  10.306  1.00  0.00     0.157 HD
ATOM     24  H11 UNL     1      17.870 -11.989  11.064  1.00  0.00     0.157 HD
HETATM   25  N2  UNL     1      14.787 -12.850  10.661  1.00  0.00    -0.082 NA
ENDBRANCH  18  21
ENDBRANCH  14  15
ENDBRANCH  11  14
ENDBRANCH   5   8
ENDBRANCH   1   2
BRANCH   1  26
HETATM   26  O2  UNL     1      20.347   0.253  15.111  1.00  0.00    -0.348 OA
ATOM     27  H2  UNL     1      20.298   1.176  15.333  1.00  0.00     0.219 HD
ENDBRANCH   1  26
BRANCH   1  28
HETATM   28  C13 UNL     1      20.017   0.011  17.406  1.00  0.00     0.159 C 
BRANCH  28  29
HETATM   29  C14 UNL     1      19.052  -0.453  18.415  1.00  0.00     0.038 C 
BRANCH  29  30
HETATM   30  C15 UNL     1      17.701   0.098  18.526  1.00  0.00    -0.012 C 
HETATM   31  C16 UNL     1      17.138  -0.148  19.944  1.00  0.00     0.005 C 
HETATM   32  C17 UNL     1      17.706   0.786  20.958  1.00  0.00     0.000 C 
HETATM   33  C18 UNL     1      17.382   2.234  20.635  1.00  0.00     0.000 C 
HETATM   34  C19 UNL     1      17.991   2.505  19.275  1.00  0.00     0.000 C 
HETATM   35  C20 UNL     1      17.497   1.547  18.244  1.00  0.00     0.005 C 
ENDBRANCH  29  30
ENDBRANCH  28  29
BRANCH  28  36
HETATM   36  N5  UNL     1      21.389  -0.094  17.956  1.00  0.00    -0.347 N 
HETATM   37  C21 UNL     1      21.855   0.808  18.920  1.00  0.00     0.254 C 
HETATM   38  O3  UNL     1      21.078   1.736  19.329  1.00  0.00    -0.271 OA
ATOM     39  H5  UNL     1      22.005  -0.837  17.625  1.00  0.00     0.163 HD
BRANCH  37  40
HETATM   40  C22 UNL     1      23.210   0.752  19.502  1.00  0.00     0.203 C 
HETATM   41  C23 UNL     1      23.605   2.164  19.913  1.00  0.00     0.049 C 
HETATM   42  C24 UNL     1      24.940   2.012  20.654  1.00  0.00     0.003 C 
HETATM   43  C25 UNL     1      25.955   1.622  19.615  1.00  0.00     0.000 C 
HETATM   44  C26 UNL     1      25.613   0.359  18.892  1.00  0.00     0.003 C 
HETATM   45  C27 UNL     1      24.185   0.261  18.482  1.00  0.00     0.049 C 
BRANCH  40  46
HETATM   46  N6  UNL     1      23.191  -0.051  20.704  1.00  0.00    -0.061 N 
ATOM     47  H63 UNL     1      24.129  -0.320  21.001  1.00  0.00     0.275 HD
ATOM     48  H62 UNL     1      22.926   0.493  21.525  1.00  0.00     0.275 HD
ATOM     49  H61 UNL     1      22.585  -0.860  20.566  1.00  0.00     0.275 HD
ENDBRANCH  40  46
ENDBRANCH  37  40
ENDBRANCH  28  36
ENDBRANCH   1  28
TORSDOF 12
ENDMDL
