MODEL 1
REMARK VINA RESULT: -9.445575333      0.000      0.000
REMARK  13 active torsions:
REMARK  status: ('A' for Active; 'I' for Inactive)
REMARK    1  A    between atoms: C2_2  and  C4_4 
REMARK    2  A    between atoms: C4_4  and  C5_5 
REMARK    3  A    between atoms: C5_5  and  N1_6 
REMARK    4  A    between atoms: C5_5  and  C15_22 
REMARK       I    between atoms: N1_6  and  C6_8 
REMARK    5  A    between atoms: C6_8  and  C7_10 
REMARK    6  A    between atoms: C7_10  and  N2_12 
REMARK       I    between atoms: N2_12  and  C9_14 
REMARK    7  A    between atoms: C9_14  and  O3_16 
REMARK    8  A    between atoms: O3_16  and  C10_17 
REMARK       I    between atoms: C15_22  and  N3_24 
REMARK    9  A    between atoms: C18_27  and  C19_28 
REMARK   10  A    between atoms: C19_28  and  N4_29 
REMARK   11  A    between atoms: C19_28  and  C25_38 
REMARK       I    between atoms: N4_29  and  C20_31 
REMARK   12  A    between atoms: C20_31  and  O6_33 
REMARK   13  A    between atoms: O6_33  and  C21_34 
ROOT
HETATM    1  C15 UNL     1      18.878  -2.681  15.774  1.00  0.00     0.243 C 
HETATM    2  O4  UNL     1      18.992  -2.361  14.529  1.00  0.00    -0.271 OA
HETATM    3  N3  UNL     1      19.136  -1.663  16.679  1.00  0.00    -0.346 N 
HETATM    4  C16 UNL     1      19.137  -1.835  18.100  1.00  0.00     0.127 C 
HETATM    5  C17 UNL     1      18.174  -0.766  18.630  1.00  0.00     0.026 C 
HETATM    6  C18 UNL     1      18.875   0.524  18.545  1.00  0.00     0.012 C 
HETATM    7  C28 UNL     1      19.719   0.642  17.302  1.00  0.00     0.031 C 
HETATM    8  C29 UNL     1      19.410  -0.324  16.206  1.00  0.00     0.083 C 
HETATM    9  C30 UNL     1      20.643  -0.404  15.315  1.00  0.00     0.032 C 
ENDROOT
BRANCH   1  10
HETATM   10  C5  UNL     1      18.491  -4.086  16.068  1.00  0.00     0.177 C 
BRANCH  10  11
HETATM   11  C4  UNL     1      17.017  -4.249  16.183  1.00  0.00     0.038 C 
BRANCH  11  12
HETATM   12  C2  UNL     1      16.347  -5.243  15.319  1.00  0.00    -0.020 C 
HETATM   13  C1  UNL     1      16.384  -6.581  16.108  1.00  0.00     0.009 C 
HETATM   14  C3  UNL     1      14.931  -5.036  14.941  1.00  0.00     0.009 C 
ENDBRANCH  11  12
ENDBRANCH  10  11
BRANCH  10  15
HETATM   15  N1  UNL     1      19.090  -4.951  15.094  1.00  0.00    -0.346 N 
HETATM   16  C6  UNL     1      20.421  -5.425  15.090  1.00  0.00     0.240 C 
HETATM   17  O1  UNL     1      21.222  -5.090  15.977  1.00  0.00    -0.271 OA
ATOM     18  H1  UNL     1      18.494  -5.256  14.325  1.00  0.00     0.163 HD
BRANCH  16  19
HETATM   19  C7  UNL     1      20.902  -6.345  14.018  1.00  0.00     0.174 C 
HETATM   20  C8  UNL     1      22.329  -6.798  14.208  1.00  0.00     0.042 C 
BRANCH  19  21
HETATM   21  N2  UNL     1      20.016  -7.450  13.789  1.00  0.00    -0.324 N 
HETATM   22  C9  UNL     1      19.058  -7.459  12.757  1.00  0.00     0.361 C 
HETATM   23  O2  UNL     1      18.957  -6.459  12.005  1.00  0.00    -0.238 OA
ATOM     24  H2  UNL     1      20.083  -8.264  14.400  1.00  0.00     0.165 HD
BRANCH  22  25
HETATM   25  O3  UNL     1      18.211  -8.541  12.536  1.00  0.00    -0.299 OA
BRANCH  25  26
HETATM   26  C10 UNL     1      16.907  -8.622  13.076  1.00  0.00     0.133 C 
HETATM   27  C11 UNL     1      16.197  -9.868  12.691  1.00  0.00     0.032 C 
HETATM   28  C12 UNL     1      14.807  -9.533  12.224  1.00  0.00     0.002 C 
HETATM   29  C13 UNL     1      14.676  -8.027  12.481  1.00  0.00     0.002 C 
HETATM   30  C14 UNL     1      16.097  -7.518  12.390  1.00  0.00     0.032 C 
ENDBRANCH  25  26
ENDBRANCH  22  25
ENDBRANCH  19  21
ENDBRANCH  16  19
ENDBRANCH  10  15
ENDBRANCH   1  10
BRANCH   6  31
HETATM   31  C19 UNL     1      19.620   1.008  19.760  1.00  0.00     0.098 C 
BRANCH  31  32
HETATM   32  N4  UNL     1      20.922   1.581  19.323  1.00  0.00    -0.331 N 
HETATM   33  C20 UNL     1      22.060   0.728  19.301  1.00  0.00     0.361 C 
HETATM   34  O5  UNL     1      21.988  -0.492  19.640  1.00  0.00    -0.238 OA
ATOM     35  H4  UNL     1      20.997   2.560  19.047  1.00  0.00     0.165 HD
BRANCH  33  36
HETATM   36  O6  UNL     1      23.319   1.154  18.913  1.00  0.00    -0.294 OA
BRANCH  36  37
HETATM   37  C21 UNL     1      24.501   0.882  19.590  1.00  0.00     0.061 C 
HETATM   38  C22 UNL     1      25.386   2.132  19.493  1.00  0.00     0.046 C 
HETATM   39  C23 UNL     1      24.319   0.640  21.072  1.00  0.00     0.046 C 
HETATM   40  C24 UNL     1      25.266  -0.239  18.972  1.00  0.00     0.046 C 
ENDBRANCH  36  37
ENDBRANCH  33  36
ENDBRANCH  31  32
BRANCH  31  41
HETATM   41  C25 UNL     1      18.993   2.109  20.530  1.00  0.00     0.060 C 
HETATM   42  C26 UNL     1      17.731   2.747  20.103  1.00  0.00     0.240 C 
HETATM   43  N5  UNL     1      17.400   2.859  21.545  1.00  0.00    -0.074 N 
HETATM   44  C27 UNL     1      18.104   1.563  21.656  1.00  0.00     0.240 C 
ATOM     45  H52 UNL     1      17.655   3.672  22.104  1.00  0.00     0.277 HD
ATOM     46  H51 UNL     1      16.446   2.995  21.879  1.00  0.00     0.277 HD
ENDBRANCH  31  41
ENDBRANCH   6  31
TORSDOF 13
ENDMDL
MODEL 2
REMARK VINA RESULT: -9.149588693      2.519     10.899
REMARK  13 active torsions:
REMARK  status: ('A' for Active; 'I' for Inactive)
REMARK    1  A    between atoms: C2_2  and  C4_4 
REMARK    2  A    between atoms: C4_4  and  C5_5 
REMARK    3  A    between atoms: C5_5  and  N1_6 
REMARK    4  A    between atoms: C5_5  and  C15_22 
REMARK       I    between atoms: N1_6  and  C6_8 
REMARK    5  A    between atoms: C6_8  and  C7_10 
REMARK    6  A    between atoms: C7_10  and  N2_12 
REMARK       I    between atoms: N2_12  and  C9_14 
REMARK    7  A    between atoms: C9_14  and  O3_16 
REMARK    8  A    between atoms: O3_16  and  C10_17 
REMARK       I    between atoms: C15_22  and  N3_24 
REMARK    9  A    between atoms: C18_27  and  C19_28 
REMARK   10  A    between atoms: C19_28  and  N4_29 
REMARK   11  A    between atoms: C19_28  and  C25_38 
REMARK       I    between atoms: N4_29  and  C20_31 
REMARK   12  A    between atoms: C20_31  and  O6_33 
REMARK   13  A    between atoms: O6_33  and  C21_34 
ROOT
HETATM    1  C15 UNL     1      21.728  -1.022  17.085  1.00  0.00     0.243 C 
HETATM    2  O4  UNL     1      21.743   0.044  16.357  1.00  0.00    -0.271 OA
HETATM    3  N3  UNL     1      21.520  -2.211  16.402  1.00  0.00    -0.346 N 
HETATM    4  C16 UNL     1      21.394  -3.487  17.036  1.00  0.00     0.127 C 
HETATM    5  C17 UNL     1      22.429  -4.380  16.340  1.00  0.00     0.026 C 
HETATM    6  C18 UNL     1      21.885  -4.715  15.015  1.00  0.00     0.012 C 
HETATM    7  C28 UNL     1      21.154  -3.560  14.381  1.00  0.00     0.031 C 
HETATM    8  C29 UNL     1      21.433  -2.212  14.958  1.00  0.00     0.083 C 
HETATM    9  C30 UNL     1      20.268  -1.308  14.576  1.00  0.00     0.032 C 
ENDROOT
BRANCH   1  10
HETATM   10  C5  UNL     1      21.932  -0.834  18.545  1.00  0.00     0.177 C 
BRANCH  10  11
HETATM   11  C4  UNL     1      23.316  -0.390  18.865  1.00  0.00     0.038 C 
BRANCH  11  12
HETATM   12  C2  UNL     1      23.498   0.706  19.839  1.00  0.00    -0.020 C 
HETATM   13  C1  UNL     1      24.087   0.044  21.115  1.00  0.00     0.009 C 
HETATM   14  C3  UNL     1      24.409   1.824  19.507  1.00  0.00     0.009 C 
ENDBRANCH  11  12
ENDBRANCH  10  11
BRANCH  10  15
HETATM   15  N1  UNL     1      20.916   0.044  19.052  1.00  0.00    -0.346 N 
HETATM   16  C6  UNL     1      19.536  -0.236  19.158  1.00  0.00     0.240 C 
HETATM   17  O1  UNL     1      19.073  -1.324  18.780  1.00  0.00    -0.271 OA
ATOM     18  H1  UNL     1      21.223   0.963  19.367  1.00  0.00     0.163 HD
BRANCH  16  19
HETATM   19  C7  UNL     1      18.594   0.770  19.730  1.00  0.00     0.174 C 
HETATM   20  C8  UNL     1      17.175   0.271  19.842  1.00  0.00     0.042 C 
BRANCH  19  21
HETATM   21  N2  UNL     1      19.061   1.336  20.963  1.00  0.00    -0.324 N 
HETATM   22  C9  UNL     1      18.751   2.650  21.366  1.00  0.00     0.361 C 
HETATM   23  O2  UNL     1      18.046   3.370  20.618  1.00  0.00    -0.238 OA
ATOM     24  H2  UNL     1      19.642   0.763  21.575  1.00  0.00     0.165 HD
BRANCH  22  25
HETATM   25  O3  UNL     1      19.199   3.185  22.570  1.00  0.00    -0.299 OA
BRANCH  25  26
HETATM   26  C10 UNL     1      18.361   3.358  23.696  1.00  0.00     0.133 C 
HETATM   27  C11 UNL     1      18.974   4.207  24.748  1.00  0.00     0.032 C 
HETATM   28  C12 UNL     1      18.808   3.547  26.089  1.00  0.00     0.002 C 
HETATM   29  C13 UNL     1      17.941   2.316  25.799  1.00  0.00     0.002 C 
HETATM   30  C14 UNL     1      18.257   1.981  24.359  1.00  0.00     0.032 C 
ENDBRANCH  25  26
ENDBRANCH  22  25
ENDBRANCH  19  21
ENDBRANCH  16  19
ENDBRANCH  10  15
ENDBRANCH   1  10
BRANCH   6  31
HETATM   31  C19 UNL     1      21.111  -5.998  14.871  1.00  0.00     0.098 C 
BRANCH  31  32
HETATM   32  N4  UNL     1      19.828  -5.705  14.175  1.00  0.00    -0.331 N 
HETATM   33  C20 UNL     1      18.692  -5.381  14.967  1.00  0.00     0.361 C 
HETATM   34  O5  UNL     1      18.750  -5.338  16.233  1.00  0.00    -0.238 OA
ATOM     35  H4  UNL     1      19.766  -5.735  13.158  1.00  0.00     0.165 HD
BRANCH  33  36
HETATM   36  O6  UNL     1      17.450  -5.092  14.427  1.00  0.00    -0.294 OA
BRANCH  36  37
HETATM   37  C21 UNL     1      16.269  -5.757  14.731  1.00  0.00     0.061 C 
HETATM   38  C22 UNL     1      15.440  -5.838  13.442  1.00  0.00     0.046 C 
HETATM   39  C23 UNL     1      16.466  -7.192  15.165  1.00  0.00     0.046 C 
HETATM   40  C24 UNL     1      15.443  -5.022  15.731  1.00  0.00     0.046 C 
ENDBRANCH  36  37
ENDBRANCH  33  36
ENDBRANCH  31  32
BRANCH  31  41
HETATM   41  C25 UNL     1      21.728  -7.057  14.036  1.00  0.00     0.060 C 
HETATM   42  C26 UNL     1      23.190  -7.151  13.841  1.00  0.00     0.240 C 
HETATM   43  N5  UNL     1      23.009  -8.624  13.848  1.00  0.00    -0.074 N 
HETATM   44  C27 UNL     1      21.954  -8.342  14.845  1.00  0.00     0.240 C 
ATOM     45  H52 UNL     1      22.831  -9.159  12.998  1.00  0.00     0.277 HD
ATOM     46  H51 UNL     1      23.777  -9.270  14.030  1.00  0.00     0.277 HD
ENDBRANCH  31  41
ENDBRANCH   6  31
TORSDOF 13
ENDMDL
MODEL 3
REMARK VINA RESULT: -9.031598935      2.407      4.666
REMARK  13 active torsions:
REMARK  status: ('A' for Active; 'I' for Inactive)
REMARK    1  A    between atoms: C2_2  and  C4_4 
REMARK    2  A    between atoms: C4_4  and  C5_5 
REMARK    3  A    between atoms: C5_5  and  N1_6 
REMARK    4  A    between atoms: C5_5  and  C15_22 
REMARK       I    between atoms: N1_6  and  C6_8 
REMARK    5  A    between atoms: C6_8  and  C7_10 
REMARK    6  A    between atoms: C7_10  and  N2_12 
REMARK       I    between atoms: N2_12  and  C9_14 
REMARK    7  A    between atoms: C9_14  and  O3_16 
REMARK    8  A    between atoms: O3_16  and  C10_17 
REMARK       I    between atoms: C15_22  and  N3_24 
REMARK    9  A    between atoms: C18_27  and  C19_28 
REMARK   10  A    between atoms: C19_28  and  N4_29 
REMARK   11  A    between atoms: C19_28  and  C25_38 
REMARK       I    between atoms: N4_29  and  C20_31 
REMARK   12  A    between atoms: C20_31  and  O6_33 
REMARK   13  A    between atoms: O6_33  and  C21_34 
ROOT
HETATM    1  C15 UNL     1      17.603  -5.695  13.647  1.00  0.00     0.243 C 
HETATM    2  O4  UNL     1      18.436  -5.940  12.692  1.00  0.00    -0.271 OA
HETATM    3  N3  UNL     1      18.022  -4.759  14.581  1.00  0.00    -0.346 N 
HETATM    4  C16 UNL     1      17.278  -4.406  15.751  1.00  0.00     0.127 C 
HETATM    5  C17 UNL     1      17.146  -2.880  15.694  1.00  0.00     0.026 C 
HETATM    6  C18 UNL     1      18.455  -2.321  16.064  1.00  0.00     0.012 C 
HETATM    7  C28 UNL     1      19.604  -3.125  15.512  1.00  0.00     0.031 C 
HETATM    8  C29 UNL     1      19.273  -4.058  14.394  1.00  0.00     0.083 C 
HETATM    9  C30 UNL     1      20.375  -5.109  14.343  1.00  0.00     0.032 C 
ENDROOT
BRANCH   1  10
HETATM   10  C5  UNL     1      16.319  -6.444  13.620  1.00  0.00     0.177 C 
BRANCH  10  11
HETATM   11  C4  UNL     1      15.199  -5.617  13.095  1.00  0.00     0.038 C 
BRANCH  11  12
HETATM   12  C2  UNL     1      14.107  -5.241  14.016  1.00  0.00    -0.020 C 
HETATM   13  C1  UNL     1      14.109  -3.688  14.061  1.00  0.00     0.009 C 
HETATM   14  C3  UNL     1      12.718  -5.635  13.691  1.00  0.00     0.009 C 
ENDBRANCH  11  12
ENDBRANCH  10  11
BRANCH  10  15
HETATM   15  N1  UNL     1      16.509  -7.674  12.908  1.00  0.00    -0.346 N 
HETATM   16  C6  UNL     1      16.761  -8.945  13.471  1.00  0.00     0.240 C 
HETATM   17  O1  UNL     1      16.860  -9.093  14.699  1.00  0.00    -0.271 OA
ATOM     18  H1  UNL     1      16.455  -7.626  11.891  1.00  0.00     0.163 HD
BRANCH  16  19
HETATM   19  C7  UNL     1      16.914 -10.149  12.602  1.00  0.00     0.174 C 
HETATM   20  C8  UNL     1      15.964 -10.170  11.430  1.00  0.00     0.042 C 
BRANCH  19  21
HETATM   21  N2  UNL     1      18.271 -10.377  12.194  1.00  0.00    -0.324 N 
HETATM   22  C9  UNL     1      19.077 -11.387  12.755  1.00  0.00     0.361 C 
HETATM   23  O2  UNL     1      18.603 -12.119  13.658  1.00  0.00    -0.238 OA
ATOM     24  H2  UNL     1      18.669  -9.782  11.467  1.00  0.00     0.165 HD
BRANCH  22  25
HETATM   25  O3  UNL     1      20.388 -11.608  12.344  1.00  0.00    -0.299 OA
BRANCH  25  26
HETATM   26  C10 UNL     1      21.495 -11.517  13.219  1.00  0.00     0.133 C 
HETATM   27  C11 UNL     1      21.516 -10.252  13.997  1.00  0.00     0.032 C 
HETATM   28  C12 UNL     1      22.893  -9.650  13.944  1.00  0.00     0.002 C 
HETATM   29  C13 UNL     1      23.733 -10.695  13.203  1.00  0.00     0.002 C 
HETATM   30  C14 UNL     1      22.733 -11.408  12.323  1.00  0.00     0.032 C 
ENDBRANCH  25  26
ENDBRANCH  22  25
ENDBRANCH  19  21
ENDBRANCH  16  19
ENDBRANCH  10  15
ENDBRANCH   1  10
BRANCH   6  31
HETATM   31  C19 UNL     1      18.687  -1.956  17.506  1.00  0.00     0.098 C 
BRANCH  31  32
HETATM   32  N4  UNL     1      20.054  -1.381  17.638  1.00  0.00    -0.331 N 
HETATM   33  C20 UNL     1      20.995  -2.063  18.458  1.00  0.00     0.361 C 
HETATM   34  O5  UNL     1      20.697  -3.133  19.069  1.00  0.00    -0.238 OA
ATOM     35  H4  UNL     1      20.308  -0.521  17.154  1.00  0.00     0.165 HD
BRANCH  33  36
HETATM   36  O6  UNL     1      22.291  -1.618  18.653  1.00  0.00    -0.294 OA
BRANCH  36  37
HETATM   37  C21 UNL     1      22.826  -0.449  18.126  1.00  0.00     0.061 C 
HETATM   38  C22 UNL     1      22.049   0.728  18.731  1.00  0.00     0.046 C 
HETATM   39  C23 UNL     1      24.270  -0.207  18.508  1.00  0.00     0.046 C 
HETATM   40  C24 UNL     1      22.660  -0.363  16.647  1.00  0.00     0.046 C 
ENDBRANCH  36  37
ENDBRANCH  33  36
ENDBRANCH  31  32
BRANCH  31  41
HETATM   41  C25 UNL     1      17.808  -0.906  18.076  1.00  0.00     0.060 C 
HETATM   42  C26 UNL     1      18.096  -0.260  19.373  1.00  0.00     0.240 C 
HETATM   43  N5  UNL     1      17.555   0.985  18.774  1.00  0.00    -0.074 N 
HETATM   44  C27 UNL     1      18.173   0.481  17.529  1.00  0.00     0.240 C 
ATOM     45  H52 UNL     1      16.569   1.239  18.833  1.00  0.00     0.277 HD
ATOM     46  H51 UNL     1      17.760   1.910  19.152  1.00  0.00     0.277 HD
ENDBRANCH  31  41
ENDBRANCH   6  31
TORSDOF 13
ENDMDL
MODEL 4
REMARK VINA RESULT: -8.867186510      2.276     10.569
REMARK  13 active torsions:
REMARK  status: ('A' for Active; 'I' for Inactive)
REMARK    1  A    between atoms: C2_2  and  C4_4 
REMARK    2  A    between atoms: C4_4  and  C5_5 
REMARK    3  A    between atoms: C5_5  and  N1_6 
REMARK    4  A    between atoms: C5_5  and  C15_22 
REMARK       I    between atoms: N1_6  and  C6_8 
REMARK    5  A    between atoms: C6_8  and  C7_10 
REMARK    6  A    between atoms: C7_10  and  N2_12 
REMARK       I    between atoms: N2_12  and  C9_14 
REMARK    7  A    between atoms: C9_14  and  O3_16 
REMARK    8  A    between atoms: O3_16  and  C10_17 
REMARK       I    between atoms: C15_22  and  N3_24 
REMARK    9  A    between atoms: C18_27  and  C19_28 
REMARK   10  A    between atoms: C19_28  and  N4_29 
REMARK   11  A    between atoms: C19_28  and  C25_38 
REMARK       I    between atoms: N4_29  and  C20_31 
REMARK   12  A    between atoms: C20_31  and  O6_33 
REMARK   13  A    between atoms: O6_33  and  C21_34 
ROOT
HETATM    1  C15 UNL     1      17.769  -4.029  14.992  1.00  0.00     0.243 C 
HETATM    2  O4  UNL     1      16.795  -3.186  14.927  1.00  0.00    -0.271 OA
HETATM    3  N3  UNL     1      17.536  -5.261  14.399  1.00  0.00    -0.346 N 
HETATM    4  C16 UNL     1      18.459  -6.353  14.431  1.00  0.00     0.127 C 
HETATM    5  C17 UNL     1      18.650  -6.755  12.964  1.00  0.00     0.026 C 
HETATM    6  C18 UNL     1      17.437  -7.478  12.554  1.00  0.00     0.012 C 
HETATM    7  C28 UNL     1      16.184  -6.886  13.146  1.00  0.00     0.031 C 
HETATM    8  C29 UNL     1      16.304  -5.496  13.678  1.00  0.00     0.083 C 
HETATM    9  C30 UNL     1      15.160  -5.291  14.662  1.00  0.00     0.032 C 
ENDROOT
BRANCH   1  10
HETATM   10  C5  UNL     1      18.999  -3.573  15.692  1.00  0.00     0.177 C 
BRANCH  10  11
HETATM   11  C4  UNL     1      20.180  -3.544  14.787  1.00  0.00     0.038 C 
BRANCH  11  12
HETATM   12  C2  UNL     1      21.466  -4.073  15.287  1.00  0.00    -0.020 C 
HETATM   13  C1  UNL     1      22.313  -4.386  14.023  1.00  0.00     0.009 C 
HETATM   14  C3  UNL     1      22.317  -3.217  16.142  1.00  0.00     0.009 C 
ENDBRANCH  11  12
ENDBRANCH  10  11
BRANCH  10  15
HETATM   15  N1  UNL     1      18.736  -2.318  16.333  1.00  0.00    -0.346 N 
HETATM   16  C6  UNL     1      19.066  -1.963  17.660  1.00  0.00     0.240 C 
HETATM   17  O1  UNL     1      19.628  -2.769  18.417  1.00  0.00    -0.271 OA
ATOM     18  H1  UNL     1      18.262  -1.609  15.774  1.00  0.00     0.163 HD
BRANCH  16  19
HETATM   19  C7  UNL     1      18.750  -0.603  18.189  1.00  0.00     0.174 C 
HETATM   20  C8  UNL     1      17.643  -0.597  19.213  1.00  0.00     0.042 C 
BRANCH  19  21
HETATM   21  N2  UNL     1      19.911   0.102  18.652  1.00  0.00    -0.324 N 
HETATM   22  C9  UNL     1      20.998   0.416  17.814  1.00  0.00     0.361 C 
HETATM   23  O2  UNL     1      20.967   0.062  16.610  1.00  0.00    -0.238 OA
ATOM     24  H2  UNL     1      19.950   0.387  19.631  1.00  0.00     0.165 HD
BRANCH  22  25
HETATM   25  O3  UNL     1      22.114   1.111  18.271  1.00  0.00    -0.299 OA
BRANCH  25  26
HETATM   26  C10 UNL     1      23.057   0.553  19.165  1.00  0.00     0.133 C 
HETATM   27  C11 UNL     1      23.919   1.576  19.810  1.00  0.00     0.032 C 
HETATM   28  C12 UNL     1      25.357   1.141  19.738  1.00  0.00     0.002 C 
HETATM   29  C13 UNL     1      25.296  -0.266  19.133  1.00  0.00     0.002 C 
HETATM   30  C14 UNL     1      24.034  -0.249  18.300  1.00  0.00     0.032 C 
ENDBRANCH  25  26
ENDBRANCH  22  25
ENDBRANCH  19  21
ENDBRANCH  16  19
ENDBRANCH  10  15
ENDBRANCH   1  10
BRANCH   6  31
HETATM   31  C19 UNL     1      17.437  -8.979  12.662  1.00  0.00     0.098 C 
BRANCH  31  32
HETATM   32  N4  UNL     1      18.363  -9.379  13.757  1.00  0.00    -0.331 N 
HETATM   33  C20 UNL     1      19.427 -10.270  13.446  1.00  0.00     0.361 C 
HETATM   34  O5  UNL     1      19.599 -10.723  12.275  1.00  0.00    -0.238 OA
ATOM     35  H4  UNL     1      18.237  -9.023  14.704  1.00  0.00     0.165 HD
BRANCH  33  36
HETATM   36  O6  UNL     1      20.346 -10.709  14.384  1.00  0.00    -0.294 OA
BRANCH  36  37
HETATM   37  C21 UNL     1      21.669 -10.293  14.466  1.00  0.00     0.061 C 
HETATM   38  C22 UNL     1      22.193 -10.693  15.852  1.00  0.00     0.046 C 
HETATM   39  C23 UNL     1      22.590 -10.977  13.482  1.00  0.00     0.046 C 
HETATM   40  C24 UNL     1      21.807  -8.811  14.362  1.00  0.00     0.046 C 
ENDBRANCH  36  37
ENDBRANCH  33  36
ENDBRANCH  31  32
BRANCH  31  41
HETATM   41  C25 UNL     1      16.152  -9.618  13.039  1.00  0.00     0.060 C 
HETATM   42  C26 UNL     1      15.356 -10.408  12.078  1.00  0.00     0.240 C 
HETATM   43  N5  UNL     1      15.006 -11.286  13.222  1.00  0.00    -0.074 N 
HETATM   44  C27 UNL     1      16.383 -10.996  13.676  1.00  0.00     0.240 C 
ATOM     45  H52 UNL     1      14.188 -11.122  13.809  1.00  0.00     0.277 HD
ATOM     46  H51 UNL     1      14.659 -12.237  13.097  1.00  0.00     0.277 HD
ENDBRANCH  31  41
ENDBRANCH   6  31
TORSDOF 13
ENDMDL
MODEL 5
REMARK VINA RESULT: -8.812664715      2.417      3.417
REMARK  13 active torsions:
REMARK  status: ('A' for Active; 'I' for Inactive)
REMARK    1  A    between atoms: C2_2  and  C4_4 
REMARK    2  A    between atoms: C4_4  and  C5_5 
REMARK    3  A    between atoms: C5_5  and  N1_6 
REMARK    4  A    between atoms: C5_5  and  C15_22 
REMARK       I    between atoms: N1_6  and  C6_8 
REMARK    5  A    between atoms: C6_8  and  C7_10 
REMARK    6  A    between atoms: C7_10  and  N2_12 
REMARK       I    between atoms: N2_12  and  C9_14 
REMARK    7  A    between atoms: C9_14  and  O3_16 
REMARK    8  A    between atoms: O3_16  and  C10_17 
REMARK       I    between atoms: C15_22  and  N3_24 
REMARK    9  A    between atoms: C18_27  and  C19_28 
REMARK   10  A    between atoms: C19_28  and  N4_29 
REMARK   11  A    between atoms: C19_28  and  C25_38 
REMARK       I    between atoms: N4_29  and  C20_31 
REMARK   12  A    between atoms: C20_31  and  O6_33 
REMARK   13  A    between atoms: O6_33  and  C21_34 
ROOT
HETATM    1  C15 UNL     1      19.144  -3.271  15.629  1.00  0.00     0.243 C 
HETATM    2  O4  UNL     1      19.258  -3.024  14.368  1.00  0.00    -0.271 OA
HETATM    3  N3  UNL     1      19.229  -2.168  16.466  1.00  0.00    -0.346 N 
HETATM    4  C16 UNL     1      19.204  -2.242  17.894  1.00  0.00     0.127 C 
HETATM    5  C17 UNL     1      18.087  -1.282  18.322  1.00  0.00     0.026 C 
HETATM    6  C18 UNL     1      18.608   0.083  18.162  1.00  0.00     0.012 C 
HETATM    7  C28 UNL     1      19.472   0.232  16.935  1.00  0.00     0.031 C 
HETATM    8  C29 UNL     1      19.335  -0.839  15.904  1.00  0.00     0.083 C 
HETATM    9  C30 UNL     1      20.598  -0.809  15.054  1.00  0.00     0.032 C 
ENDROOT
BRANCH   1  10
HETATM   10  C5  UNL     1      18.942  -4.692  16.014  1.00  0.00     0.177 C 
BRANCH  10  11
HETATM   11  C4  UNL     1      17.503  -5.025  16.196  1.00  0.00     0.038 C 
BRANCH  11  12
HETATM   12  C2  UNL     1      16.519  -4.430  15.267  1.00  0.00    -0.020 C 
HETATM   13  C1  UNL     1      15.693  -5.622  14.709  1.00  0.00     0.009 C 
HETATM   14  C3  UNL     1      15.529  -3.461  15.786  1.00  0.00     0.009 C 
ENDBRANCH  11  12
ENDBRANCH  10  11
BRANCH  10  15
HETATM   15  N1  UNL     1      19.611  -5.535  15.066  1.00  0.00    -0.346 N 
HETATM   16  C6  UNL     1      20.981  -5.883  15.065  1.00  0.00     0.240 C 
HETATM   17  O1  UNL     1      21.753  -5.442  15.929  1.00  0.00    -0.271 OA
ATOM     18  H1  UNL     1      19.040  -5.923  14.316  1.00  0.00     0.163 HD
BRANCH  16  19
HETATM   19  C7  UNL     1      21.536  -6.794  14.021  1.00  0.00     0.174 C 
HETATM   20  C8  UNL     1      22.338  -6.079  12.962  1.00  0.00     0.042 C 
BRANCH  19  21
HETATM   21  N2  UNL     1      22.254  -7.907  14.575  1.00  0.00    -0.324 N 
HETATM   22  C9  UNL     1      21.905  -9.246  14.313  1.00  0.00     0.361 C 
HETATM   23  O2  UNL     1      20.920  -9.491  13.574  1.00  0.00    -0.238 OA
ATOM     24  H2  UNL     1      23.050  -7.720  15.184  1.00  0.00     0.165 HD
BRANCH  22  25
HETATM   25  O3  UNL     1      22.615 -10.319  14.845  1.00  0.00    -0.299 OA
BRANCH  25  26
HETATM   26  C10 UNL     1      22.046 -11.249  15.745  1.00  0.00     0.133 C 
HETATM   27  C11 UNL     1      22.186 -10.840  17.166  1.00  0.00     0.032 C 
HETATM   28  C12 UNL     1      22.681 -12.004  17.979  1.00  0.00     0.002 C 
HETATM   29  C13 UNL     1      22.701 -13.175  16.989  1.00  0.00     0.002 C 
HETATM   30  C14 UNL     1      22.908 -12.512  15.647  1.00  0.00     0.032 C 
ENDBRANCH  25  26
ENDBRANCH  22  25
ENDBRANCH  19  21
ENDBRANCH  16  19
ENDBRANCH  10  15
ENDBRANCH   1  10
BRANCH   6  31
HETATM   31  C19 UNL     1      19.238   0.747  19.357  1.00  0.00     0.098 C 
BRANCH  31  32
HETATM   32  N4  UNL     1      20.520   1.374  18.934  1.00  0.00    -0.331 N 
HETATM   33  C20 UNL     1      21.719   0.624  19.087  1.00  0.00     0.361 C 
HETATM   34  O5  UNL     1      21.717  -0.549  19.569  1.00  0.00    -0.238 OA
ATOM     35  H4  UNL     1      20.538   2.316  18.545  1.00  0.00     0.165 HD
BRANCH  33  36
HETATM   36  O6  UNL     1      22.966   1.108  18.728  1.00  0.00    -0.294 OA
BRANCH  36  37
HETATM   37  C21 UNL     1      24.163   0.776  19.349  1.00  0.00     0.061 C 
HETATM   38  C22 UNL     1      25.024   2.045  19.401  1.00  0.00     0.046 C 
HETATM   39  C23 UNL     1      24.010   0.343  20.790  1.00  0.00     0.046 C 
HETATM   40  C24 UNL     1      24.939  -0.241  18.582  1.00  0.00     0.046 C 
ENDBRANCH  36  37
ENDBRANCH  33  36
ENDBRANCH  31  32
BRANCH  31  41
HETATM   41  C25 UNL     1      18.485   1.868  19.969  1.00  0.00     0.060 C 
HETATM   42  C26 UNL     1      17.467   1.651  21.018  1.00  0.00     0.240 C 
HETATM   43  N5  UNL     1      17.936   2.925  21.616  1.00  0.00    -0.074 N 
HETATM   44  C27 UNL     1      19.265   2.491  21.135  1.00  0.00     0.240 C 
ATOM     45  H52 UNL     1      17.531   3.828  21.369  1.00  0.00     0.277 HD
ATOM     46  H51 UNL     1      17.758   3.172  22.589  1.00  0.00     0.277 HD
ENDBRANCH  31  41
ENDBRANCH   6  31
TORSDOF 13
ENDMDL
