MODEL 1
REMARK VINA RESULT: -7.146824668      0.000      0.000
REMARK  4 active torsions:
REMARK  status: ('A' for Active; 'I' for Inactive)
REMARK    1  A    between atoms: C5_5  and  N1_6 
REMARK       I    between atoms: N1_6  and  C6_8 
REMARK    2  A    between atoms: C6_8  and  C7_10 
REMARK    3  A    between atoms: C7_10  and  S1_11 
REMARK    4  A    between atoms: S1_11  and  C8_12 
ROOT
HETATM    1  N1  UNL     1      24.910   6.288  16.946  1.00  0.00    -0.353 N 
ATOM      2  H1  UNL     1      25.858   6.577  16.707  1.00  0.00     0.163 HD
HETATM    3  C6  UNL     1      24.659   5.800  18.259  1.00  0.00     0.227 C 
HETATM    4  O1  UNL     1      23.503   5.440  18.573  1.00  0.00    -0.273 OA
ENDROOT
BRANCH   1   5
HETATM    5  C5  UNL     1      23.876   6.393  15.933  1.00  0.00     0.119 C 
HETATM    6  C4  UNL     1      23.580   7.782  15.514  1.00  0.00     0.036 C 
HETATM    7  C2  UNL     1      23.790   8.141  14.103  1.00  0.00    -0.045 C 
HETATM    8  C1  UNL     1      22.749   9.218  13.735  1.00  0.00     0.015 C 
HETATM    9  C3  UNL     1      25.126   8.856  13.920  1.00  0.00     0.015 C 
HETATM   10  C14 UNL     1      23.634   7.063  13.088  1.00  0.00     0.020 C 
HETATM   11  C11 UNL     1      23.345   5.702  13.647  1.00  0.00    -0.014 C 
HETATM   12  C10 UNL     1      24.246   5.455  14.820  1.00  0.00     0.200 C 
HETATM   13  C12 UNL     1      23.727   4.680  12.588  1.00  0.00     0.018 C 
HETATM   14  C13 UNL     1      21.905   5.473  13.963  1.00  0.00     0.018 C 
HETATM   15  F1  UNL     1      25.562   5.509  14.457  1.00  0.00    -0.246 F 
ENDBRANCH   1   5
BRANCH   3  16
HETATM   16  C7  UNL     1      25.704   5.692  19.293  1.00  0.00     0.185 C 
BRANCH  16  17
HETATM   17  S1  UNL     1      26.147   7.351  19.862  1.00  0.00    -0.083 SA
BRANCH  17  18
HETATM   18  C8  UNL     1      26.822   7.351  21.490  1.00  0.00     0.160 A 
HETATM   19  N2  UNL     1      28.101   7.096  21.799  1.00  0.00    -0.331 N 
HETATM   20  C9  UNL     1      28.286   7.177  23.129  1.00  0.00     0.199 A 
ATOM     21  H2  UNL     1      28.830   6.872  21.121  1.00  0.00     0.168 HD
HETATM   22  N3  UNL     1      27.074   7.493  23.642  1.00  0.00    -0.294 N 
HETATM   23  N4  UNL     1      26.195   7.596  22.648  1.00  0.00    -0.279 N 
ATOM     24  H3  UNL     1      26.867   7.629  24.631  1.00  0.00     0.187 HD
ATOM     25  H4  UNL     1      25.207   7.825  22.750  1.00  0.00     0.189 HD
ENDBRANCH  17  18
ENDBRANCH  16  17
ENDBRANCH   3  16
TORSDOF 4
ENDMDL
MODEL 2
REMARK VINA RESULT: -7.120097462      2.471      3.410
REMARK  4 active torsions:
REMARK  status: ('A' for Active; 'I' for Inactive)
REMARK    1  A    between atoms: C5_5  and  N1_6 
REMARK       I    between atoms: N1_6  and  C6_8 
REMARK    2  A    between atoms: C6_8  and  C7_10 
REMARK    3  A    between atoms: C7_10  and  S1_11 
REMARK    4  A    between atoms: S1_11  and  C8_12 
ROOT
HETATM    1  N1  UNL     1      25.183   7.668  19.338  1.00  0.00    -0.353 N 
ATOM      2  H1  UNL     1      24.798   8.559  19.650  1.00  0.00     0.163 HD
HETATM    3  C6  UNL     1      26.228   7.075  20.101  1.00  0.00     0.227 C 
HETATM    4  O1  UNL     1      26.714   5.982  19.735  1.00  0.00    -0.273 OA
ENDROOT
BRANCH   1   5
HETATM    5  C5  UNL     1      24.641   7.060  18.137  1.00  0.00     0.119 C 
HETATM    6  C4  UNL     1      23.166   6.930  18.139  1.00  0.00     0.036 C 
HETATM    7  C2  UNL     1      22.407   7.626  17.088  1.00  0.00    -0.045 C 
HETATM    8  C1  UNL     1      21.154   6.781  16.781  1.00  0.00     0.015 C 
HETATM    9  C3  UNL     1      21.835   8.939  17.615  1.00  0.00     0.015 C 
HETATM   10  C14 UNL     1      23.082   7.841  15.779  1.00  0.00     0.020 C 
HETATM   11  C11 UNL     1      24.506   7.375  15.715  1.00  0.00    -0.014 C 
HETATM   12  C10 UNL     1      25.216   7.802  16.964  1.00  0.00     0.200 C 
HETATM   13  C12 UNL     1      25.177   8.109  14.565  1.00  0.00     0.018 C 
HETATM   14  C13 UNL     1      24.650   5.917  15.434  1.00  0.00     0.018 C 
HETATM   15  F1  UNL     1      25.206   9.161  17.103  1.00  0.00    -0.246 F 
ENDBRANCH   1   5
BRANCH   3  16
HETATM   16  C7  UNL     1      26.782   7.686  21.322  1.00  0.00     0.185 C 
BRANCH  16  17
HETATM   17  S1  UNL     1      28.502   7.159  21.520  1.00  0.00    -0.083 SA
BRANCH  17  18
HETATM   18  C8  UNL     1      29.368   8.112  22.723  1.00  0.00     0.160 A 
HETATM   19  N2  UNL     1      29.765   9.382  22.566  1.00  0.00    -0.331 N 
HETATM   20  C9  UNL     1      30.399   9.814  23.672  1.00  0.00     0.199 A 
ATOM     21  H2  UNL     1      29.609   9.942  21.728  1.00  0.00     0.168 HD
HETATM   22  N3  UNL     1      30.384   8.765  24.528  1.00  0.00    -0.294 N 
HETATM   23  N4  UNL     1      29.760   7.741  23.949  1.00  0.00    -0.279 N 
ATOM     24  H3  UNL     1      30.785   8.760  25.465  1.00  0.00     0.187 HD
ATOM     25  H4  UNL     1      29.606   6.826  24.370  1.00  0.00     0.189 HD
ENDBRANCH  17  18
ENDBRANCH  16  17
ENDBRANCH   3  16
TORSDOF 4
ENDMDL
MODEL 3
REMARK VINA RESULT: -7.110925633      1.266      1.413
REMARK  4 active torsions:
REMARK  status: ('A' for Active; 'I' for Inactive)
REMARK    1  A    between atoms: C5_5  and  N1_6 
REMARK       I    between atoms: N1_6  and  C6_8 
REMARK    2  A    between atoms: C6_8  and  C7_10 
REMARK    3  A    between atoms: C7_10  and  S1_11 
REMARK    4  A    between atoms: S1_11  and  C8_12 
ROOT
HETATM    1  N1  UNL     1      25.136   6.325  17.391  1.00  0.00    -0.353 N 
ATOM      2  H1  UNL     1      26.009   6.797  17.155  1.00  0.00     0.163 HD
HETATM    3  C6  UNL     1      25.030   5.686  18.659  1.00  0.00     0.227 C 
HETATM    4  O1  UNL     1      23.969   5.102  18.967  1.00  0.00    -0.273 OA
ENDROOT
BRANCH   1   5
HETATM    5  C5  UNL     1      24.057   6.335  16.420  1.00  0.00     0.119 C 
HETATM    6  C4  UNL     1      23.163   7.511  16.525  1.00  0.00     0.036 C 
HETATM    7  C2  UNL     1      23.056   8.406  15.363  1.00  0.00    -0.045 C 
HETATM    8  C1  UNL     1      21.627   8.986  15.348  1.00  0.00     0.015 C 
HETATM    9  C3  UNL     1      23.941   9.637  15.547  1.00  0.00     0.015 C 
HETATM   10  C14 UNL     1      23.267   7.813  14.014  1.00  0.00     0.020 C 
HETATM   11  C11 UNL     1      23.638   6.360  14.011  1.00  0.00    -0.014 C 
HETATM   12  C10 UNL     1      24.673   6.118  15.068  1.00  0.00     0.200 C 
HETATM   13  C12 UNL     1      24.304   6.059  12.678  1.00  0.00     0.018 C 
HETATM   14  C13 UNL     1      22.468   5.440  14.121  1.00  0.00     0.018 C 
HETATM   15  F1  UNL     1      25.799   6.858  14.841  1.00  0.00    -0.246 F 
ENDBRANCH   1   5
BRANCH   3  16
HETATM   16  C7  UNL     1      26.122   5.674  19.649  1.00  0.00     0.185 C 
BRANCH  16  17
HETATM   17  S1  UNL     1      26.337   7.343  20.313  1.00  0.00    -0.083 SA
BRANCH  17  18
HETATM   18  C8  UNL     1      27.789   7.497  21.301  1.00  0.00     0.160 A 
HETATM   19  N2  UNL     1      28.513   8.614  21.446  1.00  0.00    -0.331 N 
HETATM   20  C9  UNL     1      29.556   8.393  22.266  1.00  0.00     0.199 A 
ATOM     21  H2  UNL     1      28.302   9.507  20.999  1.00  0.00     0.168 HD
HETATM   22  N3  UNL     1      29.458   7.092  22.630  1.00  0.00    -0.294 N 
HETATM   23  N4  UNL     1      28.389   6.557  22.043  1.00  0.00    -0.279 N 
ATOM     24  H3  UNL     1      30.100   6.602  23.252  1.00  0.00     0.187 HD
ATOM     25  H4  UNL     1      28.079   5.591  22.143  1.00  0.00     0.189 HD
ENDBRANCH  17  18
ENDBRANCH  16  17
ENDBRANCH   3  16
TORSDOF 4
ENDMDL
MODEL 4
REMARK VINA RESULT: -7.098375611      2.099      2.956
REMARK  4 active torsions:
REMARK  status: ('A' for Active; 'I' for Inactive)
REMARK    1  A    between atoms: C5_5  and  N1_6 
REMARK       I    between atoms: N1_6  and  C6_8 
REMARK    2  A    between atoms: C6_8  and  C7_10 
REMARK    3  A    between atoms: C7_10  and  S1_11 
REMARK    4  A    between atoms: S1_11  and  C8_12 
ROOT
HETATM    1  N1  UNL     1      24.803   7.236  18.674  1.00  0.00    -0.353 N 
ATOM      2  H1  UNL     1      24.193   7.981  19.011  1.00  0.00     0.163 HD
HETATM    3  C6  UNL     1      25.764   6.686  19.568  1.00  0.00     0.227 C 
HETATM    4  O1  UNL     1      26.521   5.772  19.173  1.00  0.00    -0.273 OA
ENDROOT
BRANCH   1   5
HETATM    5  C5  UNL     1      24.652   6.784  17.303  1.00  0.00     0.119 C 
HETATM    6  C4  UNL     1      23.303   6.264  16.984  1.00  0.00     0.036 C 
HETATM    7  C2  UNL     1      22.529   6.942  15.932  1.00  0.00    -0.045 C 
HETATM    8  C1  UNL     1      21.651   5.881  15.240  1.00  0.00     0.015 C 
HETATM    9  C3  UNL     1      21.514   7.904  16.545  1.00  0.00     0.015 C 
HETATM   10  C14 UNL     1      23.289   7.614  14.842  1.00  0.00     0.020 C 
HETATM   11  C11 UNL     1      24.781   7.575  14.991  1.00  0.00    -0.014 C 
HETATM   12  C10 UNL     1      25.138   7.892  16.412  1.00  0.00     0.200 C 
HETATM   13  C12 UNL     1      25.356   8.696  14.141  1.00  0.00     0.018 C 
HETATM   14  C13 UNL     1      25.401   6.308  14.505  1.00  0.00     0.018 C 
HETATM   15  F1  UNL     1      24.694   9.133  16.772  1.00  0.00    -0.246 F 
ENDBRANCH   1   5
BRANCH   3  16
HETATM   16  C7  UNL     1      25.921   7.140  20.962  1.00  0.00     0.185 C 
BRANCH  16  17
HETATM   17  S1  UNL     1      27.461   8.078  21.108  1.00  0.00    -0.083 SA
BRANCH  17  18
HETATM   18  C8  UNL     1      27.528   9.045  22.580  1.00  0.00     0.160 A 
HETATM   19  N2  UNL     1      28.643   9.542  23.131  1.00  0.00    -0.331 N 
HETATM   20  C9  UNL     1      28.346  10.232  24.247  1.00  0.00     0.199 A 
ATOM     21  H2  UNL     1      29.584   9.416  22.756  1.00  0.00     0.168 HD
HETATM   22  N3  UNL     1      27.001  10.147  24.375  1.00  0.00    -0.294 N 
HETATM   23  N4  UNL     1      26.514   9.429  23.366  1.00  0.00    -0.279 N 
ATOM     24  H3  UNL     1      26.451  10.565  25.125  1.00  0.00     0.187 HD
ATOM     25  H4  UNL     1      25.530   9.208  23.216  1.00  0.00     0.189 HD
ENDBRANCH  17  18
ENDBRANCH  16  17
ENDBRANCH   3  16
TORSDOF 4
ENDMDL
MODEL 5
REMARK VINA RESULT: -7.093965240      1.735      2.544
REMARK  4 active torsions:
REMARK  status: ('A' for Active; 'I' for Inactive)
REMARK    1  A    between atoms: C5_5  and  N1_6 
REMARK       I    between atoms: N1_6  and  C6_8 
REMARK    2  A    between atoms: C6_8  and  C7_10 
REMARK    3  A    between atoms: C7_10  and  S1_11 
REMARK    4  A    between atoms: S1_11  and  C8_12 
ROOT
HETATM    1  N1  UNL     1      25.078   7.059  17.777  1.00  0.00    -0.353 N 
ATOM      2  H1  UNL     1      25.567   7.912  18.050  1.00  0.00     0.163 HD
HETATM    3  C6  UNL     1      25.305   5.874  18.532  1.00  0.00     0.227 C 
HETATM    4  O1  UNL     1      24.716   4.818  18.213  1.00  0.00    -0.273 OA
ENDROOT
BRANCH   1   5
HETATM    5  C5  UNL     1      24.183   7.108  16.635  1.00  0.00     0.119 C 
HETATM    6  C4  UNL     1      22.784   7.446  16.980  1.00  0.00     0.036 C 
HETATM    7  C2  UNL     1      22.200   8.662  16.393  1.00  0.00    -0.045 C 
HETATM    8  C1  UNL     1      20.691   8.409  16.197  1.00  0.00     0.015 C 
HETATM    9  C3  UNL     1      22.243   9.817  17.391  1.00  0.00     0.015 C 
HETATM   10  C14 UNL     1      22.713   9.102  15.067  1.00  0.00     0.020 C 
HETATM   11  C11 UNL     1      23.833   8.273  14.513  1.00  0.00    -0.014 C 
HETATM   12  C10 UNL     1      24.822   7.996  15.606  1.00  0.00     0.200 C 
HETATM   13  C12 UNL     1      24.560   9.117  13.478  1.00  0.00     0.018 C 
HETATM   14  C13 UNL     1      23.379   7.036  13.814  1.00  0.00     0.018 C 
HETATM   15  F1  UNL     1      25.342   9.154  16.113  1.00  0.00    -0.246 F 
ENDBRANCH   1   5
BRANCH   3  16
HETATM   16  C7  UNL     1      26.212   5.819  19.693  1.00  0.00     0.185 C 
BRANCH  16  17
HETATM   17  S1  UNL     1      26.436   7.490  20.348  1.00  0.00    -0.083 SA
BRANCH  17  18
HETATM   18  C8  UNL     1      27.870   7.633  21.363  1.00  0.00     0.160 A 
HETATM   19  N2  UNL     1      28.619   8.736  21.495  1.00  0.00    -0.331 N 
HETATM   20  C9  UNL     1      29.639   8.509  22.344  1.00  0.00     0.199 A 
ATOM     21  H2  UNL     1      28.442   9.621  21.021  1.00  0.00     0.168 HD
HETATM   22  N3  UNL     1      29.500   7.221  22.737  1.00  0.00    -0.294 N 
HETATM   23  N4  UNL     1      28.430   6.698  22.142  1.00  0.00    -0.279 N 
ATOM     24  H3  UNL     1      30.116   6.731  23.386  1.00  0.00     0.187 HD
ATOM     25  H4  UNL     1      28.093   5.743  22.259  1.00  0.00     0.189 HD
ENDBRANCH  17  18
ENDBRANCH  16  17
ENDBRANCH   3  16
TORSDOF 4
ENDMDL
