MODEL 1
REMARK VINA RESULT: -6.144965094      0.000      0.000
REMARK  9 active torsions:
REMARK  status: ('A' for Active; 'I' for Inactive)
REMARK    1  A    between atoms: C2_2  and  C5_5 
REMARK    2  A    between atoms: C5_5  and  C6_6 
REMARK    3  A    between atoms: C7_7  and  C8_8 
REMARK    4  A    between atoms: C9_9  and  C10_10 
REMARK    5  A    between atoms: C14_16  and  O2_17 
REMARK    6  A    between atoms: N1_19  and  C15_20 
REMARK    7  A    between atoms: C15_20  and  C16_21 
REMARK    8  A    between atoms: C16_21  and  C17_22 
REMARK    9  A    between atoms: C17_22  and  O3_23 
ROOT
HETATM    1  C6  UNL     1      23.900   7.088  13.480  1.00  0.00     0.052 A 
HETATM    2  C7  UNL     1      23.980   6.344  12.310  1.00  0.00     0.048 A 
HETATM    3  C13 UNL     1      24.461   5.092  12.699  1.00  0.00     0.079 A 
HETATM    4  C14 UNL     1      24.653   5.119  14.044  1.00  0.00     0.144 A 
HETATM    5  N1  UNL     1      24.311   6.346  14.547  1.00  0.00    -0.327 N 
ENDROOT
BRANCH   2   6
HETATM    6  C8  UNL     1      23.719   6.711  10.940  1.00  0.00    -0.062 C 
HETATM    7  C9  UNL     1      23.525   7.040   9.798  1.00  0.00    -0.064 C 
BRANCH   7   8
HETATM    8  C10 UNL     1      23.266   7.436   8.412  1.00  0.00     0.252 A 
HETATM    9  O1  UNL     1      23.346   8.900   8.203  1.00  0.00    -0.340 OA
HETATM   10  C11 UNL     1      24.291   7.934   7.595  1.00  0.00     0.172 A 
HETATM   11  C12 UNL     1      24.100   7.927   6.080  1.00  0.00     0.068 C 
HETATM   12 CL1  UNL     1      25.922   8.251   8.140  1.00  0.00    -0.085 Cl
ENDBRANCH   7   8
ENDBRANCH   2   6
BRANCH   1  13
HETATM   13  C5  UNL     1      23.494   8.480  13.560  1.00  0.00     0.013 C 
BRANCH  13  14
HETATM   14  C2  UNL     1      22.117   8.921  13.772  1.00  0.00    -0.031 C 
HETATM   15  C1  UNL     1      21.166   7.918  14.372  1.00  0.00     0.019 C 
HETATM   16  C3  UNL     1      21.914  10.278  14.404  1.00  0.00     0.019 C 
HETATM   17  C4  UNL     1      21.476   9.141  12.336  1.00  0.00     0.019 C 
ENDBRANCH  13  14
ENDBRANCH   1  13
BRANCH   5  18
HETATM   18  C15 UNL     1      24.394   6.642  15.956  1.00  0.00     0.133 C 
BRANCH  18  19
HETATM   19  C16 UNL     1      23.220   6.269  16.779  1.00  0.00     0.046 C 
BRANCH  19  20
HETATM   20  C17 UNL     1      23.750   5.624  18.071  1.00  0.00     0.165 C 
BRANCH  20  21
HETATM   21  O3  UNL     1      24.699   4.655  17.757  1.00  0.00    -0.401 OA
ATOM     22  H3  UNL     1      24.891   4.133  18.526  1.00  0.00     0.209 HD
ENDBRANCH  20  21
ENDBRANCH  19  20
ENDBRANCH  18  19
ENDBRANCH   5  18
BRANCH   4  23
HETATM   23  O2  UNL     1      25.130   4.065  14.842  1.00  0.00    -0.346 OA
ATOM     24  H2  UNL     1      25.717   3.370  14.567  1.00  0.00     0.219 HD
ENDBRANCH   4  23
TORSDOF 9
ENDMDL
MODEL 2
REMARK VINA RESULT: -6.106432182      3.703      4.667
REMARK  9 active torsions:
REMARK  status: ('A' for Active; 'I' for Inactive)
REMARK    1  A    between atoms: C2_2  and  C5_5 
REMARK    2  A    between atoms: C5_5  and  C6_6 
REMARK    3  A    between atoms: C7_7  and  C8_8 
REMARK    4  A    between atoms: C9_9  and  C10_10 
REMARK    5  A    between atoms: C14_16  and  O2_17 
REMARK    6  A    between atoms: N1_19  and  C15_20 
REMARK    7  A    between atoms: C15_20  and  C16_21 
REMARK    8  A    between atoms: C16_21  and  C17_22 
REMARK    9  A    between atoms: C17_22  and  O3_23 
ROOT
HETATM    1  C6  UNL     1      23.037   6.047  15.953  1.00  0.00     0.052 A 
HETATM    2  C7  UNL     1      21.734   6.239  15.510  1.00  0.00     0.048 A 
HETATM    3  C13 UNL     1      21.042   6.759  16.605  1.00  0.00     0.079 A 
HETATM    4  C14 UNL     1      21.917   6.859  17.641  1.00  0.00     0.144 A 
HETATM    5  N1  UNL     1      23.157   6.423  17.257  1.00  0.00    -0.327 N 
ENDROOT
BRANCH   2   6
HETATM    6  C8  UNL     1      21.115   5.933  14.243  1.00  0.00    -0.062 C 
HETATM    7  C9  UNL     1      20.617   5.701  13.172  1.00  0.00    -0.064 C 
BRANCH   7   8
HETATM    8  C10 UNL     1      19.990   5.415  11.880  1.00  0.00     0.252 A 
HETATM    9  O1  UNL     1      20.783   5.905  10.729  1.00  0.00    -0.340 OA
HETATM   10  C11 UNL     1      20.537   4.469  11.001  1.00  0.00     0.172 A 
HETATM   11  C12 UNL     1      19.658   3.890   9.895  1.00  0.00     0.068 C 
HETATM   12 CL1  UNL     1      22.049   3.632  11.267  1.00  0.00    -0.085 Cl
ENDBRANCH   7   8
ENDBRANCH   2   6
BRANCH   1  13
HETATM   13  C5  UNL     1      24.113   5.472  15.165  1.00  0.00     0.013 C 
BRANCH  13  14
HETATM   14  C2  UNL     1      24.942   6.233  14.233  1.00  0.00    -0.031 C 
HETATM   15  C1  UNL     1      24.264   6.765  12.997  1.00  0.00     0.019 C 
HETATM   16  C3  UNL     1      25.861   7.280  14.819  1.00  0.00     0.019 C 
HETATM   17  C4  UNL     1      25.985   5.213  13.604  1.00  0.00     0.019 C 
ENDBRANCH  13  14
ENDBRANCH   1  13
BRANCH   5  18
HETATM   18  C15 UNL     1      24.284   6.443  18.158  1.00  0.00     0.133 C 
BRANCH  18  19
HETATM   19  C16 UNL     1      24.580   5.180  18.873  1.00  0.00     0.046 C 
BRANCH  19  20
HETATM   20  C17 UNL     1      24.251   5.405  20.359  1.00  0.00     0.165 C 
BRANCH  20  21
HETATM   21  O3  UNL     1      23.176   4.603  20.730  1.00  0.00    -0.401 OA
ATOM     22  H3  UNL     1      22.510   5.134  21.150  1.00  0.00     0.209 HD
ENDBRANCH  20  21
ENDBRANCH  19  20
ENDBRANCH  18  19
ENDBRANCH   5  18
BRANCH   4  23
HETATM   23  O2  UNL     1      21.632   7.333  18.933  1.00  0.00    -0.346 OA
ATOM     24  H2  UNL     1      21.178   6.860  19.622  1.00  0.00     0.219 HD
ENDBRANCH   4  23
TORSDOF 9
ENDMDL
MODEL 3
REMARK VINA RESULT: -6.098807193      0.960      1.466
REMARK  9 active torsions:
REMARK  status: ('A' for Active; 'I' for Inactive)
REMARK    1  A    between atoms: C2_2  and  C5_5 
REMARK    2  A    between atoms: C5_5  and  C6_6 
REMARK    3  A    between atoms: C7_7  and  C8_8 
REMARK    4  A    between atoms: C9_9  and  C10_10 
REMARK    5  A    between atoms: C14_16  and  O2_17 
REMARK    6  A    between atoms: N1_19  and  C15_20 
REMARK    7  A    between atoms: C15_20  and  C16_21 
REMARK    8  A    between atoms: C16_21  and  C17_22 
REMARK    9  A    between atoms: C17_22  and  O3_23 
ROOT
HETATM    1  C6  UNL     1      23.133   6.589  13.376  1.00  0.00     0.052 A 
HETATM    2  C7  UNL     1      23.748   6.135  12.216  1.00  0.00     0.048 A 
HETATM    3  C13 UNL     1      24.613   5.119  12.628  1.00  0.00     0.079 A 
HETATM    4  C14 UNL     1      24.500   4.997  13.977  1.00  0.00     0.144 A 
HETATM    5  N1  UNL     1      23.588   5.899  14.459  1.00  0.00    -0.327 N 
ENDROOT
BRANCH   2   6
HETATM    6  C8  UNL     1      23.641   6.592  10.852  1.00  0.00    -0.062 C 
HETATM    7  C9  UNL     1      23.535   7.000   9.725  1.00  0.00    -0.064 C 
BRANCH   7   8
HETATM    8  C10 UNL     1      23.405   7.473   8.345  1.00  0.00     0.252 A 
HETATM    9  O1  UNL     1      23.541   8.943   8.221  1.00  0.00    -0.340 OA
HETATM   10  C11 UNL     1      24.508   7.980   7.643  1.00  0.00     0.172 A 
HETATM   11  C12 UNL     1      24.446   8.055   6.119  1.00  0.00     0.068 C 
HETATM   12 CL1  UNL     1      26.095   8.219   8.337  1.00  0.00    -0.085 Cl
ENDBRANCH   7   8
ENDBRANCH   2   6
BRANCH   1  13
HETATM   13  C5  UNL     1      22.182   7.684  13.446  1.00  0.00     0.013 C 
BRANCH  13  14
HETATM   14  C2  UNL     1      20.774   7.571  13.070  1.00  0.00    -0.031 C 
HETATM   15  C1  UNL     1      20.356   8.245  11.788  1.00  0.00     0.019 C 
HETATM   16  C3  UNL     1      20.136   6.206  13.177  1.00  0.00     0.019 C 
HETATM   17  C4  UNL     1      19.942   8.395  14.143  1.00  0.00     0.019 C 
ENDBRANCH  13  14
ENDBRANCH   1  13
BRANCH   5  18
HETATM   18  C15 UNL     1      23.255   5.968  15.861  1.00  0.00     0.133 C 
BRANCH  18  19
HETATM   19  C16 UNL     1      24.106   6.847  16.698  1.00  0.00     0.046 C 
BRANCH  19  20
HETATM   20  C17 UNL     1      24.570   6.019  17.909  1.00  0.00     0.165 C 
BRANCH  20  21
HETATM   21  O3  UNL     1      24.562   4.666  17.583  1.00  0.00    -0.401 OA
ATOM     22  H3  UNL     1      23.695   4.412  17.289  1.00  0.00     0.209 HD
ENDBRANCH  20  21
ENDBRANCH  19  20
ENDBRANCH  18  19
ENDBRANCH   5  18
BRANCH   4  23
HETATM   23  O2  UNL     1      25.198   4.093  14.796  1.00  0.00    -0.346 OA
ATOM     24  H2  UNL     1      25.631   3.295  14.515  1.00  0.00     0.219 HD
ENDBRANCH   4  23
TORSDOF 9
ENDMDL
MODEL 4
REMARK VINA RESULT: -6.086072986      3.386      3.755
REMARK  9 active torsions:
REMARK  status: ('A' for Active; 'I' for Inactive)
REMARK    1  A    between atoms: C2_2  and  C5_5 
REMARK    2  A    between atoms: C5_5  and  C6_6 
REMARK    3  A    between atoms: C7_7  and  C8_8 
REMARK    4  A    between atoms: C9_9  and  C10_10 
REMARK    5  A    between atoms: C14_16  and  O2_17 
REMARK    6  A    between atoms: N1_19  and  C15_20 
REMARK    7  A    between atoms: C15_20  and  C16_21 
REMARK    8  A    between atoms: C16_21  and  C17_22 
REMARK    9  A    between atoms: C17_22  and  O3_23 
ROOT
HETATM    1  C6  UNL     1      23.526   5.915  14.836  1.00  0.00     0.052 A 
HETATM    2  C7  UNL     1      23.780   5.427  13.560  1.00  0.00     0.048 A 
HETATM    3  C13 UNL     1      25.141   5.647  13.342  1.00  0.00     0.079 A 
HETATM    4  C14 UNL     1      25.649   6.243  14.453  1.00  0.00     0.144 A 
HETATM    5  N1  UNL     1      24.665   6.417  15.389  1.00  0.00    -0.327 N 
ENDROOT
BRANCH   2   6
HETATM    6  C8  UNL     1      22.891   4.866  12.572  1.00  0.00    -0.062 C 
HETATM    7  C9  UNL     1      22.145   4.429  11.734  1.00  0.00    -0.064 C 
BRANCH   7   8
HETATM    8  C10 UNL     1      21.229   3.881  10.732  1.00  0.00     0.252 A 
HETATM    9  O1  UNL     1      19.808   3.955  11.142  1.00  0.00    -0.340 OA
HETATM   10  C11 UNL     1      20.370   4.713  10.000  1.00  0.00     0.172 A 
HETATM   11  C12 UNL     1      19.761   4.192   8.701  1.00  0.00     0.068 C 
HETATM   12 CL1  UNL     1      20.198   6.433  10.267  1.00  0.00    -0.085 Cl
ENDBRANCH   7   8
ENDBRANCH   2   6
BRANCH   1  13
HETATM   13  C5  UNL     1      22.223   5.944  15.477  1.00  0.00     0.013 C 
BRANCH  13  14
HETATM   14  C2  UNL     1      21.150   6.865  15.110  1.00  0.00    -0.031 C 
HETATM   15  C1  UNL     1      21.562   8.199  14.543  1.00  0.00     0.019 C 
HETATM   16  C3  UNL     1      19.990   6.299  14.325  1.00  0.00     0.019 C 
HETATM   17  C4  UNL     1      20.436   7.304  16.458  1.00  0.00     0.019 C 
ENDBRANCH  13  14
ENDBRANCH   1  13
BRANCH   5  18
HETATM   18  C15 UNL     1      24.937   7.006  16.678  1.00  0.00     0.133 C 
BRANCH  18  19
HETATM   19  C16 UNL     1      24.749   8.472  16.786  1.00  0.00     0.046 C 
BRANCH  19  20
HETATM   20  C17 UNL     1      23.632   8.718  17.814  1.00  0.00     0.165 C 
BRANCH  20  21
HETATM   21  O3  UNL     1      23.895   7.996  18.975  1.00  0.00    -0.401 OA
ATOM     22  H3  UNL     1      24.404   8.528  19.575  1.00  0.00     0.209 HD
ENDBRANCH  20  21
ENDBRANCH  19  20
ENDBRANCH  18  19
ENDBRANCH   5  18
BRANCH   4  23
HETATM   23  O2  UNL     1      26.983   6.639  14.652  1.00  0.00    -0.346 OA
ATOM     24  H2  UNL     1      27.467   6.604  15.470  1.00  0.00     0.219 HD
ENDBRANCH   4  23
TORSDOF 9
ENDMDL
MODEL 5
REMARK VINA RESULT: -6.069769493      3.304      3.677
REMARK  9 active torsions:
REMARK  status: ('A' for Active; 'I' for Inactive)
REMARK    1  A    between atoms: C2_2  and  C5_5 
REMARK    2  A    between atoms: C5_5  and  C6_6 
REMARK    3  A    between atoms: C7_7  and  C8_8 
REMARK    4  A    between atoms: C9_9  and  C10_10 
REMARK    5  A    between atoms: C14_16  and  O2_17 
REMARK    6  A    between atoms: N1_19  and  C15_20 
REMARK    7  A    between atoms: C15_20  and  C16_21 
REMARK    8  A    between atoms: C16_21  and  C17_22 
REMARK    9  A    between atoms: C17_22  and  O3_23 
ROOT
HETATM    1  C6  UNL     1      23.554   5.877  14.966  1.00  0.00     0.052 A 
HETATM    2  C7  UNL     1      23.847   5.433  13.683  1.00  0.00     0.048 A 
HETATM    3  C13 UNL     1      25.212   5.670  13.511  1.00  0.00     0.079 A 
HETATM    4  C14 UNL     1      25.684   6.232  14.656  1.00  0.00     0.144 A 
HETATM    5  N1  UNL     1      24.672   6.368  15.569  1.00  0.00    -0.327 N 
ENDROOT
BRANCH   2   6
HETATM    6  C8  UNL     1      22.991   4.899  12.652  1.00  0.00    -0.062 C 
HETATM    7  C9  UNL     1      22.293   4.472  11.769  1.00  0.00    -0.064 C 
BRANCH   7   8
HETATM    8  C10 UNL     1      21.425   3.953  10.710  1.00  0.00     0.252 A 
HETATM    9  O1  UNL     1      20.001   3.875  11.113  1.00  0.00    -0.340 OA
HETATM   10  C11 UNL     1      20.504   4.782  10.054  1.00  0.00     0.172 A 
HETATM   11  C12 UNL     1      19.941   4.341   8.704  1.00  0.00     0.068 C 
HETATM   12 CL1  UNL     1      20.196   6.449  10.481  1.00  0.00    -0.085 Cl
ENDBRANCH   7   8
ENDBRANCH   2   6
BRANCH   1  13
HETATM   13  C5  UNL     1      22.233   5.876  15.570  1.00  0.00     0.013 C 
BRANCH  13  14
HETATM   14  C2  UNL     1      21.168   6.810  15.212  1.00  0.00    -0.031 C 
HETATM   15  C1  UNL     1      21.591   8.155  14.682  1.00  0.00     0.019 C 
HETATM   16  C3  UNL     1      20.014   6.267  14.401  1.00  0.00     0.019 C 
HETATM   17  C4  UNL     1      20.439   7.220  16.562  1.00  0.00     0.019 C 
ENDBRANCH  13  14
ENDBRANCH   1  13
BRANCH   5  18
HETATM   18  C15 UNL     1      24.902   6.917  16.883  1.00  0.00     0.133 C 
BRANCH  18  19
HETATM   19  C16 UNL     1      24.906   5.952  18.008  1.00  0.00     0.046 C 
BRANCH  19  20
HETATM   20  C17 UNL     1      25.898   6.477  19.060  1.00  0.00     0.165 C 
BRANCH  20  21
HETATM   21  O3  UNL     1      26.634   5.418  19.582  1.00  0.00    -0.401 OA
ATOM     22  H3  UNL     1      27.297   5.149  18.957  1.00  0.00     0.209 HD
ENDBRANCH  20  21
ENDBRANCH  19  20
ENDBRANCH  18  19
ENDBRANCH   5  18
BRANCH   4  23
HETATM   23  O2  UNL     1      27.008   6.631  14.907  1.00  0.00    -0.346 OA
ATOM     24  H2  UNL     1      27.287   7.342  15.473  1.00  0.00     0.219 HD
ENDBRANCH   4  23
TORSDOF 9
ENDMDL
