MODEL 1
REMARK VINA RESULT: -6.885385319      0.000      0.000
REMARK  4 active torsions:
REMARK  status: ('A' for Active; 'I' for Inactive)
REMARK    1  A    between atoms: C2_2  and  N1_3 
REMARK    2  A    between atoms: C4_5  and  C5_6 
REMARK    3  A    between atoms: C5_6  and  N2_7 
REMARK    4  A    between atoms: N2_7  and  C6_9 
ROOT
HETATM    1  C6  UNL     1      24.225   6.298  15.381  1.00  0.00     0.108 C 
HETATM    2  C7  UNL     1      24.402   5.469  14.135  1.00  0.00     0.056 C 
HETATM    3  C8  UNL     1      23.324   5.915  13.170  1.00  0.00     0.021 C 
HETATM    4  C9  UNL     1      21.974   5.336  13.540  1.00  0.00     0.037 C 
HETATM    5  C10 UNL     1      23.698   5.221  11.844  1.00  0.00     0.037 C 
HETATM    6  N3  UNL     1      23.326   7.287  12.916  1.00  0.00    -0.403 N 
ATOM      7  H3  UNL     1      23.063   7.620  11.989  1.00  0.00     0.154 HD
HETATM    8  C11 UNL     1      23.682   8.228  13.905  1.00  0.00     0.042 C 
HETATM    9  C12 UNL     1      22.407   8.888  14.398  1.00  0.00     0.039 C 
HETATM   10  C13 UNL     1      24.464   9.336  13.217  1.00  0.00     0.039 C 
HETATM   11  C14 UNL     1      24.546   7.716  15.020  1.00  0.00     0.078 C 
HETATM   12  C15 UNL     1      24.314   8.581  16.232  1.00  0.00     0.037 C 
HETATM   13 CL1  UNL     1      26.265   7.840  14.587  1.00  0.00    -0.115 Cl
ENDROOT
BRANCH   1  14
HETATM   14  N2  UNL     1      24.771   5.748  16.522  1.00  0.00    -0.391 N 
ATOM     15  H2  UNL     1      25.782   5.612  16.552  1.00  0.00     0.159 HD
BRANCH  14  16
HETATM   16  C5  UNL     1      24.025   5.366  17.636  1.00  0.00     0.097 C 
BRANCH  16  17
HETATM   17  C4  UNL     1      24.682   5.916  18.881  1.00  0.00     0.013 A 
HETATM   18  C3  UNL     1      25.873   6.598  18.991  1.00  0.00     0.124 A 
HETATM   19  N1  UNL     1      26.117   6.928  20.271  1.00  0.00    -0.303 N 
HETATM   20  N4  UNL     1      25.099   6.465  20.971  1.00  0.00    -0.309 N 
HETATM   21  C16 UNL     1      24.205   5.845  20.177  1.00  0.00     0.121 A 
ATOM     22  H4  UNL     1      25.002   6.563  21.981  1.00  0.00     0.186 HD
BRANCH  19  23
HETATM   23  C2  UNL     1      27.289   7.656  20.781  1.00  0.00     0.143 C 
HETATM   24  C1  UNL     1      27.053   7.999  22.234  1.00  0.00     0.028 C 
ENDBRANCH  19  23
ENDBRANCH  16  17
ENDBRANCH  14  16
ENDBRANCH   1  14
TORSDOF 4
ENDMDL
MODEL 2
REMARK VINA RESULT: -6.788425974      1.537      2.052
REMARK  4 active torsions:
REMARK  status: ('A' for Active; 'I' for Inactive)
REMARK    1  A    between atoms: C2_2  and  N1_3 
REMARK    2  A    between atoms: C4_5  and  C5_6 
REMARK    3  A    between atoms: C5_6  and  N2_7 
REMARK    4  A    between atoms: N2_7  and  C6_9 
ROOT
HETATM    1  C6  UNL     1      23.891   6.340  15.748  1.00  0.00     0.108 C 
HETATM    2  C7  UNL     1      22.508   5.790  15.514  1.00  0.00     0.056 C 
HETATM    3  C8  UNL     1      21.658   6.954  15.049  1.00  0.00     0.021 C 
HETATM    4  C9  UNL     1      21.266   7.850  16.205  1.00  0.00     0.037 C 
HETATM    5  C10 UNL     1      20.338   6.297  14.597  1.00  0.00     0.037 C 
HETATM    6  N3  UNL     1      22.174   7.620  13.937  1.00  0.00    -0.403 N 
ATOM      7  H3  UNL     1      21.529   8.016  13.254  1.00  0.00     0.154 HD
HETATM    8  C11 UNL     1      23.562   7.761  13.729  1.00  0.00     0.042 C 
HETATM    9  C12 UNL     1      23.938   9.193  14.063  1.00  0.00     0.039 C 
HETATM   10  C13 UNL     1      23.814   7.619  12.237  1.00  0.00     0.039 C 
HETATM   11  C14 UNL     1      24.436   6.751  14.413  1.00  0.00     0.078 C 
HETATM   12  C15 UNL     1      25.795   7.368  14.622  1.00  0.00     0.037 C 
HETATM   13 CL1  UNL     1      24.646   5.311  13.393  1.00  0.00    -0.115 Cl
ENDROOT
BRANCH   1  14
HETATM   14  N2  UNL     1      24.675   5.590  16.599  1.00  0.00    -0.391 N 
ATOM     15  H2  UNL     1      25.548   5.208  16.234  1.00  0.00     0.159 HD
BRANCH  14  16
HETATM   16  C5  UNL     1      24.345   5.321  17.927  1.00  0.00     0.097 C 
BRANCH  16  17
HETATM   17  C4  UNL     1      25.139   6.240  18.827  1.00  0.00     0.013 A 
HETATM   18  C3  UNL     1      26.237   5.942  19.601  1.00  0.00     0.124 A 
HETATM   19  N1  UNL     1      26.667   7.032  20.260  1.00  0.00    -0.303 N 
HETATM   20  N4  UNL     1      25.857   8.014  19.912  1.00  0.00    -0.309 N 
HETATM   21  C16 UNL     1      24.916   7.587  19.049  1.00  0.00     0.121 A 
ATOM     22  H4  UNL     1      25.933   8.972  20.254  1.00  0.00     0.186 HD
BRANCH  19  23
HETATM   23  C2  UNL     1      27.809   7.106  21.183  1.00  0.00     0.143 C 
HETATM   24  C1  UNL     1      28.141   8.559  21.430  1.00  0.00     0.028 C 
ENDBRANCH  19  23
ENDBRANCH  16  17
ENDBRANCH  14  16
ENDBRANCH   1  14
TORSDOF 4
ENDMDL
MODEL 3
REMARK VINA RESULT: -6.768654926      2.274      6.587
REMARK  4 active torsions:
REMARK  status: ('A' for Active; 'I' for Inactive)
REMARK    1  A    between atoms: C2_2  and  N1_3 
REMARK    2  A    between atoms: C4_5  and  C5_6 
REMARK    3  A    between atoms: C5_6  and  N2_7 
REMARK    4  A    between atoms: N2_7  and  C6_9 
ROOT
HETATM    1  C6  UNL     1      24.703   6.676  15.423  1.00  0.00     0.108 C 
HETATM    2  C7  UNL     1      24.165   5.799  16.523  1.00  0.00     0.056 C 
HETATM    3  C8  UNL     1      24.193   6.634  17.786  1.00  0.00     0.021 C 
HETATM    4  C9  UNL     1      25.594   6.738  18.352  1.00  0.00     0.037 C 
HETATM    5  C10 UNL     1      23.417   5.786  18.815  1.00  0.00     0.037 C 
HETATM    6  N3  UNL     1      23.512   7.847  17.675  1.00  0.00    -0.403 N 
ATOM      7  H3  UNL     1      23.026   8.219  18.491  1.00  0.00     0.154 HD
HETATM    8  C11 UNL     1      23.476   8.575  16.467  1.00  0.00     0.042 C 
HETATM    9  C12 UNL     1      24.418   9.756  16.609  1.00  0.00     0.039 C 
HETATM   10  C13 UNL     1      22.088   9.182  16.344  1.00  0.00     0.039 C 
HETATM   11  C14 UNL     1      23.714   7.782  15.215  1.00  0.00     0.078 C 
HETATM   12  C15 UNL     1      24.256   8.715  14.163  1.00  0.00     0.037 C 
HETATM   13 CL1  UNL     1      22.190   7.104  14.604  1.00  0.00    -0.115 Cl
ENDROOT
BRANCH   1  14
HETATM   14  N2  UNL     1      25.197   5.993  14.331  1.00  0.00    -0.391 N 
ATOM     15  H2  UNL     1      25.924   6.442  13.773  1.00  0.00     0.159 HD
BRANCH  14  16
HETATM   16  C5  UNL     1      24.762   4.726  13.944  1.00  0.00     0.097 C 
BRANCH  16  17
HETATM   17  C4  UNL     1      23.965   4.848  12.664  1.00  0.00     0.013 A 
HETATM   18  C3  UNL     1      24.028   5.835  11.708  1.00  0.00     0.124 A 
HETATM   19  N1  UNL     1      23.162   5.589  10.709  1.00  0.00    -0.303 N 
HETATM   20  N4  UNL     1      22.554   4.460  11.022  1.00  0.00    -0.309 N 
HETATM   21  C16 UNL     1      23.004   3.973  12.194  1.00  0.00     0.121 A 
ATOM     22  H4  UNL     1      21.837   4.014  10.449  1.00  0.00     0.186 HD
BRANCH  19  23
HETATM   23  C2  UNL     1      22.941   6.417   9.516  1.00  0.00     0.143 C 
HETATM   24  C1  UNL     1      24.055   7.434   9.417  1.00  0.00     0.028 C 
ENDBRANCH  19  23
ENDBRANCH  16  17
ENDBRANCH  14  16
ENDBRANCH   1  14
TORSDOF 4
ENDMDL
MODEL 4
REMARK VINA RESULT: -6.734218530      1.681      2.489
REMARK  4 active torsions:
REMARK  status: ('A' for Active; 'I' for Inactive)
REMARK    1  A    between atoms: C2_2  and  N1_3 
REMARK    2  A    between atoms: C4_5  and  C5_6 
REMARK    3  A    between atoms: C5_6  and  N2_7 
REMARK    4  A    between atoms: N2_7  and  C6_9 
ROOT
HETATM    1  C6  UNL     1      23.554   7.443  16.058  1.00  0.00     0.108 C 
HETATM    2  C7  UNL     1      22.235   6.760  16.309  1.00  0.00     0.056 C 
HETATM    3  C8  UNL     1      21.441   6.882  15.025  1.00  0.00     0.021 C 
HETATM    4  C9  UNL     1      20.858   8.271  14.863  1.00  0.00     0.037 C 
HETATM    5  C10 UNL     1      20.218   5.968  15.252  1.00  0.00     0.037 C 
HETATM    6  N3  UNL     1      22.105   6.388  13.902  1.00  0.00    -0.403 N 
ATOM      7  H3  UNL     1      21.562   5.944  13.162  1.00  0.00     0.154 HD
HETATM    8  C11 UNL     1      23.505   6.484  13.760  1.00  0.00     0.042 C 
HETATM    9  C12 UNL     1      23.795   7.585  12.756  1.00  0.00     0.039 C 
HETATM   10  C13 UNL     1      23.984   5.203  13.098  1.00  0.00     0.039 C 
HETATM   11  C14 UNL     1      24.286   6.631  15.033  1.00  0.00     0.078 C 
HETATM   12  C15 UNL     1      25.584   7.326  14.712  1.00  0.00     0.037 C 
HETATM   13 CL1  UNL     1      24.679   5.038  15.714  1.00  0.00    -0.115 Cl
ENDROOT
BRANCH   1  14
HETATM   14  N2  UNL     1      24.216   7.856  17.196  1.00  0.00    -0.391 N 
ATOM     15  H2  UNL     1      25.012   8.484  17.086  1.00  0.00     0.159 HD
BRANCH  14  16
HETATM   16  C5  UNL     1      23.860   7.466  18.487  1.00  0.00     0.097 C 
BRANCH  16  17
HETATM   17  C4  UNL     1      25.088   6.946  19.199  1.00  0.00     0.013 A 
HETATM   18  C3  UNL     1      25.996   7.645  19.962  1.00  0.00     0.124 A 
HETATM   19  N1  UNL     1      26.953   6.827  20.434  1.00  0.00    -0.303 N 
HETATM   20  N4  UNL     1      26.662   5.622  19.980  1.00  0.00    -0.309 N 
HETATM   21  C16 UNL     1      25.545   5.641  19.229  1.00  0.00     0.121 A 
ATOM     22  H4  UNL     1      27.213   4.786  20.174  1.00  0.00     0.186 HD
BRANCH  19  23
HETATM   23  C2  UNL     1      28.092   7.208  21.281  1.00  0.00     0.143 C 
HETATM   24  C1  UNL     1      28.069   8.706  21.482  1.00  0.00     0.028 C 
ENDBRANCH  19  23
ENDBRANCH  16  17
ENDBRANCH  14  16
ENDBRANCH   1  14
TORSDOF 4
ENDMDL
MODEL 5
REMARK VINA RESULT: -6.572272680      3.055      6.944
REMARK  4 active torsions:
REMARK  status: ('A' for Active; 'I' for Inactive)
REMARK    1  A    between atoms: C2_2  and  N1_3 
REMARK    2  A    between atoms: C4_5  and  C5_6 
REMARK    3  A    between atoms: C5_6  and  N2_7 
REMARK    4  A    between atoms: N2_7  and  C6_9 
ROOT
HETATM    1  C6  UNL     1      23.363   6.249  14.515  1.00  0.00     0.108 C 
HETATM    2  C7  UNL     1      24.838   6.553  14.455  1.00  0.00     0.056 C 
HETATM    3  C8  UNL     1      24.974   8.048  14.655  1.00  0.00     0.021 C 
HETATM    4  C9  UNL     1      24.616   8.810  13.397  1.00  0.00     0.037 C 
HETATM    5  C10 UNL     1      26.491   8.267  14.828  1.00  0.00     0.037 C 
HETATM    6  N3  UNL     1      24.368   8.518  15.821  1.00  0.00    -0.403 N 
ATOM      7  H3  UNL     1      24.792   9.301  16.318  1.00  0.00     0.154 HD
HETATM    8  C11 UNL     1      23.186   7.943  16.332  1.00  0.00     0.042 C 
HETATM    9  C12 UNL     1      22.039   8.887  16.021  1.00  0.00     0.039 C 
HETATM   10  C13 UNL     1      23.301   7.940  17.848  1.00  0.00     0.039 C 
HETATM   11  C14 UNL     1      22.910   6.528  15.916  1.00  0.00     0.078 C 
HETATM   12  C15 UNL     1      21.423   6.296  15.991  1.00  0.00     0.037 C 
HETATM   13 CL1  UNL     1      23.693   5.384  17.028  1.00  0.00    -0.115 Cl
ENDROOT
BRANCH   1  14
HETATM   14  N2  UNL     1      22.992   5.070  13.903  1.00  0.00    -0.391 N 
ATOM     15  H2  UNL     1      22.131   4.620  14.213  1.00  0.00     0.159 HD
BRANCH  14  16
HETATM   16  C5  UNL     1      23.724   4.457  12.887  1.00  0.00     0.097 C 
BRANCH  16  17
HETATM   17  C4  UNL     1      23.201   4.930  11.550  1.00  0.00     0.013 A 
HETATM   18  C3  UNL     1      23.603   6.020  10.810  1.00  0.00     0.124 A 
HETATM   19  N1  UNL     1      22.899   6.107   9.668  1.00  0.00    -0.303 N 
HETATM   20  N4  UNL     1      22.060   5.089   9.676  1.00  0.00    -0.309 N 
HETATM   21  C16 UNL     1      22.203   4.348  10.791  1.00  0.00     0.121 A 
ATOM     22  H4  UNL     1      21.390   4.889   8.933  1.00  0.00     0.186 HD
BRANCH  19  23
HETATM   23  C2  UNL     1      23.041   7.136   8.628  1.00  0.00     0.143 C 
HETATM   24  C1  UNL     1      24.367   7.837   8.814  1.00  0.00     0.028 C 
ENDBRANCH  19  23
ENDBRANCH  16  17
ENDBRANCH  14  16
ENDBRANCH   1  14
TORSDOF 4
ENDMDL
