MODEL 1
REMARK VINA RESULT: -7.284239689      0.000      0.000
REMARK  5 active torsions:
REMARK  status: ('A' for Active; 'I' for Inactive)
REMARK    1  A    between atoms: C2_2  and  C3_3 
REMARK    2  A    between atoms: C4_4  and  C5_5 
REMARK    3  A    between atoms: C5_5  and  O1_7 
REMARK    4  A    between atoms: C10_17  and  C11_18 
REMARK    5  A    between atoms: C11_18  and  C12_19 
ROOT
HETATM    1  C3  UNL     1      24.703   6.592  16.668  1.00  0.00     0.038 A 
HETATM    2  C4  UNL     1      25.127   7.891  16.542  1.00  0.00     0.062 A 
HETATM    3  N1  UNL     1      25.516   8.352  17.747  1.00  0.00    -0.344 N 
ATOM      4  H1  UNL     1      25.877   9.285  17.947  1.00  0.00     0.167 HD
HETATM    5  C7  UNL     1      25.341   7.349  18.647  1.00  0.00     0.107 A 
HETATM    6  N2  UNL     1      24.849   6.289  17.984  1.00  0.00    -0.335 N 
HETATM    7  C8  UNL     1      24.585   5.096  18.763  1.00  0.00     0.149 C 
HETATM    8  C9  UNL     1      23.991   5.506  20.064  1.00  0.00     0.135 C 
HETATM    9  N3  UNL     1      24.733   6.433  20.833  1.00  0.00    -0.409 N 
ATOM     10  H3  UNL     1      24.653   6.474  21.849  1.00  0.00     0.154 HD
HETATM   11  C10 UNL     1      25.607   7.315  20.104  1.00  0.00     0.145 C 
ENDROOT
BRANCH  11  12
HETATM   12  C11 UNL     1      27.025   6.878  20.401  1.00  0.00     0.037 C 
BRANCH  12  13
HETATM   13  C12 UNL     1      27.855   7.912  21.074  1.00  0.00    -0.012 C 
HETATM   14  C13 UNL     1      27.160   8.735  22.102  1.00  0.00     0.007 C 
HETATM   15  C14 UNL     1      28.188   9.542  22.866  1.00  0.00     0.037 C 
HETATM   16  C15 UNL     1      29.094   8.677  23.692  1.00  0.00     0.170 C 
HETATM   17  F1  UNL     1      30.427   8.983  23.476  1.00  0.00    -0.249 F 
HETATM   18  C16 UNL     1      28.863   7.243  23.268  1.00  0.00     0.037 C 
HETATM   19  C17 UNL     1      29.006   7.185  21.765  1.00  0.00     0.007 C 
ENDBRANCH  12  13
ENDBRANCH  11  12
BRANCH   2  20
HETATM   20  C5  UNL     1      25.178   8.715  15.313  1.00  0.00     0.165 C 
HETATM   21  C6  UNL     1      23.804   9.255  14.945  1.00  0.00     0.046 C 
BRANCH  20  22
HETATM   22  O1  UNL     1      25.754   8.064  14.230  1.00  0.00    -0.390 OA
ATOM     23  H1  UNL     1      25.456   8.388  13.388  1.00  0.00     0.210 HD
ENDBRANCH  20  22
ENDBRANCH   2  20
BRANCH   1  24
HETATM   24  C2  UNL     1      24.198   5.714  15.615  1.00  0.00     0.055 C 
HETATM   25  C1  UNL     1      22.742   5.847  15.307  1.00  0.00     0.011 C 
ENDBRANCH   1  24
TORSDOF 5
ENDMDL
MODEL 2
REMARK VINA RESULT: -6.848357429      6.010     10.111
REMARK  5 active torsions:
REMARK  status: ('A' for Active; 'I' for Inactive)
REMARK    1  A    between atoms: C2_2  and  C3_3 
REMARK    2  A    between atoms: C4_4  and  C5_5 
REMARK    3  A    between atoms: C5_5  and  O1_7 
REMARK    4  A    between atoms: C10_17  and  C11_18 
REMARK    5  A    between atoms: C11_18  and  C12_19 
ROOT
HETATM    1  C3  UNL     1      24.338   7.151  15.556  1.00  0.00     0.038 A 
HETATM    2  C4  UNL     1      23.559   6.112  16.002  1.00  0.00     0.062 A 
HETATM    3  N1  UNL     1      22.759   5.694  15.002  1.00  0.00    -0.344 N 
ATOM      4  H1  UNL     1      22.078   4.936  15.053  1.00  0.00     0.167 HD
HETATM    5  C7  UNL     1      23.023   6.465  13.914  1.00  0.00     0.107 A 
HETATM    6  N2  UNL     1      23.979   7.342  14.260  1.00  0.00    -0.335 N 
HETATM    7  C8  UNL     1      24.415   8.271  13.237  1.00  0.00     0.149 C 
HETATM    8  C9  UNL     1      23.220   8.727  12.477  1.00  0.00     0.135 C 
HETATM    9  N3  UNL     1      22.413   7.717  11.903  1.00  0.00    -0.409 N 
ATOM     10  H3  UNL     1      21.847   7.889  11.072  1.00  0.00     0.154 HD
HETATM   11  C10 UNL     1      22.433   6.434  12.556  1.00  0.00     0.145 C 
ENDROOT
BRANCH  11  12
HETATM   12  C11 UNL     1      23.181   5.486  11.645  1.00  0.00     0.037 C 
BRANCH  12  13
HETATM   13  C12 UNL     1      22.305   4.602  10.831  1.00  0.00    -0.012 C 
HETATM   14  C13 UNL     1      20.931   4.384  11.359  1.00  0.00     0.007 C 
HETATM   15  C14 UNL     1      20.099   3.693  10.301  1.00  0.00     0.037 C 
HETATM   16  C15 UNL     1      19.858   4.566   9.104  1.00  0.00     0.170 C 
HETATM   17  F1  UNL     1      20.161   3.907   7.923  1.00  0.00    -0.249 F 
HETATM   18  C16 UNL     1      20.773   5.764   9.225  1.00  0.00     0.037 C 
HETATM   19  C17 UNL     1      22.173   5.246   9.453  1.00  0.00     0.007 C 
ENDBRANCH  12  13
ENDBRANCH  11  12
BRANCH   2  20
HETATM   20  C5  UNL     1      23.549   5.498  17.349  1.00  0.00     0.165 C 
HETATM   21  C6  UNL     1      23.103   6.491  18.412  1.00  0.00     0.046 C 
BRANCH  20  22
HETATM   22  O1  UNL     1      24.757   4.912  17.703  1.00  0.00    -0.390 OA
ATOM     23  H1  UNL     1      24.917   4.905  18.640  1.00  0.00     0.210 HD
ENDBRANCH  20  22
ENDBRANCH   2  20
BRANCH   1  24
HETATM   24  C2  UNL     1      25.342   7.899  16.310  1.00  0.00     0.055 C 
HETATM   25  C1  UNL     1      24.938   9.274  16.732  1.00  0.00     0.011 C 
ENDBRANCH   1  24
TORSDOF 5
ENDMDL
MODEL 3
REMARK VINA RESULT: -6.756817336      4.635      8.669
REMARK  5 active torsions:
REMARK  status: ('A' for Active; 'I' for Inactive)
REMARK    1  A    between atoms: C2_2  and  C3_3 
REMARK    2  A    between atoms: C4_4  and  C5_5 
REMARK    3  A    between atoms: C5_5  and  O1_7 
REMARK    4  A    between atoms: C10_17  and  C11_18 
REMARK    5  A    between atoms: C11_18  and  C12_19 
ROOT
HETATM    1  C3  UNL     1      24.511   7.267  18.483  1.00  0.00     0.038 A 
HETATM    2  C4  UNL     1      23.351   6.626  18.838  1.00  0.00     0.062 A 
HETATM    3  N1  UNL     1      22.552   6.520  17.759  1.00  0.00    -0.344 N 
ATOM      4  H1  UNL     1      21.628   6.088  17.735  1.00  0.00     0.167 HD
HETATM    5  C7  UNL     1      23.199   7.094  16.710  1.00  0.00     0.107 A 
HETATM    6  N2  UNL     1      24.382   7.542  17.159  1.00  0.00    -0.335 N 
HETATM    7  C8  UNL     1      25.242   8.197  16.193  1.00  0.00     0.149 C 
HETATM    8  C9  UNL     1      24.398   9.056  15.320  1.00  0.00     0.135 C 
HETATM    9  N3  UNL     1      23.321   8.422  14.659  1.00  0.00    -0.409 N 
ATOM     10  H3  UNL     1      22.949   8.774  13.777  1.00  0.00     0.154 HD
HETATM   11  C10 UNL     1      22.777   7.252  15.299  1.00  0.00     0.145 C 
ENDROOT
BRANCH  11  12
HETATM   12  C11 UNL     1      23.182   6.060  14.460  1.00  0.00     0.037 C 
BRANCH  12  13
HETATM   13  C12 UNL     1      22.816   6.172  13.023  1.00  0.00    -0.012 C 
HETATM   14  C13 UNL     1      23.917   5.929  12.052  1.00  0.00     0.007 C 
HETATM   15  C14 UNL     1      23.333   5.819  10.660  1.00  0.00     0.037 C 
HETATM   16  C15 UNL     1      22.473   4.600  10.496  1.00  0.00     0.170 C 
HETATM   17  F1  UNL     1      21.242   4.915   9.944  1.00  0.00    -0.249 F 
HETATM   18  C16 UNL     1      22.239   4.021  11.874  1.00  0.00     0.037 C 
HETATM   19  C17 UNL     1      21.726   5.137  12.754  1.00  0.00     0.007 C 
ENDBRANCH  12  13
ENDBRANCH  11  12
BRANCH   2  20
HETATM   20  C5  UNL     1      22.973   6.107  20.172  1.00  0.00     0.165 C 
HETATM   21  C6  UNL     1      23.561   4.726  20.421  1.00  0.00     0.046 C 
BRANCH  20  22
HETATM   22  O1  UNL     1      21.604   6.104  20.401  1.00  0.00    -0.390 OA
ATOM     23  H1  UNL     1      21.354   5.678  21.213  1.00  0.00     0.210 HD
ENDBRANCH  20  22
ENDBRANCH   2  20
BRANCH   1  24
HETATM   24  C2  UNL     1      25.650   7.591  19.341  1.00  0.00     0.055 C 
HETATM   25  C1  UNL     1      26.493   6.431  19.758  1.00  0.00     0.011 C 
ENDBRANCH   1  24
TORSDOF 5
ENDMDL
MODEL 4
REMARK VINA RESULT: -6.643718378      6.510     10.624
REMARK  5 active torsions:
REMARK  status: ('A' for Active; 'I' for Inactive)
REMARK    1  A    between atoms: C2_2  and  C3_3 
REMARK    2  A    between atoms: C4_4  and  C5_5 
REMARK    3  A    between atoms: C5_5  and  O1_7 
REMARK    4  A    between atoms: C10_17  and  C11_18 
REMARK    5  A    between atoms: C11_18  and  C12_19 
ROOT
HETATM    1  C3  UNL     1      23.259   6.136  14.474  1.00  0.00     0.038 A 
HETATM    2  C4  UNL     1      24.572   6.465  14.247  1.00  0.00     0.062 A 
HETATM    3  N1  UNL     1      24.840   6.347  12.933  1.00  0.00    -0.344 N 
ATOM      4  H1  UNL     1      25.738   6.529  12.483  1.00  0.00     0.167 HD
HETATM    5  C7  UNL     1      23.700   5.940  12.315  1.00  0.00     0.107 A 
HETATM    6  N2  UNL     1      22.750   5.816  13.256  1.00  0.00    -0.335 N 
HETATM    7  C8  UNL     1      21.439   5.388  12.809  1.00  0.00     0.149 C 
HETATM    8  C9  UNL     1      21.617   4.328  11.781  1.00  0.00     0.135 C 
HETATM    9  N3  UNL     1      22.426   4.656  10.668  1.00  0.00    -0.409 N 
ATOM     10  H3  UNL     1      22.299   4.207   9.760  1.00  0.00     0.154 HD
HETATM   11  C10 UNL     1      23.437   5.658  10.884  1.00  0.00     0.145 C 
ENDROOT
BRANCH  11  12
HETATM   12  C11 UNL     1      22.994   6.900  10.144  1.00  0.00     0.037 C 
BRANCH  12  13
HETATM   13  C12 UNL     1      23.215   6.847   8.674  1.00  0.00    -0.012 C 
HETATM   14  C13 UNL     1      22.008   7.053   7.828  1.00  0.00     0.007 C 
HETATM   15  C14 UNL     1      22.438   7.231   6.388  1.00  0.00     0.037 C 
HETATM   16  C15 UNL     1      23.210   8.500   6.176  1.00  0.00     0.170 C 
HETATM   17  F1  UNL     1      24.392   8.270   5.492  1.00  0.00    -0.249 F 
HETATM   18  C16 UNL     1      23.553   9.056   7.541  1.00  0.00     0.037 C 
HETATM   19  C17 UNL     1      24.214   7.949   8.329  1.00  0.00     0.007 C 
ENDBRANCH  12  13
ENDBRANCH  11  12
BRANCH   2  20
HETATM   20  C5  UNL     1      25.585   6.892  15.239  1.00  0.00     0.165 C 
HETATM   21  C6  UNL     1      25.425   8.359  15.605  1.00  0.00     0.046 C 
BRANCH  20  22
HETATM   22  O1  UNL     1      26.891   6.624  14.851  1.00  0.00    -0.390 OA
ATOM     23  H1  UNL     1      27.273   7.301  14.305  1.00  0.00     0.210 HD
ENDBRANCH  20  22
ENDBRANCH   2  20
BRANCH   1  24
HETATM   24  C2  UNL     1      22.551   6.127  15.753  1.00  0.00     0.055 C 
HETATM   25  C1  UNL     1      21.803   7.376  16.084  1.00  0.00     0.011 C 
ENDBRANCH   1  24
TORSDOF 5
ENDMDL
MODEL 5
REMARK VINA RESULT: -6.618655838      9.419     12.467
REMARK  5 active torsions:
REMARK  status: ('A' for Active; 'I' for Inactive)
REMARK    1  A    between atoms: C2_2  and  C3_3 
REMARK    2  A    between atoms: C4_4  and  C5_5 
REMARK    3  A    between atoms: C5_5  and  O1_7 
REMARK    4  A    between atoms: C10_17  and  C11_18 
REMARK    5  A    between atoms: C11_18  and  C12_19 
ROOT
HETATM    1  C3  UNL     1      18.187   5.449   7.097  1.00  0.00     0.038 A 
HETATM    2  C4  UNL     1      18.239   4.345   7.909  1.00  0.00     0.062 A 
HETATM    3  N1  UNL     1      19.507   4.150   8.317  1.00  0.00    -0.344 N 
ATOM      4  H1  UNL     1      19.835   3.402   8.928  1.00  0.00     0.167 HD
HETATM    5  C7  UNL     1      20.271   5.130   7.765  1.00  0.00     0.107 A 
HETATM    6  N2  UNL     1      19.463   5.910   7.030  1.00  0.00    -0.335 N 
HETATM    7  C8  UNL     1      20.079   7.029   6.345  1.00  0.00     0.149 C 
HETATM    8  C9  UNL     1      21.388   6.581   5.798  1.00  0.00     0.135 C 
HETATM    9  N3  UNL     1      22.298   6.015   6.721  1.00  0.00    -0.409 N 
ATOM     10  H3  UNL     1      23.307   6.050   6.571  1.00  0.00     0.154 HD
HETATM   11  C10 UNL     1      21.726   5.387   7.882  1.00  0.00     0.145 C 
ENDROOT
BRANCH  11  12
HETATM   12  C11 UNL     1      22.039   6.276   9.066  1.00  0.00     0.037 C 
BRANCH  12  13
HETATM   13  C12 UNL     1      23.003   5.686  10.033  1.00  0.00    -0.012 C 
HETATM   14  C13 UNL     1      23.460   6.588  11.126  1.00  0.00     0.007 C 
HETATM   15  C14 UNL     1      24.213   5.774  12.156  1.00  0.00     0.037 C 
HETATM   16  C15 UNL     1      23.324   4.805  12.878  1.00  0.00     0.170 C 
HETATM   17  F1  UNL     1      23.862   3.528  12.887  1.00  0.00    -0.249 F 
HETATM   18  C16 UNL     1      22.006   4.758  12.136  1.00  0.00     0.037 C 
HETATM   19  C17 UNL     1      22.313   4.489  10.682  1.00  0.00     0.007 C 
ENDBRANCH  12  13
ENDBRANCH  11  12
BRANCH   2  20
HETATM   20  C5  UNL     1      17.120   3.463   8.316  1.00  0.00     0.165 C 
HETATM   21  C6  UNL     1      17.405   2.776   9.643  1.00  0.00     0.046 C 
BRANCH  20  22
HETATM   22  O1  UNL     1      16.765   2.533   7.349  1.00  0.00    -0.390 OA
ATOM     23  H1  UNL     1      16.566   1.673   7.702  1.00  0.00     0.210 HD
ENDBRANCH  20  22
ENDBRANCH   2  20
BRANCH   1  24
HETATM   24  C2  UNL     1      17.012   6.016   6.438  1.00  0.00     0.055 C 
HETATM   25  C1  UNL     1      16.217   6.981   7.255  1.00  0.00     0.011 C 
ENDBRANCH   1  24
TORSDOF 5
ENDMDL
