MODEL 1
REMARK VINA RESULT: -9.173319359      0.000      0.000
REMARK  12 active torsions:
REMARK  status: ('A' for Active; 'I' for Inactive)
REMARK    1  A    between atoms: C3_4  and  S1_5 
REMARK    2  A    between atoms: S1_5  and  S2_6 
REMARK    3  A    between atoms: S2_6  and  C4_7 
REMARK    4  A    between atoms: C5_13  and  N4_14 
REMARK    5  A    between atoms: N4_14  and  C6_16 
REMARK    6  A    between atoms: C8_22  and  N7_23 
REMARK    7  A    between atoms: N7_23  and  N8_25 
REMARK    8  A    between atoms: N8_25  and  N9_26 
REMARK    9  A    between atoms: N13_39  and  N14_41 
REMARK   10  A    between atoms: N14_41  and  C12_43 
REMARK   11  A    between atoms: C12_43  and  C13_44 
REMARK       I    between atoms: C13_44  and  N15_46 
REMARK   12  A    between atoms: N15_46  and  N16_48 
ROOT
HETATM    1  C4  UNL     1      34.320   2.679  37.617  1.00  0.00     0.150 A 
HETATM    2  N2  UNL     1      33.437   1.992  36.875  1.00  0.00    -0.231 N 
ATOM      3  H2  UNL     1      33.506   1.852  35.867  1.00  0.00     0.197 HD
HETATM    4  O1  UNL     1      32.483   1.534  37.626  1.00  0.00    -0.154 OA
HETATM    5  N3  UNL     1      32.712   1.900  38.846  1.00  0.00    -0.222 N 
ATOM      6  H3  UNL     1      32.117   1.675  39.643  1.00  0.00     0.198 HD
HETATM    7  C5  UNL     1      33.861   2.629  38.911  1.00  0.00     0.179 A 
ENDROOT
BRANCH   7   8
HETATM    8  N4  UNL     1      34.373   3.147  39.946  1.00  0.00    -0.172 N 
ATOM      9  H4  UNL     1      35.252   3.648  39.821  1.00  0.00     0.186 HD
BRANCH   8  10
HETATM   10  C6  UNL     1      33.850   3.099  41.251  1.00  0.00     0.688 A 
HETATM   11  N5  UNL     1      33.021   4.101  41.653  1.00  0.00    -0.173 N 
HETATM   12  C7  UNL     1      32.473   4.118  42.875  1.00  0.00     0.169 A 
ATOM     13  H5  UNL     1      32.812   4.861  41.005  1.00  0.00     0.186 HD
HETATM   14  N6  UNL     1      31.638   4.971  43.505  1.00  0.00    -0.171 N 
HETATM   15  C9  UNL     1      32.746   3.103  43.764  1.00  0.00     0.162 A 
HETATM   16  C8  UNL     1      31.381   4.531  44.741  1.00  0.00     0.711 A 
ATOM     17  H6  UNL     1      31.258   5.825  43.097  1.00  0.00     0.186 HD
HETATM   18  N10 UNL     1      32.071   3.386  44.878  1.00  0.00    -0.180 N 
ATOM     19  H10 UNL     1      32.077   2.812  45.720  1.00  0.00     0.184 HD
HETATM   20  C10 UNL     1      33.588   2.074  43.371  1.00  0.00     0.290 A 
HETATM   21  O2  UNL     1      33.825   1.155  44.201  1.00  0.00    -0.265 OA
HETATM   22  N11 UNL     1      34.102   2.117  42.134  1.00  0.00    -0.154 N 
ATOM     23  H11 UNL     1      34.722   1.360  41.846  1.00  0.00     0.187 HD
BRANCH  16  24
HETATM   24  N7  UNL     1      30.532   5.187  45.697  1.00  0.00    -0.045 N 
ATOM     25  H7  UNL     1      29.642   4.759  45.957  1.00  0.00     0.223 HD
BRANCH  24  26
HETATM   26  N8  UNL     1      30.863   6.262  46.210  1.00  0.00    -0.229 NA
BRANCH  26  27
HETATM   27  N9  UNL     1      31.272   7.296  46.701  1.00  0.00    -0.260 N 
ATOM     28  H92 UNL     1      31.590   7.352  45.733  1.00  0.00     0.193 HD
ATOM     29  H91 UNL     1      31.584   8.143  47.176  1.00  0.00     0.193 HD
ENDBRANCH  26  27
ENDBRANCH  24  26
ENDBRANCH  16  24
ENDBRANCH   8  10
ENDBRANCH   7   8
BRANCH   1  30
HETATM   30  S2  UNL     1      35.744   3.474  36.912  1.00  0.00    -0.027 SA
BRANCH  30  31
HETATM   31  S1  UNL     1      37.388   2.190  36.631  1.00  0.00    -0.031 SA
BRANCH  31  32
HETATM   32  C3  UNL     1      37.961   1.572  38.221  1.00  0.00     0.113 A 
HETATM   33  C2  UNL     1      39.135   0.898  38.453  1.00  0.00     0.146 A 
HETATM   34  N1  UNL     1      39.221   0.605  39.764  1.00  0.00    -0.194 N 
HETATM   35  C1  UNL     1      40.351  -0.117  40.375  1.00  0.00     0.175 C 
HETATM   36  C11 UNL     1      38.130   1.077  40.378  1.00  0.00     0.699 A 
HETATM   37  N12 UNL     1      37.373   1.665  39.407  1.00  0.00    -0.182 N 
HETATM   38  N13 UNL     1      37.834   1.005  41.631  1.00  0.00    -0.136 N 
ATOM     39  H12 UNL     1      36.473   2.117  39.571  1.00  0.00     0.185 HD
ATOM     40  H13 UNL     1      36.948   1.429  41.908  1.00  0.00     0.205 HD
BRANCH  38  41
HETATM   41  N14 UNL     1      38.562   0.431  42.631  1.00  0.00    -0.313 N 
ATOM     42  H14 UNL     1      39.318  -0.215  42.405  1.00  0.00     0.181 HD
BRANCH  41  43
HETATM   43  C12 UNL     1      38.259   0.740  44.024  1.00  0.00     0.244 C 
BRANCH  43  44
HETATM   44  C13 UNL     1      36.996   0.075  44.447  1.00  0.00     0.254 C 
HETATM   45  O3  UNL     1      36.394  -0.727  43.711  1.00  0.00    -0.270 OA
HETATM   46  N15 UNL     1      36.468   0.367  45.723  1.00  0.00    -0.275 N 
ATOM     47  H15 UNL     1      36.959   1.026  46.326  1.00  0.00     0.189 HD
BRANCH  46  48
HETATM   48  N16 UNL     1      35.291  -0.223  46.178  1.00  0.00    -0.343 N 
ATOM     49 2H16 UNL     1      35.365  -1.018  46.813  1.00  0.00     0.176 HD
ATOM     50 1H16 UNL     1      34.375   0.120  45.890  1.00  0.00     0.176 HD
ENDBRANCH  46  48
ENDBRANCH  43  44
ENDBRANCH  41  43
ENDBRANCH  38  41
ENDBRANCH  31  32
ENDBRANCH  30  31
ENDBRANCH   1  30
TORSDOF 12
ENDMDL
MODEL 2
REMARK VINA RESULT: -9.118455947      2.334      5.477
REMARK  12 active torsions:
REMARK  status: ('A' for Active; 'I' for Inactive)
REMARK    1  A    between atoms: C3_4  and  S1_5 
REMARK    2  A    between atoms: S1_5  and  S2_6 
REMARK    3  A    between atoms: S2_6  and  C4_7 
REMARK    4  A    between atoms: C5_13  and  N4_14 
REMARK    5  A    between atoms: N4_14  and  C6_16 
REMARK    6  A    between atoms: C8_22  and  N7_23 
REMARK    7  A    between atoms: N7_23  and  N8_25 
REMARK    8  A    between atoms: N8_25  and  N9_26 
REMARK    9  A    between atoms: N13_39  and  N14_41 
REMARK   10  A    between atoms: N14_41  and  C12_43 
REMARK   11  A    between atoms: C12_43  and  C13_44 
REMARK       I    between atoms: C13_44  and  N15_46 
REMARK   12  A    between atoms: N15_46  and  N16_48 
ROOT
HETATM    1  C4  UNL     1      36.711   0.299  45.534  1.00  0.00     0.150 A 
HETATM    2  N2  UNL     1      36.854  -0.123  46.800  1.00  0.00    -0.231 N 
ATOM      3  H2  UNL     1      37.720  -0.079  47.336  1.00  0.00     0.197 HD
HETATM    4  O1  UNL     1      35.729  -0.595  47.243  1.00  0.00    -0.154 OA
HETATM    5  N3  UNL     1      34.846  -0.496  46.303  1.00  0.00    -0.222 N 
ATOM      6  H3  UNL     1      33.873  -0.794  46.382  1.00  0.00     0.198 HD
HETATM    7  C5  UNL     1      35.402   0.063  45.191  1.00  0.00     0.179 A 
ENDROOT
BRANCH   7   8
HETATM    8  N4  UNL     1      34.825   0.296  44.091  1.00  0.00    -0.172 N 
ATOM      9  H4  UNL     1      34.921  -0.412  43.363  1.00  0.00     0.186 HD
BRANCH   8  10
HETATM   10  C6  UNL     1      34.063   1.435  43.770  1.00  0.00     0.688 A 
HETATM   11  N5  UNL     1      33.244   1.955  44.725  1.00  0.00    -0.173 N 
HETATM   12  C7  UNL     1      32.499   3.045  44.500  1.00  0.00     0.169 A 
ATOM     13  H5  UNL     1      33.196   1.502  45.637  1.00  0.00     0.186 HD
HETATM   14  N6  UNL     1      31.630   3.747  45.257  1.00  0.00    -0.171 N 
HETATM   15  C9  UNL     1      32.548   3.669  43.273  1.00  0.00     0.162 A 
HETATM   16  C8  UNL     1      31.139   4.775  44.557  1.00  0.00     0.711 A 
ATOM     17  H6  UNL     1      31.383   3.525  46.221  1.00  0.00     0.186 HD
HETATM   18  N10 UNL     1      31.715   4.707  43.345  1.00  0.00    -0.180 N 
ATOM     19  H10 UNL     1      31.539   5.361  42.583  1.00  0.00     0.184 HD
HETATM   20  C10 UNL     1      33.377   3.152  42.289  1.00  0.00     0.290 A 
HETATM   21  O2  UNL     1      33.406   3.739  41.173  1.00  0.00    -0.265 OA
HETATM   22  N11 UNL     1      34.096   2.060  42.580  1.00  0.00    -0.154 N 
ATOM     23  H11 UNL     1      34.706   1.680  41.855  1.00  0.00     0.187 HD
BRANCH  16  24
HETATM   24  N7  UNL     1      30.187   5.735  45.045  1.00  0.00    -0.045 N 
ATOM     25  H7  UNL     1      29.200   5.627  44.812  1.00  0.00     0.223 HD
BRANCH  24  26
HETATM   26  N8  UNL     1      30.547   6.689  45.745  1.00  0.00    -0.229 NA
BRANCH  26  27
HETATM   27  N9  UNL     1      30.982   7.594  46.431  1.00  0.00    -0.260 N 
ATOM     28  H92 UNL     1      31.345   7.805  45.501  1.00  0.00     0.193 HD
ATOM     29  H91 UNL     1      31.312   8.323  47.063  1.00  0.00     0.193 HD
ENDBRANCH  26  27
ENDBRANCH  24  26
ENDBRANCH  16  24
ENDBRANCH   8  10
ENDBRANCH   7   8
BRANCH   1  30
HETATM   30  S2  UNL     1      38.060   0.980  44.599  1.00  0.00    -0.027 SA
BRANCH  30  31
HETATM   31  S1  UNL     1      38.478  -0.061  42.819  1.00  0.00    -0.031 SA
BRANCH  31  32
HETATM   32  C3  UNL     1      37.992   0.932  41.399  1.00  0.00     0.113 A 
HETATM   33  C2  UNL     1      38.418   0.758  40.106  1.00  0.00     0.146 A 
HETATM   34  N1  UNL     1      37.833   1.684  39.323  1.00  0.00    -0.194 N 
HETATM   35  C1  UNL     1      38.059   1.798  37.871  1.00  0.00     0.175 C 
HETATM   36  C11 UNL     1      37.041   2.446  40.085  1.00  0.00     0.699 A 
HETATM   37  N12 UNL     1      37.158   1.963  41.356  1.00  0.00    -0.182 N 
HETATM   38  N13 UNL     1      36.305   3.439  39.717  1.00  0.00    -0.136 N 
ATOM     39  H12 UNL     1      36.670   2.344  42.166  1.00  0.00     0.185 HD
ATOM     40  H13 UNL     1      35.769   3.898  40.453  1.00  0.00     0.205 HD
BRANCH  38  41
HETATM   41  N14 UNL     1      36.158   3.950  38.461  1.00  0.00    -0.313 N 
ATOM     42  H14 UNL     1      36.980   4.230  37.925  1.00  0.00     0.181 HD
BRANCH  41  43
HETATM   43  C12 UNL     1      34.826   4.098  37.885  1.00  0.00     0.244 C 
BRANCH  43  44
HETATM   44  C13 UNL     1      34.227   2.766  37.600  1.00  0.00     0.254 C 
HETATM   45  O3  UNL     1      34.668   2.021  36.708  1.00  0.00    -0.270 OA
HETATM   46  N15 UNL     1      33.123   2.339  38.369  1.00  0.00    -0.275 N 
ATOM     47  H15 UNL     1      32.758   2.951  39.099  1.00  0.00     0.189 HD
BRANCH  46  48
HETATM   48  N16 UNL     1      32.517   1.103  38.153  1.00  0.00    -0.343 N 
ATOM     49 2H16 UNL     1      31.499   1.063  38.131  1.00  0.00     0.176 HD
ATOM     50 1H16 UNL     1      33.068   0.255  38.020  1.00  0.00     0.176 HD
ENDBRANCH  46  48
ENDBRANCH  43  44
ENDBRANCH  41  43
ENDBRANCH  38  41
ENDBRANCH  31  32
ENDBRANCH  30  31
ENDBRANCH   1  30
TORSDOF 12
ENDMDL
MODEL 3
REMARK VINA RESULT: -9.066883396      2.488      3.919
REMARK  12 active torsions:
REMARK  status: ('A' for Active; 'I' for Inactive)
REMARK    1  A    between atoms: C3_4  and  S1_5 
REMARK    2  A    between atoms: S1_5  and  S2_6 
REMARK    3  A    between atoms: S2_6  and  C4_7 
REMARK    4  A    between atoms: C5_13  and  N4_14 
REMARK    5  A    between atoms: N4_14  and  C6_16 
REMARK    6  A    between atoms: C8_22  and  N7_23 
REMARK    7  A    between atoms: N7_23  and  N8_25 
REMARK    8  A    between atoms: N8_25  and  N9_26 
REMARK    9  A    between atoms: N13_39  and  N14_41 
REMARK   10  A    between atoms: N14_41  and  C12_43 
REMARK   11  A    between atoms: C12_43  and  C13_44 
REMARK       I    between atoms: C13_44  and  N15_46 
REMARK   12  A    between atoms: N15_46  and  N16_48 
ROOT
HETATM    1  C4  UNL     1      34.036   6.434  39.484  1.00  0.00     0.150 A 
HETATM    2  N2  UNL     1      33.972   7.742  39.775  1.00  0.00    -0.231 N 
ATOM      3  H2  UNL     1      34.414   8.484  39.233  1.00  0.00     0.197 HD
HETATM    4  O1  UNL     1      33.265   7.927  40.848  1.00  0.00    -0.154 OA
HETATM    5  N3  UNL     1      32.860   6.775  41.274  1.00  0.00    -0.222 N 
ATOM      6  H3  UNL     1      32.285   6.628  42.104  1.00  0.00     0.198 HD
HETATM    7  C5  UNL     1      33.313   5.784  40.455  1.00  0.00     0.179 A 
ENDROOT
BRANCH   7   8
HETATM    8  N4  UNL     1      33.110   4.542  40.583  1.00  0.00    -0.172 N 
ATOM      9  H4  UNL     1      32.992   4.005  39.724  1.00  0.00     0.186 HD
BRANCH   8  10
HETATM   10  C6  UNL     1      33.030   3.828  41.793  1.00  0.00     0.688 A 
HETATM   11  N5  UNL     1      33.925   2.826  42.013  1.00  0.00    -0.173 N 
HETATM   12  C7  UNL     1      33.922   2.111  43.145  1.00  0.00     0.169 A 
ATOM     13  H5  UNL     1      34.618   2.614  41.295  1.00  0.00     0.186 HD
HETATM   14  N6  UNL     1      34.682   1.094  43.602  1.00  0.00    -0.171 N 
HETATM   15  C9  UNL     1      32.992   2.380  44.125  1.00  0.00     0.162 A 
HETATM   16  C8  UNL     1      34.267   0.721  44.817  1.00  0.00     0.711 A 
ATOM     17  H6  UNL     1      35.458   0.671  43.094  1.00  0.00     0.186 HD
HETATM   18  N10 UNL     1      33.231   1.523  45.116  1.00  0.00    -0.180 N 
ATOM     19  H10 UNL     1      32.698   1.480  45.985  1.00  0.00     0.184 HD
HETATM   20  C10 UNL     1      32.072   3.397  43.917  1.00  0.00     0.290 A 
HETATM   21  O2  UNL     1      31.230   3.626  44.827  1.00  0.00    -0.265 OA
HETATM   22  N11 UNL     1      32.132   4.075  42.762  1.00  0.00    -0.154 N 
ATOM     23  H11 UNL     1      31.455   4.823  42.610  1.00  0.00     0.187 HD
BRANCH  16  24
HETATM   24  N7  UNL     1      34.844  -0.332  45.606  1.00  0.00    -0.045 N 
ATOM     25  H7  UNL     1      35.850  -0.498  45.566  1.00  0.00     0.223 HD
BRANCH  24  26
HETATM   26  N8  UNL     1      34.138  -1.041  46.334  1.00  0.00    -0.229 NA
BRANCH  26  27
HETATM   27  N9  UNL     1      33.475  -1.693  47.118  1.00  0.00    -0.260 N 
ATOM     28  H92 UNL     1      34.436  -1.947  47.350  1.00  0.00     0.193 HD
ATOM     29  H91 UNL     1      32.860  -2.210  47.745  1.00  0.00     0.193 HD
ENDBRANCH  26  27
ENDBRANCH  24  26
ENDBRANCH  16  24
ENDBRANCH   8  10
ENDBRANCH   7   8
BRANCH   1  30
HETATM   30  S2  UNL     1      34.949   5.811  38.093  1.00  0.00    -0.027 SA
BRANCH  30  31
HETATM   31  S1  UNL     1      34.643   3.763  37.717  1.00  0.00    -0.031 SA
BRANCH  31  32
HETATM   32  C3  UNL     1      36.005   2.805  38.398  1.00  0.00     0.113 A 
HETATM   33  C2  UNL     1      37.068   2.296  37.694  1.00  0.00     0.146 A 
HETATM   34  N1  UNL     1      37.886   1.646  38.543  1.00  0.00    -0.194 N 
HETATM   35  C1  UNL     1      39.131   0.972  38.135  1.00  0.00     0.175 C 
HETATM   36  C11 UNL     1      37.372   1.728  39.775  1.00  0.00     0.699 A 
HETATM   37  N12 UNL     1      36.216   2.444  39.657  1.00  0.00    -0.182 N 
HETATM   38  N13 UNL     1      37.853   1.240  40.868  1.00  0.00    -0.136 N 
ATOM     39  H12 UNL     1      35.596   2.672  40.434  1.00  0.00     0.185 HD
ATOM     40  H13 UNL     1      37.308   1.411  41.714  1.00  0.00     0.205 HD
BRANCH  38  41
HETATM   41  N14 UNL     1      39.002   0.523  41.029  1.00  0.00    -0.313 N 
ATOM     42  H14 UNL     1      39.710   0.523  40.295  1.00  0.00     0.181 HD
BRANCH  41  43
HETATM   43  C12 UNL     1      39.218  -0.243  42.252  1.00  0.00     0.244 C 
BRANCH  43  44
HETATM   44  C13 UNL     1      38.257   0.175  43.309  1.00  0.00     0.254 C 
HETATM   45  O3  UNL     1      37.187  -0.428  43.504  1.00  0.00    -0.270 OA
HETATM   46  N15 UNL     1      38.574   1.290  44.114  1.00  0.00    -0.275 N 
ATOM     47  H15 UNL     1      39.450   1.787  43.954  1.00  0.00     0.189 HD
BRANCH  46  48
HETATM   48  N16 UNL     1      37.719   1.730  45.121  1.00  0.00    -0.343 N 
ATOM     49 2H16 UNL     1      37.640   1.165  45.967  1.00  0.00     0.176 HD
ATOM     50 1H16 UNL     1      37.180   2.590  45.027  1.00  0.00     0.176 HD
ENDBRANCH  46  48
ENDBRANCH  43  44
ENDBRANCH  41  43
ENDBRANCH  38  41
ENDBRANCH  31  32
ENDBRANCH  30  31
ENDBRANCH   1  30
TORSDOF 12
ENDMDL
MODEL 4
REMARK VINA RESULT: -8.952827654      3.046      6.264
REMARK  12 active torsions:
REMARK  status: ('A' for Active; 'I' for Inactive)
REMARK    1  A    between atoms: C3_4  and  S1_5 
REMARK    2  A    between atoms: S1_5  and  S2_6 
REMARK    3  A    between atoms: S2_6  and  C4_7 
REMARK    4  A    between atoms: C5_13  and  N4_14 
REMARK    5  A    between atoms: N4_14  and  C6_16 
REMARK    6  A    between atoms: C8_22  and  N7_23 
REMARK    7  A    between atoms: N7_23  and  N8_25 
REMARK    8  A    between atoms: N8_25  and  N9_26 
REMARK    9  A    between atoms: N13_39  and  N14_41 
REMARK   10  A    between atoms: N14_41  and  C12_43 
REMARK   11  A    between atoms: C12_43  and  C13_44 
REMARK       I    between atoms: C13_44  and  N15_46 
REMARK   12  A    between atoms: N15_46  and  N16_48 
ROOT
HETATM    1  C4  UNL     1      38.397   0.555  41.311  1.00  0.00     0.150 A 
HETATM    2  N2  UNL     1      39.339   0.474  40.359  1.00  0.00    -0.231 N 
ATOM      3  H2  UNL     1      40.248   0.025  40.473  1.00  0.00     0.197 HD
HETATM    4  O1  UNL     1      38.926   1.050  39.273  1.00  0.00    -0.154 OA
HETATM    5  N3  UNL     1      37.735   1.510  39.481  1.00  0.00    -0.222 N 
ATOM      6  H3  UNL     1      37.174   2.011  38.792  1.00  0.00     0.198 HD
HETATM    7  C5  UNL     1      37.338   1.230  40.755  1.00  0.00     0.179 A 
ENDROOT
BRANCH   7   8
HETATM    8  N4  UNL     1      36.236   1.541  41.291  1.00  0.00    -0.172 N 
ATOM      9  H4  UNL     1      36.033   1.123  42.198  1.00  0.00     0.186 HD
BRANCH   8  10
HETATM   10  C6  UNL     1      35.262   2.407  40.760  1.00  0.00     0.688 A 
HETATM   11  N5  UNL     1      35.437   3.748  40.910  1.00  0.00    -0.173 N 
HETATM   12  C7  UNL     1      34.561   4.635  40.421  1.00  0.00     0.169 A 
ATOM     13  H5  UNL     1      36.258   4.088  41.411  1.00  0.00     0.186 HD
HETATM   14  N6  UNL     1      34.503   5.983  40.429  1.00  0.00    -0.171 N 
HETATM   15  C9  UNL     1      33.445   4.196  39.745  1.00  0.00     0.162 A 
HETATM   16  C8  UNL     1      33.404   6.399  39.791  1.00  0.00     0.711 A 
ATOM     17  H6  UNL     1      35.196   6.595  40.860  1.00  0.00     0.186 HD
HETATM   18  N10 UNL     1      32.771   5.287  39.381  1.00  0.00    -0.180 N 
ATOM     19  H10 UNL     1      31.893   5.279  38.862  1.00  0.00     0.184 HD
HETATM   20  C10 UNL     1      33.250   2.833  39.583  1.00  0.00     0.290 A 
HETATM   21  O2  UNL     1      32.221   2.453  38.961  1.00  0.00    -0.265 OA
HETATM   22  N11 UNL     1      34.165   2.000  40.096  1.00  0.00    -0.154 N 
ATOM     23  H11 UNL     1      34.022   0.997  39.976  1.00  0.00     0.187 HD
BRANCH  16  24
HETATM   24  N7  UNL     1      33.018   7.771  39.607  1.00  0.00    -0.045 N 
ATOM     25  H7  UNL     1      33.737   8.494  39.564  1.00  0.00     0.223 HD
BRANCH  24  26
HETATM   26  N8  UNL     1      31.828   8.088  39.499  1.00  0.00    -0.229 NA
BRANCH  26  27
HETATM   27  N9  UNL     1      30.646   8.328  39.344  1.00  0.00    -0.260 N 
ATOM     28  H92 UNL     1      30.691   7.967  40.297  1.00  0.00     0.193 HD
ATOM     29  H91 UNL     1      29.671   8.553  39.146  1.00  0.00     0.193 HD
ENDBRANCH  26  27
ENDBRANCH  24  26
ENDBRANCH  16  24
ENDBRANCH   8  10
ENDBRANCH   7   8
BRANCH   1  30
HETATM   30  S2  UNL     1      38.633  -0.105  42.945  1.00  0.00    -0.027 SA
BRANCH  30  31
HETATM   31  S1  UNL     1      38.156   1.243  44.489  1.00  0.00    -0.031 SA
BRANCH  31  32
HETATM   32  C3  UNL     1      36.377   1.504  44.546  1.00  0.00     0.113 A 
HETATM   33  C2  UNL     1      35.416   0.525  44.603  1.00  0.00     0.146 A 
HETATM   34  N1  UNL     1      34.201   1.104  44.642  1.00  0.00    -0.194 N 
HETATM   35  C1  UNL     1      32.933   0.357  44.706  1.00  0.00     0.175 C 
HETATM   36  C11 UNL     1      34.362   2.432  44.611  1.00  0.00     0.699 A 
HETATM   37  N12 UNL     1      35.708   2.650  44.551  1.00  0.00    -0.182 N 
HETATM   38  N13 UNL     1      33.447   3.341  44.635  1.00  0.00    -0.136 N 
ATOM     39  H12 UNL     1      36.142   3.572  44.516  1.00  0.00     0.185 HD
ATOM     40  H13 UNL     1      33.773   4.307  44.603  1.00  0.00     0.205 HD
BRANCH  38  41
HETATM   41  N14 UNL     1      32.096   3.166  44.697  1.00  0.00    -0.313 N 
ATOM     42  H14 UNL     1      31.711   2.254  44.943  1.00  0.00     0.181 HD
BRANCH  41  43
HETATM   43  C12 UNL     1      31.202   4.283  44.410  1.00  0.00     0.244 C 
BRANCH  43  44
HETATM   44  C13 UNL     1      30.896   5.042  45.653  1.00  0.00     0.254 C 
HETATM   45  O3  UNL     1      30.363   4.506  46.640  1.00  0.00    -0.270 OA
HETATM   46  N15 UNL     1      31.221   6.415  45.708  1.00  0.00    -0.275 N 
ATOM     47  H15 UNL     1      31.656   6.856  44.899  1.00  0.00     0.189 HD
BRANCH  46  48
HETATM   48  N16 UNL     1      30.962   7.181  46.843  1.00  0.00    -0.343 N 
ATOM     49 2H16 UNL     1      31.243   6.808  47.750  1.00  0.00     0.176 HD
ATOM     50 1H16 UNL     1      30.505   8.090  46.780  1.00  0.00     0.176 HD
ENDBRANCH  46  48
ENDBRANCH  43  44
ENDBRANCH  41  43
ENDBRANCH  38  41
ENDBRANCH  31  32
ENDBRANCH  30  31
ENDBRANCH   1  30
TORSDOF 12
ENDMDL
MODEL 5
REMARK VINA RESULT: -8.952648738      2.981      5.791
REMARK  12 active torsions:
REMARK  status: ('A' for Active; 'I' for Inactive)
REMARK    1  A    between atoms: C3_4  and  S1_5 
REMARK    2  A    between atoms: S1_5  and  S2_6 
REMARK    3  A    between atoms: S2_6  and  C4_7 
REMARK    4  A    between atoms: C5_13  and  N4_14 
REMARK    5  A    between atoms: N4_14  and  C6_16 
REMARK    6  A    between atoms: C8_22  and  N7_23 
REMARK    7  A    between atoms: N7_23  and  N8_25 
REMARK    8  A    between atoms: N8_25  and  N9_26 
REMARK    9  A    between atoms: N13_39  and  N14_41 
REMARK   10  A    between atoms: N14_41  and  C12_43 
REMARK   11  A    between atoms: C12_43  and  C13_44 
REMARK       I    between atoms: C13_44  and  N15_46 
REMARK   12  A    between atoms: N15_46  and  N16_48 
ROOT
HETATM    1  C4  UNL     1      36.416   0.579  45.322  1.00  0.00     0.150 A 
HETATM    2  N2  UNL     1      36.647   0.076  46.545  1.00  0.00    -0.231 N 
ATOM      3  H2  UNL     1      37.533   0.141  47.046  1.00  0.00     0.197 HD
HETATM    4  O1  UNL     1      35.579  -0.508  46.996  1.00  0.00    -0.154 OA
HETATM    5  N3  UNL     1      34.648  -0.403  46.104  1.00  0.00    -0.222 N 
ATOM      6  H3  UNL     1      33.703  -0.775  46.200  1.00  0.00     0.198 HD
HETATM    7  C5  UNL     1      35.112   0.276  45.016  1.00  0.00     0.179 A 
ENDROOT
BRANCH   7   8
HETATM    8  N4  UNL     1      34.469   0.548  43.962  1.00  0.00    -0.172 N 
ATOM      9  H4  UNL     1      34.501  -0.143  43.213  1.00  0.00     0.186 HD
BRANCH   8  10
HETATM   10  C6  UNL     1      33.713   1.710  43.719  1.00  0.00     0.688 A 
HETATM   11  N5  UNL     1      32.977   2.228  44.741  1.00  0.00    -0.173 N 
HETATM   12  C7  UNL     1      32.244   3.338  44.591  1.00  0.00     0.169 A 
ATOM     13  H5  UNL     1      32.984   1.757  45.645  1.00  0.00     0.186 HD
HETATM   14  N6  UNL     1      31.448   4.043  45.422  1.00  0.00    -0.171 N 
HETATM   15  C9  UNL     1      32.220   3.987  43.377  1.00  0.00     0.162 A 
HETATM   16  C8  UNL     1      30.933   5.097  44.780  1.00  0.00     0.711 A 
ATOM     17  H6  UNL     1      31.265   3.806  46.397  1.00  0.00     0.186 HD
HETATM   18  N10 UNL     1      31.419   5.042  43.528  1.00  0.00    -0.180 N 
ATOM     19  H10 UNL     1      31.204   5.716  42.794  1.00  0.00     0.184 HD
HETATM   20  C10 UNL     1      32.964   3.473  42.325  1.00  0.00     0.290 A 
HETATM   21  O2  UNL     1      32.927   4.083  41.222  1.00  0.00    -0.265 OA
HETATM   22  N11 UNL     1      33.677   2.359  42.543  1.00  0.00    -0.154 N 
ATOM     23  H11 UNL     1      34.224   1.982  41.769  1.00  0.00     0.187 HD
BRANCH  16  24
HETATM   24  N7  UNL     1      30.041   6.066  45.354  1.00  0.00    -0.045 N 
ATOM     25  H7  UNL     1      29.033   5.944  45.253  1.00  0.00     0.223 HD
BRANCH  24  26
HETATM   26  N8  UNL     1      30.477   7.046  45.969  1.00  0.00    -0.229 NA
BRANCH  26  27
HETATM   27  N9  UNL     1      30.969   8.015  46.514  1.00  0.00    -0.260 N 
ATOM     28  H92 UNL     1      31.139   7.258  47.177  1.00  0.00     0.193 HD
ATOM     29  H91 UNL     1      31.362   8.867  46.913  1.00  0.00     0.193 HD
ENDBRANCH  26  27
ENDBRANCH  24  26
ENDBRANCH  16  24
ENDBRANCH   8  10
ENDBRANCH   7   8
BRANCH   1  30
HETATM   30  S2  UNL     1      37.670   1.424  44.387  1.00  0.00    -0.027 SA
BRANCH  30  31
HETATM   31  S1  UNL     1      37.933   0.675  42.439  1.00  0.00    -0.031 SA
BRANCH  31  32
HETATM   32  C3  UNL     1      37.212   1.811  41.243  1.00  0.00     0.113 A 
HETATM   33  C2  UNL     1      37.103   1.601  39.891  1.00  0.00     0.146 A 
HETATM   34  N1  UNL     1      36.502   2.666  39.328  1.00  0.00    -0.194 N 
HETATM   35  C1  UNL     1      36.220   2.789  37.887  1.00  0.00     0.175 C 
HETATM   36  C11 UNL     1      36.222   3.554  40.290  1.00  0.00     0.699 A 
HETATM   37  N12 UNL     1      36.670   3.003  41.456  1.00  0.00    -0.182 N 
HETATM   38  N13 UNL     1      35.646   4.700  40.166  1.00  0.00    -0.136 N 
ATOM     39  H12 UNL     1      36.597   3.449  42.370  1.00  0.00     0.185 HD
ATOM     40  H13 UNL     1      35.521   5.236  41.025  1.00  0.00     0.205 HD
BRANCH  38  41
HETATM   41  N14 UNL     1      35.183   5.284  39.023  1.00  0.00    -0.313 N 
ATOM     42  H14 UNL     1      34.796   4.707  38.277  1.00  0.00     0.181 HD
BRANCH  41  43
HETATM   43  C12 UNL     1      35.243   6.734  38.869  1.00  0.00     0.244 C 
BRANCH  43  44
HETATM   44  C13 UNL     1      34.371   7.404  39.872  1.00  0.00     0.254 C 
HETATM   45  O3  UNL     1      34.721   8.441  40.463  1.00  0.00    -0.270 OA
HETATM   46  N15 UNL     1      33.108   6.843  40.159  1.00  0.00    -0.275 N 
ATOM     47  H15 UNL     1      32.821   5.991  39.677  1.00  0.00     0.189 HD
BRANCH  46  48
HETATM   48  N16 UNL     1      32.245   7.423  41.086  1.00  0.00    -0.343 N 
ATOM     49 2H16 UNL     1      32.618   7.668  42.003  1.00  0.00     0.176 HD
ATOM     50 1H16 UNL     1      31.266   7.602  40.865  1.00  0.00     0.176 HD
ENDBRANCH  46  48
ENDBRANCH  43  44
ENDBRANCH  41  43
ENDBRANCH  38  41
ENDBRANCH  31  32
ENDBRANCH  30  31
ENDBRANCH   1  30
TORSDOF 12
ENDMDL
