MODEL 1
REMARK VINA RESULT: -4.789352816      0.000      0.000
REMARK  0 active torsions:
REMARK  status: ('A' for Active; 'I' for Inactive)
ROOT
HETATM    1  C1  UNL     1      24.622   5.735   3.930  1.00  0.00     0.015 C 
HETATM    2  C2  UNL     1      25.968   5.500   4.546  1.00  0.00    -0.048 A 
HETATM    3  C3  UNL     1      26.631   4.278   3.940  1.00  0.00     0.015 C 
HETATM    4  C4  UNL     1      26.914   6.661   4.557  1.00  0.00     0.008 A 
HETATM    5  C5  UNL     1      26.854   6.763   6.067  1.00  0.00     0.001 A 
HETATM    6  C6  UNL     1      25.951   5.540   6.049  1.00  0.00     0.008 A 
ENDROOT
TORSDOF 0
ENDMDL
MODEL 2
REMARK VINA RESULT: -4.757443229      0.062      1.878
REMARK  0 active torsions:
REMARK  status: ('A' for Active; 'I' for Inactive)
ROOT
HETATM    1  C1  UNL     1      26.641   4.257   4.024  1.00  0.00     0.015 C 
HETATM    2  C2  UNL     1      26.009   5.502   4.569  1.00  0.00    -0.048 A 
HETATM    3  C3  UNL     1      24.642   5.727   3.950  1.00  0.00     0.015 C 
HETATM    4  C4  UNL     1      25.938   5.623   6.060  1.00  0.00     0.008 A 
HETATM    5  C5  UNL     1      26.917   6.780   6.064  1.00  0.00     0.001 A 
HETATM    6  C6  UNL     1      26.925   6.694   4.546  1.00  0.00     0.008 A 
ENDROOT
TORSDOF 0
ENDMDL
MODEL 3
REMARK VINA RESULT: -4.208233867      0.850      2.391
REMARK  0 active torsions:
REMARK  status: ('A' for Active; 'I' for Inactive)
ROOT
HETATM    1  C1  UNL     1      24.703   5.869   3.990  1.00  0.00     0.015 C 
HETATM    2  C2  UNL     1      26.102   5.437   4.311  1.00  0.00    -0.048 A 
HETATM    3  C3  UNL     1      26.308   5.352   5.812  1.00  0.00     0.015 C 
HETATM    4  C4  UNL     1      26.591   4.189   3.641  1.00  0.00     0.008 A 
HETATM    5  C5  UNL     1      27.607   4.963   2.826  1.00  0.00     0.001 A 
HETATM    6  C6  UNL     1      27.152   6.212   3.564  1.00  0.00     0.008 A 
ENDROOT
TORSDOF 0
ENDMDL
MODEL 4
REMARK VINA RESULT: -4.135853323      0.842      2.451
REMARK  0 active torsions:
REMARK  status: ('A' for Active; 'I' for Inactive)
ROOT
HETATM    1  C1  UNL     1      26.309   5.365   5.833  1.00  0.00     0.015 C 
HETATM    2  C2  UNL     1      26.111   5.412   4.348  1.00  0.00    -0.048 A 
HETATM    3  C3  UNL     1      24.692   5.828   4.007  1.00  0.00     0.015 C 
HETATM    4  C4  UNL     1      27.099   6.218   3.562  1.00  0.00     0.008 A 
HETATM    5  C5  UNL     1      27.657   4.979   2.893  1.00  0.00     0.001 A 
HETATM    6  C6  UNL     1      26.603   4.179   3.642  1.00  0.00     0.008 A 
ENDROOT
TORSDOF 0
ENDMDL
MODEL 5
REMARK VINA RESULT: -3.921649159      1.149      1.972
REMARK  0 active torsions:
REMARK  status: ('A' for Active; 'I' for Inactive)
ROOT
HETATM    1  C1  UNL     1      24.893   5.707   3.853  1.00  0.00     0.015 C 
HETATM    2  C2  UNL     1      26.366   5.521   4.061  1.00  0.00    -0.048 A 
HETATM    3  C3  UNL     1      26.631   4.439   5.092  1.00  0.00     0.015 C 
HETATM    4  C4  UNL     1      27.195   5.293   2.835  1.00  0.00     0.008 A 
HETATM    5  C5  UNL     1      27.900   6.623   3.001  1.00  0.00     0.001 A 
HETATM    6  C6  UNL     1      27.105   6.812   4.283  1.00  0.00     0.008 A 
ENDROOT
TORSDOF 0
ENDMDL
