MODEL 1
REMARK VINA RESULT: -4.598348287      0.000      0.000
REMARK  0 active torsions:
REMARK  status: ('A' for Active; 'I' for Inactive)
ROOT
HETATM    1  C1  UNL     1      25.968   5.340   5.984  1.00  0.00     0.004 C 
HETATM    2  C2  UNL     1      26.550   6.721   6.181  1.00  0.00     0.026 C 
HETATM    3  C3  UNL     1      27.505   7.075   5.080  1.00  0.00     0.167 C 
HETATM    4  O1  UNL     1      26.951   6.898   3.806  1.00  0.00    -0.391 OA
HETATM    5  C4  UNL     1      26.713   5.506   3.696  1.00  0.00     0.167 C 
HETATM    6  C5  UNL     1      25.453   5.289   4.542  1.00  0.00     0.026 C 
ENDROOT
TORSDOF 0
ENDMDL
MODEL 2
REMARK VINA RESULT: -4.481651063      0.839      2.007
REMARK  0 active torsions:
REMARK  status: ('A' for Active; 'I' for Inactive)
ROOT
HETATM    1  C1  UNL     1      25.540   5.130   4.676  1.00  0.00     0.004 C 
HETATM    2  C2  UNL     1      26.615   5.458   3.665  1.00  0.00     0.026 C 
HETATM    3  C3  UNL     1      27.220   6.806   3.926  1.00  0.00     0.167 C 
HETATM    4  O1  UNL     1      27.657   6.955   5.248  1.00  0.00    -0.391 OA
HETATM    5  C4  UNL     1      26.483   6.885   6.037  1.00  0.00     0.167 C 
HETATM    6  C5  UNL     1      26.153   5.388   6.057  1.00  0.00     0.026 C 
ENDROOT
TORSDOF 0
ENDMDL
MODEL 3
REMARK VINA RESULT: -4.286166325      0.860      1.998
REMARK  0 active torsions:
REMARK  status: ('A' for Active; 'I' for Inactive)
ROOT
HETATM    1  C1  UNL     1      26.305   6.580   6.230  1.00  0.00     0.004 C 
HETATM    2  C2  UNL     1      25.976   5.141   5.902  1.00  0.00     0.026 C 
HETATM    3  C3  UNL     1      25.799   4.943   4.426  1.00  0.00     0.167 C 
HETATM    4  O1  UNL     1      26.878   5.435   3.681  1.00  0.00    -0.391 OA
HETATM    5  C4  UNL     1      26.871   6.834   3.899  1.00  0.00     0.167 C 
HETATM    6  C5  UNL     1      27.461   6.981   5.307  1.00  0.00     0.026 C 
ENDROOT
TORSDOF 0
ENDMDL
MODEL 4
REMARK VINA RESULT: -4.221163074      0.717      1.991
REMARK  0 active torsions:
REMARK  status: ('A' for Active; 'I' for Inactive)
ROOT
HETATM    1  C1  UNL     1      25.755   5.476   5.792  1.00  0.00     0.004 C 
HETATM    2  C2  UNL     1      26.175   4.522   4.697  1.00  0.00     0.026 C 
HETATM    3  C3  UNL     1      26.562   5.258   3.449  1.00  0.00     0.167 C 
HETATM    4  O1  UNL     1      27.510   6.262   3.684  1.00  0.00    -0.391 OA
HETATM    5  C4  UNL     1      26.853   7.203   4.514  1.00  0.00     0.167 C 
HETATM    6  C5  UNL     1      26.861   6.533   5.893  1.00  0.00     0.026 C 
ENDROOT
TORSDOF 0
ENDMDL
MODEL 5
REMARK VINA RESULT: -4.204490809      0.835      1.172
REMARK  0 active torsions:
REMARK  status: ('A' for Active; 'I' for Inactive)
ROOT
HETATM    1  C1  UNL     1      26.080   4.618   4.919  1.00  0.00     0.004 C 
HETATM    2  C2  UNL     1      25.926   5.559   6.092  1.00  0.00     0.026 C 
HETATM    3  C3  UNL     1      26.885   6.709   6.002  1.00  0.00     0.167 C 
HETATM    4  O1  UNL     1      26.823   7.369   4.768  1.00  0.00    -0.391 OA
HETATM    5  C4  UNL     1      27.255   6.413   3.816  1.00  0.00     0.167 C 
HETATM    6  C5  UNL     1      26.042   5.490   3.659  1.00  0.00     0.026 C 
ENDROOT
TORSDOF 0
ENDMDL
