MODEL 1
REMARK VINA RESULT: -5.136385164      0.000      0.000
REMARK  0 active torsions:
REMARK  status: ('A' for Active; 'I' for Inactive)
ROOT
HETATM    1  C1  UNL     1      27.015   7.461   6.127  1.00  0.00     0.019 C 
HETATM    2  C2  UNL     1      26.589   6.391   5.497  1.00  0.00    -0.062 C 
HETATM    3  C3  UNL     1      25.807   5.194   5.847  1.00  0.00     0.043 C 
HETATM    4  C4  UNL     1      25.577   4.973   4.375  1.00  0.00     0.043 C 
HETATM    5  C5  UNL     1      26.701   5.897   4.138  1.00  0.00    -0.062 C 
HETATM    6  C6  UNL     1      27.465   6.134   3.085  1.00  0.00     0.019 C 
ENDROOT
TORSDOF 0
ENDMDL
MODEL 2
REMARK VINA RESULT: -5.126459036      0.256      2.283
REMARK  0 active torsions:
REMARK  status: ('A' for Active; 'I' for Inactive)
ROOT
HETATM    1  C1  UNL     1      27.365   5.787   2.943  1.00  0.00     0.019 C 
HETATM    2  C2  UNL     1      26.636   5.709   4.031  1.00  0.00    -0.062 C 
HETATM    3  C3  UNL     1      25.454   4.947   4.466  1.00  0.00     0.043 C 
HETATM    4  C4  UNL     1      25.807   5.299   5.886  1.00  0.00     0.043 C 
HETATM    5  C5  UNL     1      26.671   6.356   5.329  1.00  0.00    -0.062 C 
HETATM    6  C6  UNL     1      27.225   7.436   5.854  1.00  0.00     0.019 C 
ENDROOT
TORSDOF 0
ENDMDL
MODEL 3
REMARK VINA RESULT: -4.922129633      0.928      1.930
REMARK  0 active torsions:
REMARK  status: ('A' for Active; 'I' for Inactive)
ROOT
HETATM    1  C1  UNL     1      27.781   7.248   3.568  1.00  0.00     0.019 C 
HETATM    2  C2  UNL     1      27.172   6.640   4.559  1.00  0.00    -0.062 C 
HETATM    3  C3  UNL     1      26.928   6.914   5.984  1.00  0.00     0.043 C 
HETATM    4  C4  UNL     1      25.841   5.873   5.950  1.00  0.00     0.043 C 
HETATM    5  C5  UNL     1      26.447   5.390   4.696  1.00  0.00    -0.062 C 
HETATM    6  C6  UNL     1      26.335   4.261   4.017  1.00  0.00     0.019 C 
ENDROOT
TORSDOF 0
ENDMDL
MODEL 4
REMARK VINA RESULT: -4.883669933      0.936      2.171
REMARK  0 active torsions:
REMARK  status: ('A' for Active; 'I' for Inactive)
ROOT
HETATM    1  C1  UNL     1      26.368   4.213   3.867  1.00  0.00     0.019 C 
HETATM    2  C2  UNL     1      26.419   5.291   4.613  1.00  0.00    -0.062 C 
HETATM    3  C3  UNL     1      25.801   5.744   5.870  1.00  0.00     0.043 C 
HETATM    4  C4  UNL     1      26.871   6.799   5.962  1.00  0.00     0.043 C 
HETATM    5  C5  UNL     1      27.129   6.554   4.531  1.00  0.00    -0.062 C 
HETATM    6  C6  UNL     1      27.761   7.247   3.598  1.00  0.00     0.019 C 
ENDROOT
TORSDOF 0
ENDMDL
MODEL 5
REMARK VINA RESULT: -4.765197772      1.032      1.612
REMARK  0 active torsions:
REMARK  status: ('A' for Active; 'I' for Inactive)
ROOT
HETATM    1  C1  UNL     1      26.073   6.050   5.866  1.00  0.00     0.019 C 
HETATM    2  C2  UNL     1      26.523   5.595   4.720  1.00  0.00    -0.062 C 
HETATM    3  C3  UNL     1      26.441   4.330   3.974  1.00  0.00     0.043 C 
HETATM    4  C4  UNL     1      26.867   5.084   2.742  1.00  0.00     0.043 C 
HETATM    5  C5  UNL     1      27.324   6.154   3.647  1.00  0.00    -0.062 C 
HETATM    6  C6  UNL     1      28.138   7.184   3.486  1.00  0.00     0.019 C 
ENDROOT
TORSDOF 0
ENDMDL
