MODEL 1
REMARK VINA RESULT: -5.144183800      0.000      0.000
REMARK  0 active torsions:
REMARK  status: ('A' for Active; 'I' for Inactive)
ROOT
HETATM    1  C1  UNL     1      27.267   5.009   2.658  1.00  0.00     0.011 C 
HETATM    2  C2  UNL     1      26.319   4.859   3.861  1.00  0.00    -0.009 A 
HETATM    3  C3  UNL     1      25.130   5.704   3.975  1.00  0.00     0.015 A 
HETATM    4  C4  UNL     1      26.377   5.804   4.840  1.00  0.00    -0.037 A 
HETATM    5  C5  UNL     1      26.268   5.203   6.283  1.00  0.00     0.010 A 
HETATM    6  C6  UNL     1      26.354   6.629   5.916  1.00  0.00     0.010 A 
ENDROOT
TORSDOF 0
ENDMDL
MODEL 2
REMARK VINA RESULT: -4.822241738      0.621      2.805
REMARK  0 active torsions:
REMARK  status: ('A' for Active; 'I' for Inactive)
ROOT
HETATM    1  C1  UNL     1      26.175   5.279   6.190  1.00  0.00     0.011 C 
HETATM    2  C2  UNL     1      26.271   6.017   4.843  1.00  0.00    -0.009 A 
HETATM    3  C3  UNL     1      25.306   5.741   3.778  1.00  0.00     0.015 A 
HETATM    4  C4  UNL     1      26.772   5.335   3.776  1.00  0.00    -0.037 A 
HETATM    5  C5  UNL     1      27.729   6.199   2.886  1.00  0.00     0.010 A 
HETATM    6  C6  UNL     1      27.297   4.811   2.642  1.00  0.00     0.010 A 
ENDROOT
TORSDOF 0
ENDMDL
MODEL 3
REMARK VINA RESULT: -4.772588986      1.406      2.263
REMARK  0 active torsions:
REMARK  status: ('A' for Active; 'I' for Inactive)
ROOT
HETATM    1  C1  UNL     1      28.399   7.280   3.652  1.00  0.00     0.011 C 
HETATM    2  C2  UNL     1      27.002   7.135   4.281  1.00  0.00    -0.009 A 
HETATM    3  C3  UNL     1      26.857   6.962   5.727  1.00  0.00     0.015 A 
HETATM    4  C4  UNL     1      26.605   5.893   4.674  1.00  0.00    -0.037 A 
HETATM    5  C5  UNL     1      25.104   5.592   4.339  1.00  0.00     0.010 A 
HETATM    6  C6  UNL     1      26.048   4.721   5.063  1.00  0.00     0.010 A 
ENDROOT
TORSDOF 0
ENDMDL
MODEL 4
REMARK VINA RESULT: -4.726039754      0.852      2.738
REMARK  0 active torsions:
REMARK  status: ('A' for Active; 'I' for Inactive)
ROOT
HETATM    1  C1  UNL     1      26.796   6.867   6.006  1.00  0.00     0.011 C 
HETATM    2  C2  UNL     1      26.393   6.494   4.569  1.00  0.00    -0.009 A 
HETATM    3  C3  UNL     1      25.157   5.753   4.316  1.00  0.00     0.015 A 
HETATM    4  C4  UNL     1      26.568   5.202   4.172  1.00  0.00    -0.037 A 
HETATM    5  C5  UNL     1      27.116   5.076   2.710  1.00  0.00     0.010 A 
HETATM    6  C6  UNL     1      26.730   3.978   3.615  1.00  0.00     0.010 A 
ENDROOT
TORSDOF 0
ENDMDL
MODEL 5
REMARK VINA RESULT: -4.561934122      0.816      2.717
REMARK  0 active torsions:
REMARK  status: ('A' for Active; 'I' for Inactive)
ROOT
HETATM    1  C1  UNL     1      27.641   7.481   5.787  1.00  0.00     0.011 C 
HETATM    2  C2  UNL     1      26.340   6.671   5.655  1.00  0.00    -0.009 A 
HETATM    3  C3  UNL     1      26.179   5.407   6.375  1.00  0.00     0.015 A 
HETATM    4  C4  UNL     1      26.358   5.556   4.872  1.00  0.00    -0.037 A 
HETATM    5  C5  UNL     1      25.066   5.393   4.001  1.00  0.00     0.010 A 
HETATM    6  C6  UNL     1      26.204   4.460   4.090  1.00  0.00     0.010 A 
ENDROOT
TORSDOF 0
ENDMDL
