MODEL 1
REMARK VINA RESULT: -7.012258637      0.000      0.000
REMARK  9 active torsions:
REMARK  status: ('A' for Active; 'I' for Inactive)
REMARK    1  A    between atoms: C5_7  and  C6_8 
REMARK    2  A    between atoms: C8_14  and  N2_15 
REMARK    3  A    between atoms: N2_15  and  C9_17 
REMARK    4  A    between atoms: C9_17  and  O3_18 
REMARK    5  A    between atoms: C9_17  and  C10_20 
REMARK    6  A    between atoms: C10_20  and  C11_21 
REMARK    7  A    between atoms: C10_20  and  N3_23 
REMARK       I    between atoms: N3_23  and  C12_25 
REMARK    8  A    between atoms: C12_25  and  C13_27 
REMARK    9  A    between atoms: C18_40  and  C19_41 
ROOT
HETATM    1  C1  UNL     1      -2.003  12.005  13.080  1.00  0.00     0.030 C 
HETATM    2  C2  UNL     1      -1.330  11.002  13.958  1.00  0.00     0.043 C 
HETATM    3  C3  UNL     1      -2.447  10.074  14.453  1.00  0.00     0.030 C 
HETATM    4  S1  UNL     1      -0.725  11.874  15.427  1.00  0.00    -0.086 SA
HETATM    5  S2  UNL     1      -0.410  13.928  15.115  1.00  0.00    -0.094 SA
HETATM    6  C4  UNL     1       1.252  14.216  14.490  1.00  0.00     0.118 C 
HETATM    7  C5  UNL     1       2.291  14.274  15.579  1.00  0.00     0.156 C 
HETATM    8  N1  UNL     1       3.618  14.057  15.039  1.00  0.00    -0.347 N 
ATOM      9  H1  UNL     1       4.233  14.862  14.921  1.00  0.00     0.163 HD
HETATM   10  C7  UNL     1       4.101  12.775  14.667  1.00  0.00     0.250 C 
HETATM   11  O2  UNL     1       5.131  12.742  13.902  1.00  0.00    -0.271 OA
HETATM   12  C8  UNL     1       3.532  11.488  15.074  1.00  0.00     0.266 C 
HETATM   13  C17 UNL     1       3.383  10.585  13.853  1.00  0.00     0.267 C 
HETATM   14  O6  UNL     1       4.409  10.351  13.141  1.00  0.00    -0.269 OA
HETATM   15  N5  UNL     1       2.124  10.013  13.509  1.00  0.00    -0.271 N 
ATOM     16  H5  UNL     1       2.103   9.228  12.857  1.00  0.00     0.189 HD
HETATM   17  N6  UNL     1       0.947  10.475  14.019  1.00  0.00    -0.317 N 
ATOM     18  H6  UNL     1       0.923  10.998  14.895  1.00  0.00     0.181 HD
HETATM   19  C18 UNL     1      -0.252  10.205  13.291  1.00  0.00     0.218 C 
ENDROOT
BRANCH  12  20
HETATM   20  N2  UNL     1       4.280  10.799  16.028  1.00  0.00    -0.375 N 
ATOM     21  H2  UNL     1       5.194  11.185  16.269  1.00  0.00     0.157 HD
BRANCH  20  22
HETATM   22  C9  UNL     1       3.896   9.639  16.678  1.00  0.00     0.244 C 
BRANCH  22  23
HETATM   23  O3  UNL     1       3.671   9.851  18.074  1.00  0.00    -0.375 OA
ATOM     24  H3  UNL     1       3.842   9.071  18.588  1.00  0.00     0.212 HD
ENDBRANCH  22  23
BRANCH  22  25
HETATM   25  C10 UNL     1       4.633   8.364  16.568  1.00  0.00     0.194 C 
BRANCH  25  26
HETATM   26  C11 UNL     1       3.825   7.376  17.443  1.00  0.00     0.260 C 
HETATM   27  O4  UNL     1       4.466   6.598  18.117  1.00  0.00    -0.304 OA
ENDBRANCH  25  26
BRANCH  25  28
HETATM   28  N3  UNL     1       4.645   7.737  15.267  1.00  0.00    -0.344 N 
HETATM   29  C12 UNL     1       5.843   7.581  14.533  1.00  0.00     0.249 C 
HETATM   30  O5  UNL     1       6.927   8.014  15.080  1.00  0.00    -0.271 OA
ATOM     31  H3  UNL     1       3.768   7.400  14.869  1.00  0.00     0.163 HD
BRANCH  29  32
HETATM   32  C13 UNL     1       6.007   6.974  13.208  1.00  0.00     0.277 C 
HETATM   33  C14 UNL     1       5.972   5.482  13.232  1.00  0.00     0.044 C 
HETATM   34  C15 UNL     1       7.414   5.118  12.843  1.00  0.00     0.030 C 
HETATM   35  C16 UNL     1       7.702   6.236  11.867  1.00  0.00     0.233 C 
HETATM   36  N4  UNL     1       7.218   7.411  12.550  1.00  0.00    -0.062 N 
ATOM     37  H42 UNL     1       7.092   8.222  11.944  1.00  0.00     0.278 HD
ATOM     38  H41 UNL     1       7.901   7.840  13.174  1.00  0.00     0.278 HD
ENDBRANCH  29  32
ENDBRANCH  25  28
ENDBRANCH  22  25
ENDBRANCH  20  22
ENDBRANCH  12  20
BRANCH   7  39
HETATM   39  C6  UNL     1       2.194  15.602  16.243  1.00  0.00     0.257 C 
HETATM   40  O1  UNL     1       2.117  15.613  17.463  1.00  0.00    -0.305 OA
ENDBRANCH   7  39
BRANCH  19  41
HETATM   41  C19 UNL     1      -0.137  10.430  11.845  1.00  0.00     0.199 C 
HETATM   42  O7  UNL     1      -0.817   9.676  11.099  1.00  0.00    -0.646 OA
HETATM   43  O8  UNL     1       0.629  11.367  11.219  1.00  0.00    -0.646 OA
ENDBRANCH  19  41
TORSDOF 9
ENDMDL
MODEL 2
REMARK VINA RESULT: -6.985563106      2.282      2.528
REMARK  9 active torsions:
REMARK  status: ('A' for Active; 'I' for Inactive)
REMARK    1  A    between atoms: C5_7  and  C6_8 
REMARK    2  A    between atoms: C8_14  and  N2_15 
REMARK    3  A    between atoms: N2_15  and  C9_17 
REMARK    4  A    between atoms: C9_17  and  O3_18 
REMARK    5  A    between atoms: C9_17  and  C10_20 
REMARK    6  A    between atoms: C10_20  and  C11_21 
REMARK    7  A    between atoms: C10_20  and  N3_23 
REMARK       I    between atoms: N3_23  and  C12_25 
REMARK    8  A    between atoms: C12_25  and  C13_27 
REMARK    9  A    between atoms: C18_40  and  C19_41 
ROOT
HETATM    1  C1  UNL     1       0.932  15.309  10.717  1.00  0.00     0.030 C 
HETATM    2  C2  UNL     1       0.345  14.284  11.630  1.00  0.00     0.043 C 
HETATM    3  C3  UNL     1      -1.169  14.526  11.601  1.00  0.00     0.030 C 
HETATM    4  S1  UNL     1       0.876  14.680  13.317  1.00  0.00    -0.086 SA
HETATM    5  S2  UNL     1       2.647  15.807  13.398  1.00  0.00    -0.094 SA
HETATM    6  C4  UNL     1       4.079  14.718  13.403  1.00  0.00     0.118 C 
HETATM    7  C5  UNL     1       4.414  14.188  14.774  1.00  0.00     0.156 C 
HETATM    8  N1  UNL     1       5.248  13.008  14.681  1.00  0.00    -0.347 N 
ATOM      9  H1  UNL     1       6.245  13.099  14.879  1.00  0.00     0.163 HD
HETATM   10  C7  UNL     1       4.744  11.730  14.327  1.00  0.00     0.250 C 
HETATM   11  O2  UNL     1       5.599  10.850  13.950  1.00  0.00    -0.271 OA
HETATM   12  C8  UNL     1       3.337  11.322  14.351  1.00  0.00     0.266 C 
HETATM   13  C17 UNL     1       2.985  10.619  13.043  1.00  0.00     0.267 C 
HETATM   14  O6  UNL     1       3.677   9.614  12.688  1.00  0.00    -0.269 OA
HETATM   15  N5  UNL     1       1.907  11.072  12.229  1.00  0.00    -0.271 N 
ATOM     16  H5  UNL     1       1.538  10.448  11.511  1.00  0.00     0.189 HD
HETATM   17  N6  UNL     1       1.350  12.309  12.375  1.00  0.00    -0.317 N 
ATOM     18  H6  UNL     1       1.432  12.821  13.253  1.00  0.00     0.181 HD
HETATM   19  C18 UNL     1       0.649  12.865  11.261  1.00  0.00     0.218 C 
ENDROOT
BRANCH  12  20
HETATM   20  N2  UNL     1       2.998  10.469  15.401  1.00  0.00    -0.375 N 
ATOM     21  H2  UNL     1       2.037  10.128  15.430  1.00  0.00     0.157 HD
BRANCH  20  22
HETATM   22  C9  UNL     1       3.848  10.044  16.407  1.00  0.00     0.244 C 
BRANCH  22  23
HETATM   23  O3  UNL     1       4.763  11.067  16.810  1.00  0.00    -0.375 OA
ATOM     24  H3  UNL     1       4.400  11.627  17.486  1.00  0.00     0.212 HD
ENDBRANCH  22  23
BRANCH  22  25
HETATM   25  C10 UNL     1       4.634   8.795  16.333  1.00  0.00     0.194 C 
BRANCH  25  26
HETATM   26  C11 UNL     1       3.881   7.811  17.259  1.00  0.00     0.260 C 
HETATM   27  O4  UNL     1       4.544   6.942  17.783  1.00  0.00    -0.304 OA
ENDBRANCH  25  26
BRANCH  25  28
HETATM   28  N3  UNL     1       4.648   8.119  15.057  1.00  0.00    -0.344 N 
HETATM   29  C12 UNL     1       5.855   7.674  14.469  1.00  0.00     0.249 C 
HETATM   30  O5  UNL     1       6.942   7.892  15.127  1.00  0.00    -0.271 OA
ATOM     31  H3  UNL     1       3.767   7.958  14.569  1.00  0.00     0.163 HD
BRANCH  29  32
HETATM   32  C13 UNL     1       6.024   6.984  13.187  1.00  0.00     0.277 C 
HETATM   33  C14 UNL     1       5.969   5.497  13.304  1.00  0.00     0.044 C 
HETATM   34  C15 UNL     1       7.410   5.091  12.954  1.00  0.00     0.030 C 
HETATM   35  C16 UNL     1       7.722   6.142  11.912  1.00  0.00     0.233 C 
HETATM   36  N4  UNL     1       7.246   7.363  12.514  1.00  0.00    -0.062 N 
ATOM     37  H42 UNL     1       7.137   8.136  11.858  1.00  0.00     0.278 HD
ATOM     38  H41 UNL     1       7.928   7.823  13.118  1.00  0.00     0.278 HD
ENDBRANCH  29  32
ENDBRANCH  25  28
ENDBRANCH  22  25
ENDBRANCH  20  22
ENDBRANCH  12  20
BRANCH   7  39
HETATM   39  C6  UNL     1       5.098  15.269  15.534  1.00  0.00     0.257 C 
HETATM   40  O1  UNL     1       6.305  15.160  15.696  1.00  0.00    -0.305 OA
ENDBRANCH   7  39
BRANCH  19  41
HETATM   41  C19 UNL     1       1.345  12.706   9.978  1.00  0.00     0.199 C 
HETATM   42  O7  UNL     1       0.621  12.607   8.951  1.00  0.00    -0.646 OA
HETATM   43  O8  UNL     1       2.691  12.653   9.775  1.00  0.00    -0.646 OA
ENDBRANCH  19  41
TORSDOF 9
ENDMDL
MODEL 3
REMARK VINA RESULT: -6.977780078      1.729      1.925
REMARK  9 active torsions:
REMARK  status: ('A' for Active; 'I' for Inactive)
REMARK    1  A    between atoms: C5_7  and  C6_8 
REMARK    2  A    between atoms: C8_14  and  N2_15 
REMARK    3  A    between atoms: N2_15  and  C9_17 
REMARK    4  A    between atoms: C9_17  and  O3_18 
REMARK    5  A    between atoms: C9_17  and  C10_20 
REMARK    6  A    between atoms: C10_20  and  C11_21 
REMARK    7  A    between atoms: C10_20  and  N3_23 
REMARK       I    between atoms: N3_23  and  C12_25 
REMARK    8  A    between atoms: C12_25  and  C13_27 
REMARK    9  A    between atoms: C18_40  and  C19_41 
ROOT
HETATM    1  C1  UNL     1      -2.169  12.876  13.644  1.00  0.00     0.030 C 
HETATM    2  C2  UNL     1      -1.377  12.216  14.725  1.00  0.00     0.043 C 
HETATM    3  C3  UNL     1      -2.292  12.203  15.955  1.00  0.00     0.030 C 
HETATM    4  S1  UNL     1       0.002  13.315  15.146  1.00  0.00    -0.086 SA
HETATM    5  S2  UNL     1       0.532  14.630  13.596  1.00  0.00    -0.094 SA
HETATM    6  C4  UNL     1       1.732  13.853  12.503  1.00  0.00     0.118 C 
HETATM    7  C5  UNL     1       3.147  13.957  13.008  1.00  0.00     0.156 C 
HETATM    8  N1  UNL     1       3.996  12.971  12.372  1.00  0.00    -0.347 N 
ATOM      9  H1  UNL     1       4.630  13.278  11.634  1.00  0.00     0.163 HD
HETATM   10  C7  UNL     1       3.987  11.598  12.729  1.00  0.00     0.250 C 
HETATM   11  O2  UNL     1       4.512  10.777  11.894  1.00  0.00    -0.271 OA
HETATM   12  C8  UNL     1       3.433  11.030  13.960  1.00  0.00     0.266 C 
HETATM   13  C17 UNL     1       2.556   9.828  13.621  1.00  0.00     0.267 C 
HETATM   14  O6  UNL     1       3.064   8.878  12.948  1.00  0.00    -0.269 OA
HETATM   15  N5  UNL     1       1.198   9.763  14.045  1.00  0.00    -0.271 N 
ATOM     16  H5  UNL     1       0.721   8.861  14.029  1.00  0.00     0.189 HD
HETATM   17  N6  UNL     1       0.511  10.862  14.471  1.00  0.00    -0.317 N 
ATOM     18  H6  UNL     1       1.002  11.683  14.824  1.00  0.00     0.181 HD
HETATM   19  C18 UNL     1      -0.915  10.828  14.408  1.00  0.00     0.218 C 
ENDROOT
BRANCH  12  20
HETATM   20  N2  UNL     1       4.387  10.618  14.889  1.00  0.00    -0.375 N 
ATOM     21  H2  UNL     1       5.359  10.857  14.694  1.00  0.00     0.157 HD
BRANCH  20  22
HETATM   22  C9  UNL     1       4.134   9.913  16.054  1.00  0.00     0.244 C 
BRANCH  22  23
HETATM   23  O3  UNL     1       4.406  10.689  17.225  1.00  0.00    -0.375 OA
ATOM     24  H3  UNL     1       3.651  11.192  17.506  1.00  0.00     0.212 HD
ENDBRANCH  22  23
BRANCH  22  25
HETATM   25  C10 UNL     1       4.671   8.563  16.320  1.00  0.00     0.194 C 
BRANCH  25  26
HETATM   26  C11 UNL     1       3.631   7.914  17.262  1.00  0.00     0.260 C 
HETATM   27  O4  UNL     1       4.003   6.956  17.905  1.00  0.00    -0.304 OA
ENDBRANCH  25  26
BRANCH  25  28
HETATM   28  N3  UNL     1       4.724   7.659  15.195  1.00  0.00    -0.344 N 
HETATM   29  C12 UNL     1       5.753   7.740  14.228  1.00  0.00     0.249 C 
HETATM   30  O5  UNL     1       6.647   8.652  14.400  1.00  0.00    -0.271 OA
ATOM     31  H3  UNL     1       4.002   6.945  15.096  1.00  0.00     0.163 HD
BRANCH  29  32
HETATM   32  C13 UNL     1       5.932   6.901  13.040  1.00  0.00     0.277 C 
HETATM   33  C14 UNL     1       5.963   5.441  13.346  1.00  0.00     0.044 C 
HETATM   34  C15 UNL     1       7.417   5.070  13.009  1.00  0.00     0.030 C 
HETATM   35  C16 UNL     1       7.645   5.994  11.833  1.00  0.00     0.233 C 
HETATM   36  N4  UNL     1       7.116   7.255  12.290  1.00  0.00    -0.062 N 
ATOM     37  H42 UNL     1       6.949   7.931  11.544  1.00  0.00     0.278 HD
ATOM     38  H41 UNL     1       7.785   7.823  12.810  1.00  0.00     0.278 HD
ENDBRANCH  29  32
ENDBRANCH  25  28
ENDBRANCH  22  25
ENDBRANCH  20  22
ENDBRANCH  12  20
BRANCH   7  39
HETATM   39  C6  UNL     1       3.634  15.338  12.738  1.00  0.00     0.257 C 
HETATM   40  O1  UNL     1       4.750  15.450  12.250  1.00  0.00    -0.305 OA
ENDBRANCH   7  39
BRANCH  19  41
HETATM   41  C19 UNL     1      -1.446  10.283  13.152  1.00  0.00     0.199 C 
HETATM   42  O7  UNL     1      -2.512   9.615  13.230  1.00  0.00    -0.646 OA
HETATM   43  O8  UNL     1      -0.909  10.420  11.908  1.00  0.00    -0.646 OA
ENDBRANCH  19  41
TORSDOF 9
ENDMDL
MODEL 4
REMARK VINA RESULT: -6.851376783      2.931      3.682
REMARK  9 active torsions:
REMARK  status: ('A' for Active; 'I' for Inactive)
REMARK    1  A    between atoms: C5_7  and  C6_8 
REMARK    2  A    between atoms: C8_14  and  N2_15 
REMARK    3  A    between atoms: N2_15  and  C9_17 
REMARK    4  A    between atoms: C9_17  and  O3_18 
REMARK    5  A    between atoms: C9_17  and  C10_20 
REMARK    6  A    between atoms: C10_20  and  C11_21 
REMARK    7  A    between atoms: C10_20  and  N3_23 
REMARK       I    between atoms: N3_23  and  C12_25 
REMARK    8  A    between atoms: C12_25  and  C13_27 
REMARK    9  A    between atoms: C18_40  and  C19_41 
ROOT
HETATM    1  C1  UNL     1       2.011  15.446  13.252  1.00  0.00     0.030 C 
HETATM    2  C2  UNL     1       1.472  14.143  12.760  1.00  0.00     0.043 C 
HETATM    3  C3  UNL     1       0.087  14.461  12.184  1.00  0.00     0.030 C 
HETATM    4  S1  UNL     1       1.177  13.089  14.204  1.00  0.00    -0.086 SA
HETATM    5  S2  UNL     1       2.343  13.606  15.874  1.00  0.00    -0.094 SA
HETATM    6  C4  UNL     1       3.928  12.758  15.814  1.00  0.00     0.118 C 
HETATM    7  C5  UNL     1       3.869  11.353  16.354  1.00  0.00     0.156 C 
HETATM    8  N1  UNL     1       4.998  10.573  15.891  1.00  0.00    -0.347 N 
ATOM      9  H1  UNL     1       5.765  10.394  16.540  1.00  0.00     0.163 HD
HETATM   10  C7  UNL     1       5.088  10.048  14.576  1.00  0.00     0.250 C 
HETATM   11  O2  UNL     1       6.250   9.677  14.176  1.00  0.00    -0.271 OA
HETATM   12  C8  UNL     1       3.978   9.890  13.633  1.00  0.00     0.266 C 
HETATM   13  C17 UNL     1       4.382  10.443  12.270  1.00  0.00     0.267 C 
HETATM   14  O6  UNL     1       5.432   9.988  11.716  1.00  0.00    -0.269 OA
HETATM   15  N5  UNL     1       3.607  11.449  11.622  1.00  0.00    -0.271 N 
ATOM     16  H5  UNL     1       3.750  11.613  10.625  1.00  0.00     0.189 HD
HETATM   17  N6  UNL     1       2.683  12.200  12.286  1.00  0.00    -0.317 N 
ATOM     18  H6  UNL     1       2.264  11.869  13.156  1.00  0.00     0.181 HD
HETATM   19  C18 UNL     1       2.318  13.463  11.728  1.00  0.00     0.218 C 
ENDROOT
BRANCH  12  20
HETATM   20  N2  UNL     1       3.552   8.575  13.454  1.00  0.00    -0.375 N 
ATOM     21  H2  UNL     1       3.356   8.277  12.498  1.00  0.00     0.157 HD
BRANCH  20  22
HETATM   22  C9  UNL     1       3.369   7.638  14.456  1.00  0.00     0.244 C 
BRANCH  22  23
HETATM   23  O3  UNL     1       3.880   8.086  15.714  1.00  0.00    -0.375 OA
ATOM     24  H3  UNL     1       3.282   8.677  16.155  1.00  0.00     0.212 HD
ENDBRANCH  22  23
BRANCH  22  25
HETATM   25  C10 UNL     1       3.772   6.222  14.328  1.00  0.00     0.194 C 
BRANCH  25  26
HETATM   26  C11 UNL     1       2.546   5.530  13.687  1.00  0.00     0.260 C 
HETATM   27  O4  UNL     1       2.549   4.318  13.679  1.00  0.00    -0.304 OA
ENDBRANCH  25  26
BRANCH  25  28
HETATM   28  N3  UNL     1       4.845   5.940  13.403  1.00  0.00    -0.344 N 
HETATM   29  C12 UNL     1       6.198   6.150  13.755  1.00  0.00     0.249 C 
HETATM   30  O5  UNL     1       6.433   6.596  14.942  1.00  0.00    -0.271 OA
ATOM     31  H3  UNL     1       4.621   5.582  12.475  1.00  0.00     0.163 HD
BRANCH  29  32
HETATM   32  C13 UNL     1       7.385   5.915  12.927  1.00  0.00     0.277 C 
HETATM   33  C14 UNL     1       7.578   6.947  11.865  1.00  0.00     0.044 C 
HETATM   34  C15 UNL     1       7.341   6.136  10.580  1.00  0.00     0.030 C 
HETATM   35  C16 UNL     1       7.934   4.812  11.005  1.00  0.00     0.233 C 
HETATM   36  N4  UNL     1       7.383   4.603  12.321  1.00  0.00    -0.062 N 
ATOM     37  H42 UNL     1       7.868   3.892  12.868  1.00  0.00     0.278 HD
ATOM     38  H41 UNL     1       6.471   4.145  12.322  1.00  0.00     0.278 HD
ENDBRANCH  29  32
ENDBRANCH  25  28
ENDBRANCH  22  25
ENDBRANCH  20  22
ENDBRANCH  12  20
BRANCH   7  39
HETATM   39  C6  UNL     1       3.843  11.428  17.840  1.00  0.00     0.257 C 
HETATM   40  O1  UNL     1       4.849  11.066  18.435  1.00  0.00    -0.305 OA
ENDBRANCH   7  39
BRANCH  19  41
HETATM   41  C19 UNL     1       3.457  14.259  11.255  1.00  0.00     0.199 C 
HETATM   42  O7  UNL     1       3.288  14.912  10.190  1.00  0.00    -0.646 OA
HETATM   43  O8  UNL     1       4.682  14.368  11.842  1.00  0.00    -0.646 OA
ENDBRANCH  19  41
TORSDOF 9
ENDMDL
MODEL 5
REMARK VINA RESULT: -6.837925302      2.106      2.811
REMARK  9 active torsions:
REMARK  status: ('A' for Active; 'I' for Inactive)
REMARK    1  A    between atoms: C5_7  and  C6_8 
REMARK    2  A    between atoms: C8_14  and  N2_15 
REMARK    3  A    between atoms: N2_15  and  C9_17 
REMARK    4  A    between atoms: C9_17  and  O3_18 
REMARK    5  A    between atoms: C9_17  and  C10_20 
REMARK    6  A    between atoms: C10_20  and  C11_21 
REMARK    7  A    between atoms: C10_20  and  N3_23 
REMARK       I    between atoms: N3_23  and  C12_25 
REMARK    8  A    between atoms: C12_25  and  C13_27 
REMARK    9  A    between atoms: C18_40  and  C19_41 
ROOT
HETATM    1  C1  UNL     1      -1.985  14.202  13.843  1.00  0.00     0.030 C 
HETATM    2  C2  UNL     1      -1.088  13.915  15.001  1.00  0.00     0.043 C 
HETATM    3  C3  UNL     1      -1.658  14.722  16.173  1.00  0.00     0.030 C 
HETATM    4  S1  UNL     1       0.531  14.647  14.638  1.00  0.00    -0.086 SA
HETATM    5  S2  UNL     1       0.896  14.901  12.584  1.00  0.00    -0.094 SA
HETATM    6  C4  UNL     1       1.625  13.409  11.892  1.00  0.00     0.118 C 
HETATM    7  C5  UNL     1       3.116  13.330  12.096  1.00  0.00     0.156 C 
HETATM    8  N1  UNL     1       3.586  11.968  11.942  1.00  0.00    -0.347 N 
ATOM      9  H1  UNL     1       4.064  11.712  11.078  1.00  0.00     0.163 HD
HETATM   10  C7  UNL     1       3.412  10.973  12.939  1.00  0.00     0.250 C 
HETATM   11  O2  UNL     1       3.554   9.752  12.573  1.00  0.00    -0.271 OA
HETATM   12  C8  UNL     1       3.083  11.212  14.347  1.00  0.00     0.266 C 
HETATM   13  C17 UNL     1       1.944  10.289  14.770  1.00  0.00     0.267 C 
HETATM   14  O6  UNL     1       2.086   9.036  14.610  1.00  0.00    -0.269 OA
HETATM   15  N5  UNL     1       0.744  10.809  15.334  1.00  0.00    -0.271 N 
ATOM     16  H5  UNL     1       0.120  10.174  15.834  1.00  0.00     0.189 HD
HETATM   17  N6  UNL     1       0.398  12.124  15.231  1.00  0.00    -0.317 N 
ATOM     18  H6  UNL     1       1.103  12.841  15.059  1.00  0.00     0.181 HD
HETATM   19  C18 UNL     1      -0.981  12.468  15.371  1.00  0.00     0.218 C 
ENDROOT
BRANCH  12  20
HETATM   20  N2  UNL     1       4.144  11.019  15.231  1.00  0.00    -0.375 N 
ATOM     21  H2  UNL     1       4.999  11.546  15.052  1.00  0.00     0.157 HD
BRANCH  20  22
HETATM   22  C9  UNL     1       4.141  10.176  16.329  1.00  0.00     0.244 C 
BRANCH  22  23
HETATM   23  O3  UNL     1       4.620  10.827  17.510  1.00  0.00    -0.375 OA
ATOM     24  H3  UNL     1       5.198  11.553  17.311  1.00  0.00     0.212 HD
ENDBRANCH  22  23
BRANCH  22  25
HETATM   25  C10 UNL     1       4.752   8.832  16.324  1.00  0.00     0.194 C 
BRANCH  25  26
HETATM   26  C11 UNL     1       3.835   7.988  17.239  1.00  0.00     0.260 C 
HETATM   27  O4  UNL     1       4.260   6.908  17.589  1.00  0.00    -0.304 OA
ENDBRANCH  25  26
BRANCH  25  28
HETATM   28  N3  UNL     1       4.729   8.120  15.067  1.00  0.00    -0.344 N 
HETATM   29  C12 UNL     1       5.921   7.724  14.419  1.00  0.00     0.249 C 
HETATM   30  O5  UNL     1       7.032   8.020  15.003  1.00  0.00    -0.271 OA
ATOM     31  H3  UNL     1       3.831   7.897  14.638  1.00  0.00     0.163 HD
BRANCH  29  32
HETATM   32  C13 UNL     1       6.053   7.006  13.148  1.00  0.00     0.277 C 
HETATM   33  C14 UNL     1       5.985   5.523  13.296  1.00  0.00     0.044 C 
HETATM   34  C15 UNL     1       7.413   5.094  12.920  1.00  0.00     0.030 C 
HETATM   35  C16 UNL     1       7.710   6.121  11.851  1.00  0.00     0.233 C 
HETATM   36  N4  UNL     1       7.263   7.359  12.439  1.00  0.00    -0.062 N 
ATOM     37  H42 UNL     1       7.146   8.120  11.770  1.00  0.00     0.278 HD
ATOM     38  H41 UNL     1       7.964   7.823  13.017  1.00  0.00     0.278 HD
ENDBRANCH  29  32
ENDBRANCH  25  28
ENDBRANCH  22  25
ENDBRANCH  20  22
ENDBRANCH  12  20
BRANCH   7  39
HETATM   39  C6  UNL     1       3.767  14.235  11.110  1.00  0.00     0.257 C 
HETATM   40  O1  UNL     1       4.913  14.589  11.349  1.00  0.00    -0.305 OA
ENDBRANCH   7  39
BRANCH  19  41
HETATM   41  C19 UNL     1      -1.896  11.585  14.637  1.00  0.00     0.199 C 
HETATM   42  O7  UNL     1      -3.089  11.542  15.042  1.00  0.00    -0.646 OA
HETATM   43  O8  UNL     1      -1.594  10.802  13.563  1.00  0.00    -0.646 OA
ENDBRANCH  19  41
TORSDOF 9
ENDMDL
