MODEL 1
REMARK VINA RESULT: -6.572363856      0.000      0.000
REMARK  17 active torsions:
REMARK  status: ('A' for Active; 'I' for Inactive)
REMARK    1  A    between atoms: N1_1  and  N2_4 
REMARK    2  A    between atoms: N2_4  and  N3_5 
REMARK    3  A    between atoms: N3_5  and  C1_7 
REMARK    4  A    between atoms: C1_7  and  C2_8 
REMARK    5  A    between atoms: C5_11  and  N4_12 
REMARK    6  A    between atoms: C6_16  and  O1_17 
REMARK    7  A    between atoms: O1_17  and  C7_18 
REMARK    8  A    between atoms: C8_19  and  N5_20 
REMARK    9  A    between atoms: C10_25  and  N6_26 
REMARK   10  A    between atoms: C11_30  and  O2_31 
REMARK   11  A    between atoms: O2_31  and  C12_32 
REMARK   12  A    between atoms: C13_33  and  N7_34 
REMARK   13  A    between atoms: C15_39  and  N8_40 
REMARK   14  A    between atoms: C17_45  and  N9_46 
REMARK   15  A    between atoms: C18_50  and  O3_51 
REMARK   16  A    between atoms: O3_51  and  C19_52 
REMARK   17  A    between atoms: C23_59  and  N11_60 
ROOT
HETATM    1  C7  UNL     1       2.766  10.117  14.281  1.00  0.00     0.186 C 
HETATM    2  C8  UNL     1       2.683  11.095  15.462  1.00  0.00     0.217 C 
HETATM    3  C9  UNL     1       2.568  12.522  15.018  1.00  0.00     0.071 C 
HETATM    4  C10 UNL     1       1.684  12.793  13.863  1.00  0.00     0.217 C 
HETATM    5  C11 UNL     1       1.878  11.747  12.779  1.00  0.00     0.184 C 
HETATM    6  C18 UNL     1       1.554  10.422  13.443  1.00  0.00     0.184 C 
ENDROOT
BRANCH   5   7
HETATM    7  O2  UNL     1       1.177  12.020  11.643  1.00  0.00    -0.372 OA
BRANCH   7   8
HETATM    8  C12 UNL     1       1.544  13.250  11.150  1.00  0.00     0.182 C 
HETATM    9  C13 UNL     1       0.557  13.585  10.026  1.00  0.00     0.216 C 
HETATM   10  C14 UNL     1       0.869  14.961   9.544  1.00  0.00     0.068 C 
HETATM   11  C15 UNL     1       2.007  15.641  10.244  1.00  0.00     0.187 C 
HETATM   12  C16 UNL     1       3.251  14.807  10.312  1.00  0.00     0.068 C 
HETATM   13  C17 UNL     1       2.949  13.362  10.667  1.00  0.00     0.216 C 
BRANCH   9  14
HETATM   14  N7  UNL     1       0.719  12.640   8.965  1.00  0.00    -0.072 N 
ATOM     15  H73 UNL     1       1.395  11.910   9.195  1.00  0.00     0.274 HD
ATOM     16  H72 UNL     1      -0.100  12.044   8.847  1.00  0.00     0.274 HD
ATOM     17  H71 UNL     1       0.963  13.139   8.110  1.00  0.00     0.274 HD
ENDBRANCH   9  14
BRANCH  11  18
HETATM   18  N8  UNL     1       2.331  16.845   9.461  1.00  0.00    -0.075 N 
ATOM     19  H83 UNL     1       3.324  16.930   9.248  1.00  0.00     0.274 HD
ATOM     20  H82 UNL     1       1.994  16.801   8.499  1.00  0.00     0.274 HD
ATOM     21  H81 UNL     1       1.962  17.643   9.979  1.00  0.00     0.274 HD
ENDBRANCH  11  18
BRANCH  13  22
HETATM   22  N9  UNL     1       3.242  12.584   9.483  1.00  0.00    -0.072 N 
ATOM     23  H93 UNL     1       2.924  13.076   8.648  1.00  0.00     0.274 HD
ATOM     24  H92 UNL     1       4.246  12.571   9.306  1.00  0.00     0.274 HD
ATOM     25  H91 UNL     1       2.871  11.635   9.498  1.00  0.00     0.274 HD
ENDBRANCH  13  22
ENDBRANCH   7   8
ENDBRANCH   5   7
BRANCH   4  26
HETATM   26  N6  UNL     1       0.283  12.911  14.212  1.00  0.00    -0.072 N 
ATOM     27  H63 UNL     1      -0.019  12.107  14.761  1.00  0.00     0.274 HD
ATOM     28  H62 UNL     1       0.146  13.651  14.901  1.00  0.00     0.274 HD
ATOM     29  H61 UNL     1      -0.332  13.049  13.410  1.00  0.00     0.274 HD
ENDBRANCH   4  26
BRANCH   6  30
HETATM   30  O3  UNL     1       1.229   9.497  12.488  1.00  0.00    -0.373 OA
BRANCH  30  31
HETATM   31  C19 UNL     1       0.308   8.549  12.905  1.00  0.00     0.155 C 
HETATM   32  C20 UNL     1      -1.116   8.871  12.607  1.00  0.00     0.061 C 
HETATM   33  C21 UNL     1      -1.339   8.713  11.123  1.00  0.00     0.235 C 
HETATM   34  N10 UNL     1      -1.423   7.291  10.849  1.00  0.00    -0.073 N 
HETATM   35  C22 UNL     1      -0.630   6.525  11.766  1.00  0.00     0.267 C 
ATOM     36 2H10 UNL     1      -2.392   6.971  10.839  1.00  0.00     0.277 HD
ATOM     37 1H10 UNL     1      -1.176   7.084   9.881  1.00  0.00     0.277 HD
HETATM   38  C23 UNL     1       0.629   7.253  12.199  1.00  0.00     0.237 C 
BRANCH  38  39
HETATM   39  N11 UNL     1       1.326   6.337  13.095  1.00  0.00    -0.071 N 
ATOM     40 3H11 UNL     1       1.016   6.443  14.060  1.00  0.00     0.274 HD
ATOM     41 2H11 UNL     1       1.036   5.371  12.947  1.00  0.00     0.274 HD
ATOM     42 1H11 UNL     1       2.336   6.447  13.007  1.00  0.00     0.274 HD
ENDBRANCH  38  39
ENDBRANCH  30  31
ENDBRANCH   6  30
BRANCH   1  43
HETATM   43  O1  UNL     1       2.806   8.823  14.712  1.00  0.00    -0.349 OA
BRANCH  43  44
HETATM   44  C6  UNL     1       4.034   8.245  14.810  1.00  0.00     0.291 C 
HETATM   45  C5  UNL     1       4.230   7.590  16.146  1.00  0.00     0.238 C 
HETATM   46  C4  UNL     1       5.730   7.344  16.266  1.00  0.00     0.040 C 
HETATM   47  C3  UNL     1       6.276   6.690  15.060  1.00  0.00     0.036 C 
HETATM   48  C2  UNL     1       5.534   6.850  13.794  1.00  0.00     0.145 C 
HETATM   49  O4  UNL     1       4.220   7.207  13.880  1.00  0.00    -0.352 OA
BRANCH  45  50
HETATM   50  N4  UNL     1       3.712   8.295  17.266  1.00  0.00    -0.070 N 
ATOM     51  H43 UNL     1       4.412   8.383  18.003  1.00  0.00     0.274 HD
ATOM     52  H42 UNL     1       3.579   9.283  17.051  1.00  0.00     0.274 HD
ATOM     53  H41 UNL     1       2.853   7.875  17.619  1.00  0.00     0.274 HD
ENDBRANCH  45  50
BRANCH  48  54
HETATM   54  C1  UNL     1       6.243   7.799  12.819  1.00  0.00     0.187 C 
BRANCH  54  55
HETATM   55  N3  UNL     1       7.457   7.211  12.321  1.00  0.00    -0.250 N 
ATOM     56  H3  UNL     1       8.344   7.707  12.407  1.00  0.00     0.197 HD
BRANCH  55  57
HETATM   57  N2  UNL     1       7.413   6.107  11.793  1.00  0.00    -0.248 NA
BRANCH  57  58
HETATM   58  N1  UNL     1       7.468   4.932  11.476  1.00  0.00    -0.261 N 
ATOM     59  H12 UNL     1       7.847   4.700  12.394  1.00  0.00     0.193 HD
ATOM     60  H11 UNL     1       7.438   4.014  11.033  1.00  0.00     0.193 HD
ENDBRANCH  57  58
ENDBRANCH  55  57
ENDBRANCH  54  55
ENDBRANCH  48  54
ENDBRANCH  43  44
ENDBRANCH   1  43
BRANCH   2  61
HETATM   61  N5  UNL     1       1.619  10.689  16.345  1.00  0.00    -0.072 N 
ATOM     62  H53 UNL     1       0.962  11.446  16.531  1.00  0.00     0.274 HD
ATOM     63  H52 UNL     1       0.971  10.042  15.896  1.00  0.00     0.274 HD
ATOM     64  H51 UNL     1       2.018  10.304  17.201  1.00  0.00     0.274 HD
ENDBRANCH   2  61
TORSDOF 17
ENDMDL
MODEL 2
REMARK VINA RESULT: -6.254497485      2.061      3.350
REMARK  17 active torsions:
REMARK  status: ('A' for Active; 'I' for Inactive)
REMARK    1  A    between atoms: N1_1  and  N2_4 
REMARK    2  A    between atoms: N2_4  and  N3_5 
REMARK    3  A    between atoms: N3_5  and  C1_7 
REMARK    4  A    between atoms: C1_7  and  C2_8 
REMARK    5  A    between atoms: C5_11  and  N4_12 
REMARK    6  A    between atoms: C6_16  and  O1_17 
REMARK    7  A    between atoms: O1_17  and  C7_18 
REMARK    8  A    between atoms: C8_19  and  N5_20 
REMARK    9  A    between atoms: C10_25  and  N6_26 
REMARK   10  A    between atoms: C11_30  and  O2_31 
REMARK   11  A    between atoms: O2_31  and  C12_32 
REMARK   12  A    between atoms: C13_33  and  N7_34 
REMARK   13  A    between atoms: C15_39  and  N8_40 
REMARK   14  A    between atoms: C17_45  and  N9_46 
REMARK   15  A    between atoms: C18_50  and  O3_51 
REMARK   16  A    between atoms: O3_51  and  C19_52 
REMARK   17  A    between atoms: C23_59  and  N11_60 
ROOT
HETATM    1  C7  UNL     1       1.522  10.791  13.258  1.00  0.00     0.186 C 
HETATM    2  C8  UNL     1       1.390  11.088  14.759  1.00  0.00     0.217 C 
HETATM    3  C9  UNL     1       1.836  12.475  15.111  1.00  0.00     0.071 C 
HETATM    4  C10 UNL     1       1.450  13.557  14.181  1.00  0.00     0.217 C 
HETATM    5  C11 UNL     1       1.635  13.120  12.738  1.00  0.00     0.184 C 
HETATM    6  C18 UNL     1       0.754  11.894  12.579  1.00  0.00     0.184 C 
ENDROOT
BRANCH   5   7
HETATM    7  O2  UNL     1       1.409  14.122  11.843  1.00  0.00    -0.372 OA
BRANCH   7   8
HETATM    8  C12 UNL     1       2.605  14.589  11.352  1.00  0.00     0.182 C 
HETATM    9  C13 UNL     1       2.274  15.782  10.449  1.00  0.00     0.216 C 
HETATM   10  C14 UNL     1       3.563  16.372   9.985  1.00  0.00     0.068 C 
HETATM   11  C15 UNL     1       4.798  15.692  10.494  1.00  0.00     0.187 C 
HETATM   12  C16 UNL     1       4.788  14.206  10.290  1.00  0.00     0.068 C 
HETATM   13  C17 UNL     1       3.440  13.593  10.623  1.00  0.00     0.216 C 
BRANCH   9  14
HETATM   14  N7  UNL     1       1.509  15.323   9.331  1.00  0.00    -0.072 N 
ATOM     15  H73 UNL     1       1.508  14.306   9.253  1.00  0.00     0.274 HD
ATOM     16  H72 UNL     1       0.507  15.456   9.465  1.00  0.00     0.274 HD
ATOM     17  H71 UNL     1       1.852  15.777   8.485  1.00  0.00     0.274 HD
ENDBRANCH   9  14
BRANCH  11  18
HETATM   18  N8  UNL     1       5.930  16.232   9.726  1.00  0.00    -0.075 N 
ATOM     19  H83 UNL     1       5.652  16.641   8.834  1.00  0.00     0.274 HD
ATOM     20  H82 UNL     1       6.328  17.077  10.137  1.00  0.00     0.274 HD
ATOM     21  H81 UNL     1       6.608  15.476   9.627  1.00  0.00     0.274 HD
ENDBRANCH  11  18
BRANCH  13  22
HETATM   22  N9  UNL     1       2.879  13.142   9.368  1.00  0.00    -0.072 N 
ATOM     23  H93 UNL     1       2.811  13.919   8.710  1.00  0.00     0.274 HD
ATOM     24  H92 UNL     1       3.547  12.552   8.873  1.00  0.00     0.274 HD
ATOM     25  H91 UNL     1       1.980  12.669   9.452  1.00  0.00     0.274 HD
ENDBRANCH  13  22
ENDBRANCH   7   8
ENDBRANCH   5   7
BRANCH   4  26
HETATM   26  N6  UNL     1       0.108  14.061  14.392  1.00  0.00    -0.072 N 
ATOM     27  H63 UNL     1      -0.388  13.485  15.072  1.00  0.00     0.274 HD
ATOM     28  H62 UNL     1       0.132  14.945  14.902  1.00  0.00     0.274 HD
ATOM     29  H61 UNL     1      -0.437  14.156  13.536  1.00  0.00     0.274 HD
ENDBRANCH   4  26
BRANCH   6  30
HETATM   30  O3  UNL     1       0.465  11.704  11.256  1.00  0.00    -0.373 OA
BRANCH  30  31
HETATM   31  C19 UNL     1      -0.887  11.763  10.955  1.00  0.00     0.155 C 
HETATM   32  C20 UNL     1      -1.259  12.728   9.883  1.00  0.00     0.061 C 
HETATM   33  C21 UNL     1      -0.794  12.173   8.559  1.00  0.00     0.235 C 
HETATM   34  N10 UNL     1      -1.725  11.127   8.180  1.00  0.00    -0.073 N 
HETATM   35  C22 UNL     1      -2.288  10.475   9.326  1.00  0.00     0.267 C 
ATOM     36 2H10 UNL     1      -2.453  11.485   7.561  1.00  0.00     0.277 HD
ATOM     37 1H10 UNL     1      -1.291  10.456   7.546  1.00  0.00     0.277 HD
HETATM   38  C23 UNL     1      -1.315  10.391  10.488  1.00  0.00     0.237 C 
BRANCH  38  39
HETATM   39  N11 UNL     1      -2.024   9.684  11.547  1.00  0.00    -0.071 N 
ATOM     40 3H11 UNL     1      -1.474   8.911  11.920  1.00  0.00     0.274 HD
ATOM     41 2H11 UNL     1      -2.093  10.246  12.396  1.00  0.00     0.274 HD
ATOM     42 1H11 UNL     1      -2.941   9.375  11.223  1.00  0.00     0.274 HD
ENDBRANCH  38  39
ENDBRANCH  30  31
ENDBRANCH   6  30
BRANCH   1  43
HETATM   43  O1  UNL     1       1.051   9.548  12.956  1.00  0.00    -0.349 OA
BRANCH  43  44
HETATM   44  C6  UNL     1       1.771   8.488  13.416  1.00  0.00     0.291 C 
HETATM   45  C5  UNL     1       1.433   7.228  12.674  1.00  0.00     0.238 C 
HETATM   46  C4  UNL     1       1.987   6.090  13.522  1.00  0.00     0.040 C 
HETATM   47  C3  UNL     1       3.388   6.335  13.919  1.00  0.00     0.036 C 
HETATM   48  C2  UNL     1       3.862   7.733  13.947  1.00  0.00     0.145 C 
HETATM   49  O4  UNL     1       3.154   8.648  13.225  1.00  0.00    -0.352 OA
BRANCH  45  50
HETATM   50  N4  UNL     1       0.060   7.041  12.359  1.00  0.00    -0.070 N 
ATOM     51  H43 UNL     1      -0.286   7.786  11.753  1.00  0.00     0.274 HD
ATOM     52  H42 UNL     1      -0.071   6.248  11.731  1.00  0.00     0.274 HD
ATOM     53  H41 UNL     1      -0.516   6.949  13.196  1.00  0.00     0.274 HD
ENDBRANCH  45  50
BRANCH  48  54
HETATM   54  C1  UNL     1       4.038   8.259  15.378  1.00  0.00     0.187 C 
BRANCH  54  55
HETATM   55  N3  UNL     1       4.860   7.371  16.154  1.00  0.00    -0.250 N 
ATOM     56  H3  UNL     1       4.453   6.550  16.601  1.00  0.00     0.197 HD
BRANCH  55  57
HETATM   57  N2  UNL     1       6.055   7.613  16.273  1.00  0.00    -0.248 NA
BRANCH  57  58
HETATM   58  N1  UNL     1       7.254   7.792  16.157  1.00  0.00    -0.261 N 
ATOM     59  H12 UNL     1       7.084   8.440  15.388  1.00  0.00     0.193 HD
ATOM     60  H11 UNL     1       8.272   7.810  16.214  1.00  0.00     0.193 HD
ENDBRANCH  57  58
ENDBRANCH  55  57
ENDBRANCH  54  55
ENDBRANCH  48  54
ENDBRANCH  43  44
ENDBRANCH   1  43
BRANCH   2  61
HETATM   61  N5  UNL     1       0.045  10.800  15.186  1.00  0.00    -0.072 N 
ATOM     62  H53 UNL     1      -0.506  10.352  14.454  1.00  0.00     0.274 HD
ATOM     63  H52 UNL     1       0.011  10.047  15.874  1.00  0.00     0.274 HD
ATOM     64  H51 UNL     1      -0.392  11.656  15.529  1.00  0.00     0.274 HD
ENDBRANCH   2  61
TORSDOF 17
ENDMDL
MODEL 3
REMARK VINA RESULT: -6.125635884      2.056      2.805
REMARK  17 active torsions:
REMARK  status: ('A' for Active; 'I' for Inactive)
REMARK    1  A    between atoms: N1_1  and  N2_4 
REMARK    2  A    between atoms: N2_4  and  N3_5 
REMARK    3  A    between atoms: N3_5  and  C1_7 
REMARK    4  A    between atoms: C1_7  and  C2_8 
REMARK    5  A    between atoms: C5_11  and  N4_12 
REMARK    6  A    between atoms: C6_16  and  O1_17 
REMARK    7  A    between atoms: O1_17  and  C7_18 
REMARK    8  A    between atoms: C8_19  and  N5_20 
REMARK    9  A    between atoms: C10_25  and  N6_26 
REMARK   10  A    between atoms: C11_30  and  O2_31 
REMARK   11  A    between atoms: O2_31  and  C12_32 
REMARK   12  A    between atoms: C13_33  and  N7_34 
REMARK   13  A    between atoms: C15_39  and  N8_40 
REMARK   14  A    between atoms: C17_45  and  N9_46 
REMARK   15  A    between atoms: C18_50  and  O3_51 
REMARK   16  A    between atoms: O3_51  and  C19_52 
REMARK   17  A    between atoms: C23_59  and  N11_60 
ROOT
HETATM    1  C7  UNL     1       2.626  10.553  13.616  1.00  0.00     0.186 C 
HETATM    2  C8  UNL     1       2.794  10.973  15.084  1.00  0.00     0.217 C 
HETATM    3  C9  UNL     1       3.192  12.411  15.227  1.00  0.00     0.071 C 
HETATM    4  C10 UNL     1       2.529  13.380  14.327  1.00  0.00     0.217 C 
HETATM    5  C11 UNL     1       2.436  12.828  12.915  1.00  0.00     0.184 C 
HETATM    6  C18 UNL     1       1.644  11.540  13.044  1.00  0.00     0.184 C 
ENDROOT
BRANCH   5   7
HETATM    7  O2  UNL     1       1.944  13.731  12.021  1.00  0.00    -0.372 OA
BRANCH   7   8
HETATM    8  C12 UNL     1       2.978  14.433  11.448  1.00  0.00     0.182 C 
HETATM    9  C13 UNL     1       2.340  15.539  10.599  1.00  0.00     0.216 C 
HETATM   10  C14 UNL     1       3.442  16.380  10.048  1.00  0.00     0.068 C 
HETATM   11  C15 UNL     1       4.826  15.962  10.445  1.00  0.00     0.187 C 
HETATM   12  C16 UNL     1       5.100  14.506  10.211  1.00  0.00     0.068 C 
HETATM   13  C17 UNL     1       3.935  13.631  10.636  1.00  0.00     0.216 C 
BRANCH   9  14
HETATM   14  N7  UNL     1       1.596  14.938   9.534  1.00  0.00    -0.072 N 
ATOM     15  H73 UNL     1       2.194  14.636   8.765  1.00  0.00     0.274 HD
ATOM     16  H72 UNL     1       1.220  14.025   9.790  1.00  0.00     0.274 HD
ATOM     17  H71 UNL     1       0.870  15.586   9.230  1.00  0.00     0.274 HD
ENDBRANCH   9  14
BRANCH  11  18
HETATM   18  N8  UNL     1       5.760  16.724   9.602  1.00  0.00    -0.075 N 
ATOM     19  H83 UNL     1       5.984  16.255   8.725  1.00  0.00     0.274 HD
ATOM     20  H82 UNL     1       5.343  17.563   9.198  1.00  0.00     0.274 HD
ATOM     21  H81 UNL     1       6.582  16.920  10.173  1.00  0.00     0.274 HD
ENDBRANCH  11  18
BRANCH  13  22
HETATM   22  N9  UNL     1       3.377  13.081   9.419  1.00  0.00    -0.072 N 
ATOM     23  H93 UNL     1       2.364  13.200   9.408  1.00  0.00     0.274 HD
ATOM     24  H92 UNL     1       3.630  13.662   8.619  1.00  0.00     0.274 HD
ATOM     25  H91 UNL     1       3.622  12.108   9.243  1.00  0.00     0.274 HD
ENDBRANCH  13  22
ENDBRANCH   7   8
ENDBRANCH   5   7
BRANCH   4  26
HETATM   26  N6  UNL     1       1.228  13.816  14.791  1.00  0.00    -0.072 N 
ATOM     27  H63 UNL     1       0.525  13.684  14.064  1.00  0.00     0.274 HD
ATOM     28  H62 UNL     1       0.866  13.176  15.498  1.00  0.00     0.274 HD
ATOM     29  H61 UNL     1       1.212  14.776  15.135  1.00  0.00     0.274 HD
ENDBRANCH   4  26
BRANCH   6  30
HETATM   30  O3  UNL     1       1.094  11.216  11.834  1.00  0.00    -0.373 OA
BRANCH  30  31
HETATM   31  C19 UNL     1      -0.292  11.201  11.825  1.00  0.00     0.155 C 
HETATM   32  C20 UNL     1      -0.933  12.201  10.925  1.00  0.00     0.061 C 
HETATM   33  C21 UNL     1      -0.729  11.757   9.498  1.00  0.00     0.235 C 
HETATM   34  N10 UNL     1      -1.662  10.675   9.245  1.00  0.00    -0.073 N 
HETATM   35  C22 UNL     1      -1.934   9.920  10.434  1.00  0.00     0.267 C 
ATOM     36 2H10 UNL     1      -2.522  11.019   8.818  1.00  0.00     0.277 HD
ATOM     37 1H10 UNL     1      -1.336  10.073   8.489  1.00  0.00     0.277 HD
HETATM   38  C23 UNL     1      -0.735   9.834  11.360  1.00  0.00     0.237 C 
BRANCH  38  39
HETATM   39  N11 UNL     1      -1.166   9.020  12.490  1.00  0.00    -0.071 N 
ATOM     40 3H11 UNL     1      -1.928   9.462  13.005  1.00  0.00     0.274 HD
ATOM     41 2H11 UNL     1      -1.656   8.179  12.184  1.00  0.00     0.274 HD
ATOM     42 1H11 UNL     1      -0.377   8.799  13.097  1.00  0.00     0.274 HD
ENDBRANCH  38  39
ENDBRANCH  30  31
ENDBRANCH   6  30
BRANCH   1  43
HETATM   43  O1  UNL     1       2.203   9.261  13.517  1.00  0.00    -0.349 OA
BRANCH  43  44
HETATM   44  C6  UNL     1       3.097   8.292  13.856  1.00  0.00     0.291 C 
HETATM   45  C5  UNL     1       2.718   6.962  13.273  1.00  0.00     0.238 C 
HETATM   46  C4  UNL     1       3.544   5.930  14.031  1.00  0.00     0.040 C 
HETATM   47  C3  UNL     1       4.970   6.306  14.089  1.00  0.00     0.036 C 
HETATM   48  C2  UNL     1       5.313   7.735  13.939  1.00  0.00     0.145 C 
HETATM   49  O4  UNL     1       4.385   8.542  13.350  1.00  0.00    -0.352 OA
BRANCH  45  50
HETATM   50  N4  UNL     1       1.331   6.652  13.286  1.00  0.00    -0.070 N 
ATOM     51  H43 UNL     1       1.067   6.171  14.147  1.00  0.00     0.274 HD
ATOM     52  H42 UNL     1       0.764   7.493  13.391  1.00  0.00     0.274 HD
ATOM     53  H41 UNL     1       1.050   6.117  12.464  1.00  0.00     0.274 HD
ENDBRANCH  45  50
BRANCH  48  54
HETATM   54  C1  UNL     1       5.752   8.370  15.265  1.00  0.00     0.187 C 
BRANCH  54  55
HETATM   55  N3  UNL     1       6.229   7.370  16.181  1.00  0.00    -0.250 N 
ATOM     56  H3  UNL     1       5.635   6.583  16.441  1.00  0.00     0.197 HD
BRANCH  55  57
HETATM   57  N2  UNL     1       7.358   7.474  16.645  1.00  0.00    -0.248 NA
BRANCH  57  58
HETATM   58  N1  UNL     1       8.376   7.504  17.314  1.00  0.00    -0.261 N 
ATOM     59  H12 UNL     1       7.837   7.270  18.147  1.00  0.00     0.193 HD
ATOM     60  H11 UNL     1       9.318   7.576  17.697  1.00  0.00     0.193 HD
ENDBRANCH  57  58
ENDBRANCH  55  57
ENDBRANCH  54  55
ENDBRANCH  48  54
ENDBRANCH  43  44
ENDBRANCH   1  43
BRANCH   2  61
HETATM   61  N5  UNL     1       1.599  10.641  15.816  1.00  0.00    -0.072 N 
ATOM     62  H53 UNL     1       1.503  11.192  16.668  1.00  0.00     0.274 HD
ATOM     63  H52 UNL     1       0.754  10.958  15.342  1.00  0.00     0.274 HD
ATOM     64  H51 UNL     1       1.584   9.638  16.003  1.00  0.00     0.274 HD
ENDBRANCH   2  61
TORSDOF 17
ENDMDL
MODEL 4
REMARK VINA RESULT: -6.052409372      2.891      5.992
REMARK  17 active torsions:
REMARK  status: ('A' for Active; 'I' for Inactive)
REMARK    1  A    between atoms: N1_1  and  N2_4 
REMARK    2  A    between atoms: N2_4  and  N3_5 
REMARK    3  A    between atoms: N3_5  and  C1_7 
REMARK    4  A    between atoms: C1_7  and  C2_8 
REMARK    5  A    between atoms: C5_11  and  N4_12 
REMARK    6  A    between atoms: C6_16  and  O1_17 
REMARK    7  A    between atoms: O1_17  and  C7_18 
REMARK    8  A    between atoms: C8_19  and  N5_20 
REMARK    9  A    between atoms: C10_25  and  N6_26 
REMARK   10  A    between atoms: C11_30  and  O2_31 
REMARK   11  A    between atoms: O2_31  and  C12_32 
REMARK   12  A    between atoms: C13_33  and  N7_34 
REMARK   13  A    between atoms: C15_39  and  N8_40 
REMARK   14  A    between atoms: C17_45  and  N9_46 
REMARK   15  A    between atoms: C18_50  and  O3_51 
REMARK   16  A    between atoms: O3_51  and  C19_52 
REMARK   17  A    between atoms: C23_59  and  N11_60 
ROOT
HETATM    1  C7  UNL     1      -1.578  10.047  13.655  1.00  0.00     0.186 C 
HETATM    2  C8  UNL     1      -2.519  10.498  14.781  1.00  0.00     0.217 C 
HETATM    3  C9  UNL     1      -1.788  11.158  15.910  1.00  0.00     0.071 C 
HETATM    4  C10 UNL     1      -0.692  12.082  15.547  1.00  0.00     0.217 C 
HETATM    5  C11 UNL     1       0.152  11.503  14.424  1.00  0.00     0.184 C 
HETATM    6  C18 UNL     1      -0.813  11.287  13.273  1.00  0.00     0.184 C 
ENDROOT
BRANCH   5   7
HETATM    7  O2  UNL     1       1.247  12.260  14.135  1.00  0.00    -0.372 OA
BRANCH   7   8
HETATM    8  C12 UNL     1       2.372  11.683  14.677  1.00  0.00     0.182 C 
HETATM    9  C13 UNL     1       3.576  12.349  14.002  1.00  0.00     0.216 C 
HETATM   10  C14 UNL     1       4.810  11.814  14.647  1.00  0.00     0.068 C 
HETATM   11  C15 UNL     1       4.579  10.814  15.740  1.00  0.00     0.187 C 
HETATM   12  C16 UNL     1       3.659   9.698  15.344  1.00  0.00     0.068 C 
HETATM   13  C17 UNL     1       2.458  10.199  14.563  1.00  0.00     0.216 C 
BRANCH   9  14
HETATM   14  N7  UNL     1       3.566  12.028  12.608  1.00  0.00    -0.072 N 
ATOM     15  H73 UNL     1       2.631  11.801  12.269  1.00  0.00     0.274 HD
ATOM     16  H72 UNL     1       3.738  12.844  12.021  1.00  0.00     0.274 HD
ATOM     17  H71 UNL     1       4.235  11.277  12.436  1.00  0.00     0.274 HD
ENDBRANCH   9  14
BRANCH  11  18
HETATM   18  N8  UNL     1       5.886  10.214  16.052  1.00  0.00    -0.075 N 
ATOM     19  H83 UNL     1       6.595  10.903  16.301  1.00  0.00     0.274 HD
ATOM     20  H82 UNL     1       5.891   9.699  16.932  1.00  0.00     0.274 HD
ATOM     21  H81 UNL     1       6.147   9.641  15.250  1.00  0.00     0.274 HD
ENDBRANCH  11  18
BRANCH  13  22
HETATM   22  N9  UNL     1       2.621   9.709  13.211  1.00  0.00    -0.072 N 
ATOM     23  H93 UNL     1       1.760   9.267  12.887  1.00  0.00     0.274 HD
ATOM     24  H92 UNL     1       2.675  10.488  12.556  1.00  0.00     0.274 HD
ATOM     25  H91 UNL     1       3.413   9.080  13.082  1.00  0.00     0.274 HD
ENDBRANCH  13  22
ENDBRANCH   7   8
ENDBRANCH   5   7
BRANCH   4  26
HETATM   26  N6  UNL     1      -1.139  13.418  15.211  1.00  0.00    -0.072 N 
ATOM     27  H63 UNL     1      -1.786  13.392  14.423  1.00  0.00     0.274 HD
ATOM     28  H62 UNL     1      -1.763  13.780  15.933  1.00  0.00     0.274 HD
ATOM     29  H61 UNL     1      -0.380  14.075  15.031  1.00  0.00     0.274 HD
ENDBRANCH   4  26
BRANCH   6  30
HETATM   30  O3  UNL     1      -0.119  11.232  12.096  1.00  0.00    -0.373 OA
BRANCH  30  31
HETATM   31  C19 UNL     1      -0.693  11.957  11.064  1.00  0.00     0.155 C 
HETATM   32  C20 UNL     1       0.036  13.197  10.674  1.00  0.00     0.061 C 
HETATM   33  C21 UNL     1       1.297  12.799   9.948  1.00  0.00     0.235 C 
HETATM   34  N10 UNL     1       0.914  12.396   8.608  1.00  0.00    -0.073 N 
HETATM   35  C22 UNL     1      -0.403  11.832   8.579  1.00  0.00     0.267 C 
ATOM     36 2H10 UNL     1       1.002  13.170   7.949  1.00  0.00     0.277 HD
ATOM     37 1H10 UNL     1       1.600  11.761   8.201  1.00  0.00     0.277 HD
HETATM   38  C23 UNL     1      -0.740  11.066   9.845  1.00  0.00     0.237 C 
BRANCH  38  39
HETATM   39  N11 UNL     1      -2.084  10.540   9.642  1.00  0.00    -0.071 N 
ATOM     40 3H11 UNL     1      -2.160  10.023   8.766  1.00  0.00     0.274 HD
ATOM     41 2H11 UNL     1      -2.293   9.779  10.288  1.00  0.00     0.274 HD
ATOM     42 1H11 UNL     1      -2.777  11.287   9.702  1.00  0.00     0.274 HD
ENDBRANCH  38  39
ENDBRANCH  30  31
ENDBRANCH   6  30
BRANCH   1  43
HETATM   43  O1  UNL     1      -2.275   9.508  12.614  1.00  0.00    -0.349 OA
BRANCH  43  44
HETATM   44  C6  UNL     1      -2.087   8.183  12.367  1.00  0.00     0.291 C 
HETATM   45  C5  UNL     1      -3.345   7.530  11.875  1.00  0.00     0.238 C 
HETATM   46  C4  UNL     1      -3.114   6.030  12.020  1.00  0.00     0.040 C 
HETATM   47  C3  UNL     1      -1.819   5.618  11.442  1.00  0.00     0.036 C 
HETATM   48  C2  UNL     1      -0.760   6.641  11.325  1.00  0.00     0.145 C 
HETATM   49  O4  UNL     1      -1.148   7.948  11.348  1.00  0.00    -0.352 OA
BRANCH  45  50
HETATM   50  N4  UNL     1      -4.549   7.948  12.504  1.00  0.00    -0.070 N 
ATOM     51  H43 UNL     1      -5.327   7.958  11.844  1.00  0.00     0.274 HD
ATOM     52  H42 UNL     1      -4.895   7.238  13.149  1.00  0.00     0.274 HD
ATOM     53  H41 UNL     1      -4.446   8.850  12.967  1.00  0.00     0.274 HD
ENDBRANCH  45  50
BRANCH  48  54
HETATM   54  C1  UNL     1       0.362   6.438  12.352  1.00  0.00     0.187 C 
BRANCH  54  55
HETATM   55  N3  UNL     1       0.703   5.047  12.472  1.00  0.00    -0.250 N 
ATOM     56  H3  UNL     1       0.131   4.334  12.018  1.00  0.00     0.197 HD
BRANCH  55  57
HETATM   57  N2  UNL     1       1.689   4.727  13.125  1.00  0.00    -0.248 NA
BRANCH  57  58
HETATM   58  N1  UNL     1       2.778   4.589  13.654  1.00  0.00    -0.261 N 
ATOM     59  H12 UNL     1       3.208   5.143  12.914  1.00  0.00     0.193 HD
ATOM     60  H11 UNL     1       3.586   4.365  14.234  1.00  0.00     0.193 HD
ENDBRANCH  57  58
ENDBRANCH  55  57
ENDBRANCH  54  55
ENDBRANCH  48  54
ENDBRANCH  43  44
ENDBRANCH   1  43
BRANCH   2  61
HETATM   61  N5  UNL     1      -3.567  11.318  14.229  1.00  0.00    -0.072 N 
ATOM     62  H53 UNL     1      -3.546  12.269  14.596  1.00  0.00     0.274 HD
ATOM     63  H52 UNL     1      -3.408  11.538  13.246  1.00  0.00     0.274 HD
ATOM     64  H51 UNL     1      -4.468  10.865  14.383  1.00  0.00     0.274 HD
ENDBRANCH   2  61
TORSDOF 17
ENDMDL
MODEL 5
REMARK VINA RESULT: -6.003604915      2.454      4.202
REMARK  17 active torsions:
REMARK  status: ('A' for Active; 'I' for Inactive)
REMARK    1  A    between atoms: N1_1  and  N2_4 
REMARK    2  A    between atoms: N2_4  and  N3_5 
REMARK    3  A    between atoms: N3_5  and  C1_7 
REMARK    4  A    between atoms: C1_7  and  C2_8 
REMARK    5  A    between atoms: C5_11  and  N4_12 
REMARK    6  A    between atoms: C6_16  and  O1_17 
REMARK    7  A    between atoms: O1_17  and  C7_18 
REMARK    8  A    between atoms: C8_19  and  N5_20 
REMARK    9  A    between atoms: C10_25  and  N6_26 
REMARK   10  A    between atoms: C11_30  and  O2_31 
REMARK   11  A    between atoms: O2_31  and  C12_32 
REMARK   12  A    between atoms: C13_33  and  N7_34 
REMARK   13  A    between atoms: C15_39  and  N8_40 
REMARK   14  A    between atoms: C17_45  and  N9_46 
REMARK   15  A    between atoms: C18_50  and  O3_51 
REMARK   16  A    between atoms: O3_51  and  C19_52 
REMARK   17  A    between atoms: C23_59  and  N11_60 
ROOT
HETATM    1  C7  UNL     1       2.374  10.749  12.826  1.00  0.00     0.186 C 
HETATM    2  C8  UNL     1       3.778  11.341  12.635  1.00  0.00     0.217 C 
HETATM    3  C9  UNL     1       3.920  12.073  11.335  1.00  0.00     0.071 C 
HETATM    4  C10 UNL     1       2.778  12.914  10.914  1.00  0.00     0.217 C 
HETATM    5  C11 UNL     1       1.461  12.199  11.162  1.00  0.00     0.184 C 
HETATM    6  C18 UNL     1       1.438  11.915  12.653  1.00  0.00     0.184 C 
ENDROOT
BRANCH   5   7
HETATM    7  O2  UNL     1       0.385  12.880  10.679  1.00  0.00    -0.372 OA
BRANCH   7   8
HETATM    8  C12 UNL     1       0.297  12.712   9.317  1.00  0.00     0.182 C 
HETATM    9  C13 UNL     1       0.134  14.111   8.712  1.00  0.00     0.216 C 
HETATM   10  C14 UNL     1       0.141  13.966   7.228  1.00  0.00     0.068 C 
HETATM   11  C15 UNL     1       0.302  12.564   6.722  1.00  0.00     0.187 C 
HETATM   12  C16 UNL     1      -0.652  11.591   7.347  1.00  0.00     0.068 C 
HETATM   13  C17 UNL     1      -0.785  11.804   8.844  1.00  0.00     0.216 C 
BRANCH   9  14
HETATM   14  N7  UNL     1      -1.109  14.667   9.150  1.00  0.00    -0.072 N 
ATOM     15  H73 UNL     1      -1.414  14.280  10.043  1.00  0.00     0.274 HD
ATOM     16  H72 UNL     1      -1.018  15.641   9.439  1.00  0.00     0.274 HD
ATOM     17  H71 UNL     1      -1.805  14.543   8.415  1.00  0.00     0.274 HD
ENDBRANCH   9  14
BRANCH  11  18
HETATM   18  N8  UNL     1       0.013  12.595   5.280  1.00  0.00    -0.075 N 
ATOM     19  H83 UNL     1      -0.843  13.101   5.052  1.00  0.00     0.274 HD
ATOM     20  H82 UNL     1       0.657  13.187   4.754  1.00  0.00     0.274 HD
ATOM     21  H81 UNL     1       0.004  11.627   4.959  1.00  0.00     0.274 HD
ENDBRANCH  11  18
BRANCH  13  22
HETATM   22  N9  UNL     1      -2.126  12.302   9.064  1.00  0.00    -0.072 N 
ATOM     23  H93 UNL     1      -2.122  13.030   9.779  1.00  0.00     0.274 HD
ATOM     24  H92 UNL     1      -2.438  12.848   8.261  1.00  0.00     0.274 HD
ATOM     25  H91 UNL     1      -2.812  11.584   9.293  1.00  0.00     0.274 HD
ENDBRANCH  13  22
ENDBRANCH   7   8
ENDBRANCH   5   7
BRANCH   4  26
HETATM   26  N6  UNL     1       2.765  14.230  11.519  1.00  0.00    -0.072 N 
ATOM     27  H63 UNL     1       2.346  14.912  10.887  1.00  0.00     0.274 HD
ATOM     28  H62 UNL     1       2.090  14.268  12.283  1.00  0.00     0.274 HD
ATOM     29  H61 UNL     1       3.681  14.549  11.833  1.00  0.00     0.274 HD
ENDBRANCH   4  26
BRANCH   6  30
HETATM   30  O3  UNL     1       0.148  11.723  13.064  1.00  0.00    -0.373 OA
BRANCH  30  31
HETATM   31  C19 UNL     1      -0.159  12.324  14.274  1.00  0.00     0.155 C 
HETATM   32  C20 UNL     1      -1.119  13.461  14.195  1.00  0.00     0.061 C 
HETATM   33  C21 UNL     1      -2.492  12.905  13.906  1.00  0.00     0.235 C 
HETATM   34  N10 UNL     1      -2.997  12.339  15.142  1.00  0.00    -0.073 N 
HETATM   35  C22 UNL     1      -1.937  11.841  15.970  1.00  0.00     0.267 C 
ATOM     36 2H10 UNL     1      -3.579  13.008  15.646  1.00  0.00     0.277 HD
ATOM     37 1H10 UNL     1      -3.697  11.620  14.963  1.00  0.00     0.277 HD
HETATM   38  C23 UNL     1      -0.782  11.276  15.165  1.00  0.00     0.237 C 
BRANCH  38  39
HETATM   39  N11 UNL     1       0.183  10.793  16.145  1.00  0.00    -0.071 N 
ATOM     40 3H11 UNL     1       0.781  10.062  15.759  1.00  0.00     0.274 HD
ATOM     41 2H11 UNL     1       0.901  11.489  16.344  1.00  0.00     0.274 HD
ATOM     42 1H11 UNL     1      -0.290  10.484  16.995  1.00  0.00     0.274 HD
ENDBRANCH  38  39
ENDBRANCH  30  31
ENDBRANCH   6  30
BRANCH   1  43
HETATM   43  O1  UNL     1       2.254  10.144  14.042  1.00  0.00    -0.349 OA
BRANCH  43  44
HETATM   44  C6  UNL     1       2.453   8.798  14.083  1.00  0.00     0.291 C 
HETATM   45  C5  UNL     1       1.714   8.098  12.980  1.00  0.00     0.238 C 
HETATM   46  C4  UNL     1       1.695   6.624  13.369  1.00  0.00     0.040 C 
HETATM   47  C3  UNL     1       3.037   6.142  13.752  1.00  0.00     0.036 C 
HETATM   48  C2  UNL     1       4.019   7.139  14.222  1.00  0.00     0.145 C 
HETATM   49  O4  UNL     1       3.798   8.442  13.886  1.00  0.00    -0.352 OA
BRANCH  45  50
HETATM   50  N4  UNL     1       0.413   8.592  12.692  1.00  0.00    -0.070 N 
ATOM     51  H43 UNL     1       0.269   9.516  13.101  1.00  0.00     0.274 HD
ATOM     52  H42 UNL     1       0.320   8.836  11.706  1.00  0.00     0.274 HD
ATOM     53  H41 UNL     1      -0.317   7.942  12.983  1.00  0.00     0.274 HD
ENDBRANCH  45  50
BRANCH  48  54
HETATM   54  C1  UNL     1       4.258   7.052  15.736  1.00  0.00     0.187 C 
BRANCH  54  55
HETATM   55  N3  UNL     1       5.596   7.458  16.068  1.00  0.00    -0.250 N 
ATOM     56  H3  UNL     1       6.309   6.761  16.282  1.00  0.00     0.197 HD
BRANCH  55  57
HETATM   57  N2  UNL     1       5.871   8.652  16.091  1.00  0.00    -0.248 NA
BRANCH  57  58
HETATM   58  N1  UNL     1       6.004   9.850  15.916  1.00  0.00    -0.261 N 
ATOM     59  H12 UNL     1       4.995   9.946  15.800  1.00  0.00     0.193 HD
ATOM     60  H11 UNL     1       6.313  10.814  15.795  1.00  0.00     0.193 HD
ENDBRANCH  57  58
ENDBRANCH  55  57
ENDBRANCH  54  55
ENDBRANCH  48  54
ENDBRANCH  43  44
ENDBRANCH   1  43
BRANCH   2  61
HETATM   61  N5  UNL     1       4.117  12.148  13.779  1.00  0.00    -0.072 N 
ATOM     62  H53 UNL     1       3.833  11.712  14.656  1.00  0.00     0.274 HD
ATOM     63  H52 UNL     1       5.123  12.174  13.949  1.00  0.00     0.274 HD
ATOM     64  H51 UNL     1       3.721  13.081  13.665  1.00  0.00     0.274 HD
ENDBRANCH   2  61
TORSDOF 17
ENDMDL
