MODEL 1
REMARK VINA RESULT: -7.347174319      0.000      0.000
REMARK  12 active torsions:
REMARK  status: ('A' for Active; 'I' for Inactive)
REMARK       I    between atoms: N2_4  and  C3_6 
REMARK       I    between atoms: C3_6  and  N3_7 
REMARK       I    between atoms: C3_6  and  N4_11 
REMARK    1  A    between atoms: C6_21  and  C7_22 
REMARK    2  A    between atoms: C8_23  and  C9_24 
REMARK    3  A    between atoms: N7_26  and  C11_27 
REMARK    4  A    between atoms: C13_33  and  N10_34 
REMARK    5  A    between atoms: N10_34  and  C14_36 
REMARK    6  A    between atoms: C14_36  and  C15_37 
REMARK    7  A    between atoms: C15_37  and  C16_38 
REMARK    8  A    between atoms: C16_38  and  C17_39 
REMARK    9  A    between atoms: C17_39  and  N11_41 
REMARK   10  A    between atoms: C17_39  and  C19_45 
REMARK   11  A    between atoms: C20_48  and  C21_49 
REMARK   12  A    between atoms: C21_49  and  O3_50 
ROOT
HETATM    1  C9  UNL     1      -3.566   7.687   9.601  1.00  0.00     0.120 A 
HETATM    2  C10 UNL     1      -3.408   8.603   8.587  1.00  0.00     0.160 A 
HETATM    3  N7  UNL     1      -4.632   8.865   8.061  1.00  0.00    -0.233 N 
HETATM    4  N12 UNL     1      -5.525   8.151   8.713  1.00  0.00    -0.234 N 
ATOM      5  H12 UNL     1      -6.530   8.145   8.539  1.00  0.00     0.209 HD
HETATM    6  N13 UNL     1      -4.885   7.438   9.644  1.00  0.00    -0.276 N 
ATOM      7  H13 UNL     1      -5.335   6.795  10.296  1.00  0.00     0.189 HD
ENDROOT
BRANCH   1   8
HETATM    8  C8  UNL     1      -2.473   7.138  10.353  1.00  0.00    -0.037 C 
HETATM    9  C7  UNL     1      -1.524   6.719  10.976  1.00  0.00    -0.023 C 
BRANCH   9  10
HETATM   10  C6  UNL     1      -0.366   6.276  11.708  1.00  0.00     0.163 A 
HETATM   11  N6  UNL     1      -0.147   4.936  11.881  1.00  0.00    -0.343 N 
HETATM   12  C5  UNL     1       0.873   4.461  12.590  1.00  0.00     0.124 A 
ATOM     13  H6  UNL     1      -0.793   4.275  11.450  1.00  0.00     0.167 HD
HETATM   14  C4  UNL     1       1.766   5.350  13.189  1.00  0.00     0.109 A 
HETATM   15  N5  UNL     1       2.837   5.193  13.955  1.00  0.00    -0.186 N 
HETATM   16  C22 UNL     1       1.555   6.669  13.018  1.00  0.00     0.154 A 
HETATM   17  C2  UNL     1       3.359   6.438  14.313  1.00  0.00     0.685 A 
ATOM     18  H5  UNL     1       3.223   4.294  14.241  1.00  0.00     0.184 HD
HETATM   19  N1  UNL     1       2.538   7.317  13.711  1.00  0.00    -0.170 N 
HETATM   20  N2  UNL     1       4.343   6.544  15.053  1.00  0.00    -0.173 N 
HETATM   21  C1  UNL     1       2.617   8.773  13.721  1.00  0.00     0.177 C 
HETATM   22  C3  UNL     1       5.147   7.444  15.671  1.00  0.00     0.494 C 
ATOM     23  H2  UNL     1       4.673   5.608  15.286  1.00  0.00     0.181 HD
HETATM   24  N3  UNL     1       4.359   8.449  16.421  1.00  0.00    -0.032 N 
HETATM   25  N4  UNL     1       6.153   8.125  14.863  1.00  0.00    -0.032 N 
ATOM     26  H33 UNL     1       3.673   8.909  15.822  1.00  0.00     0.278 HD
ATOM     27  H32 UNL     1       3.719   8.005  17.081  1.00  0.00     0.278 HD
ATOM     28  H31 UNL     1       4.963   9.126  16.886  1.00  0.00     0.278 HD
ATOM     29  H43 UNL     1       6.729   7.430  14.389  1.00  0.00     0.278 HD
ATOM     30  H42 UNL     1       5.698   8.573  14.067  1.00  0.00     0.278 HD
ATOM     31  H41 UNL     1       6.758   8.803  15.327  1.00  0.00     0.278 HD
HETATM   32  N14 UNL     1       0.496   7.107  12.283  1.00  0.00    -0.319 N 
ATOM     33  H14 UNL     1       0.360   8.112  12.170  1.00  0.00     0.169 HD
ENDBRANCH   9  10
ENDBRANCH   1   8
BRANCH   3  34
HETATM   34  C11 UNL     1      -4.787   9.751   6.968  1.00  0.00     0.141 A 
HETATM   35  N8  UNL     1      -5.195   9.264   5.788  1.00  0.00    -0.336 N 
HETATM   36  C12 UNL     1      -5.348  10.082   4.707  1.00  0.00     0.183 A 
ATOM     37  H8  UNL     1      -5.395   8.267   5.696  1.00  0.00     0.168 HD
HETATM   38  N9  UNL     1      -5.092  11.401   4.790  1.00  0.00    -0.338 N 
HETATM   39  C13 UNL     1      -4.682  11.963   5.931  1.00  0.00     0.114 A 
ATOM     40  H9  UNL     1      -5.215  11.984   3.963  1.00  0.00     0.168 HD
HETATM   41  C20 UNL     1      -4.531  11.100   7.037  1.00  0.00     0.055 A 
BRANCH  39  42
HETATM   42  N10 UNL     1      -4.433  13.174   6.084  1.00  0.00    -0.376 N 
ATOM     43  H10 UNL     1      -4.894  13.639   6.866  1.00  0.00     0.161 HD
BRANCH  42  44
HETATM   44  C14 UNL     1      -3.568  13.985   5.278  1.00  0.00     0.121 C 
BRANCH  44  45
HETATM   45  C15 UNL     1      -2.175  13.492   5.489  1.00  0.00     0.023 C 
BRANCH  45  46
HETATM   46  C16 UNL     1      -1.480  13.828   6.732  1.00  0.00     0.051 C 
BRANCH  46  47
HETATM   47  C17 UNL     1      -0.038  13.542   6.908  1.00  0.00     0.206 C 
HETATM   48  C18 UNL     1       0.273  13.362   8.371  1.00  0.00     0.058 C 
BRANCH  47  49
HETATM   49  N11 UNL     1       0.578  14.931   6.608  1.00  0.00    -0.061 N 
ATOM     50 3H11 UNL     1      -0.046  15.598   6.153  1.00  0.00     0.275 HD
ATOM     51 2H11 UNL     1       0.756  15.517   7.424  1.00  0.00     0.275 HD
ATOM     52 1H11 UNL     1       1.403  14.666   6.069  1.00  0.00     0.275 HD
ENDBRANCH  47  49
BRANCH  47  53
HETATM   53  C19 UNL     1       0.627  12.614   6.015  1.00  0.00     0.210 C 
HETATM   54  O1  UNL     1       0.304  11.374   6.116  1.00  0.00    -0.646 OA
HETATM   55  O2  UNL     1       1.561  12.894   5.057  1.00  0.00    -0.646 OA
ENDBRANCH  47  53
ENDBRANCH  46  47
ENDBRANCH  45  46
ENDBRANCH  44  45
ENDBRANCH  42  44
ENDBRANCH  39  42
BRANCH  41  56
HETATM   56  C21 UNL     1      -4.068  11.663   8.336  1.00  0.00     0.210 C 
BRANCH  56  57
HETATM   57  O3  UNL     1      -5.076  12.491   8.889  1.00  0.00    -0.396 OA
ATOM     58  H3  UNL     1      -5.848  12.474   8.337  1.00  0.00     0.209 HD
ENDBRANCH  56  57
ENDBRANCH  41  56
ENDBRANCH   3  34
TORSDOF 12
ENDMDL
MODEL 2
REMARK VINA RESULT: -7.338279776      1.917      3.114
REMARK  12 active torsions:
REMARK  status: ('A' for Active; 'I' for Inactive)
REMARK       I    between atoms: N2_4  and  C3_6 
REMARK       I    between atoms: C3_6  and  N3_7 
REMARK       I    between atoms: C3_6  and  N4_11 
REMARK    1  A    between atoms: C6_21  and  C7_22 
REMARK    2  A    between atoms: C8_23  and  C9_24 
REMARK    3  A    between atoms: N7_26  and  C11_27 
REMARK    4  A    between atoms: C13_33  and  N10_34 
REMARK    5  A    between atoms: N10_34  and  C14_36 
REMARK    6  A    between atoms: C14_36  and  C15_37 
REMARK    7  A    between atoms: C15_37  and  C16_38 
REMARK    8  A    between atoms: C16_38  and  C17_39 
REMARK    9  A    between atoms: C17_39  and  N11_41 
REMARK   10  A    between atoms: C17_39  and  C19_45 
REMARK   11  A    between atoms: C20_48  and  C21_49 
REMARK   12  A    between atoms: C21_49  and  O3_50 
ROOT
HETATM    1  C9  UNL     1      -2.151   6.013  10.566  1.00  0.00     0.120 A 
HETATM    2  C10 UNL     1      -3.087   7.013  10.436  1.00  0.00     0.160 A 
HETATM    3  N7  UNL     1      -4.030   6.596   9.554  1.00  0.00    -0.233 N 
HETATM    4  N12 UNL     1      -3.710   5.386   9.146  1.00  0.00    -0.234 N 
ATOM      5  H12 UNL     1      -4.236   4.818   8.481  1.00  0.00     0.209 HD
HETATM    6  N13 UNL     1      -2.575   5.030   9.754  1.00  0.00    -0.276 N 
ATOM      7  H13 UNL     1      -2.098   4.139   9.622  1.00  0.00     0.189 HD
ENDROOT
BRANCH   1   8
HETATM    8  C8  UNL     1      -0.977   6.126  11.383  1.00  0.00    -0.037 C 
HETATM    9  C7  UNL     1       0.024   6.268  12.050  1.00  0.00    -0.023 C 
BRANCH   9  10
HETATM   10  C6  UNL     1       1.221   6.493  12.816  1.00  0.00     0.163 A 
HETATM   11  N6  UNL     1       1.973   5.425  13.227  1.00  0.00    -0.343 N 
HETATM   12  C5  UNL     1       3.060   5.559  13.981  1.00  0.00     0.124 A 
ATOM     13  H6  UNL     1       1.687   4.488  12.943  1.00  0.00     0.167 HD
HETATM   14  C4  UNL     1       3.466   6.833  14.379  1.00  0.00     0.109 A 
HETATM   15  N5  UNL     1       4.463   7.282  15.130  1.00  0.00    -0.186 N 
HETATM   16  C22 UNL     1       2.730   7.886  13.975  1.00  0.00     0.154 A 
HETATM   17  C2  UNL     1       4.395   8.673  15.238  1.00  0.00     0.685 A 
ATOM     18  H5  UNL     1       5.176   6.697  15.565  1.00  0.00     0.184 HD
HETATM   19  N1  UNL     1       3.313   9.001  14.508  1.00  0.00    -0.170 N 
HETATM   20  N2  UNL     1       5.204   9.315  15.917  1.00  0.00    -0.173 N 
HETATM   21  C1  UNL     1       2.773  10.330  14.249  1.00  0.00     0.177 C 
HETATM   22  C3  UNL     1       5.523  10.565  16.334  1.00  0.00     0.494 C 
ATOM     23  H2  UNL     1       5.884   8.664  16.307  1.00  0.00     0.181 HD
HETATM   24  N3  UNL     1       4.349  11.259  16.910  1.00  0.00    -0.032 N 
HETATM   25  N4  UNL     1       6.191  11.450  15.386  1.00  0.00    -0.032 N 
ATOM     26  H33 UNL     1       3.565  11.273  16.257  1.00  0.00     0.278 HD
ATOM     27  H32 UNL     1       3.922  10.713  17.658  1.00  0.00     0.278 HD
ATOM     28  H31 UNL     1       4.588  12.200  17.224  1.00  0.00     0.278 HD
ATOM     29  H43 UNL     1       7.029  10.990  15.031  1.00  0.00     0.278 HD
ATOM     30  H42 UNL     1       5.631  11.514  14.535  1.00  0.00     0.278 HD
ATOM     31  H41 UNL     1       6.430  12.391  15.700  1.00  0.00     0.278 HD
HETATM   32  N14 UNL     1       1.625   7.698  13.203  1.00  0.00    -0.319 N 
ATOM     33  H14 UNL     1       1.085   8.513  12.911  1.00  0.00     0.169 HD
ENDBRANCH   9  10
ENDBRANCH   1   8
BRANCH   3  34
HETATM   34  C11 UNL     1      -5.113   7.430   9.186  1.00  0.00     0.141 A 
HETATM   35  N8  UNL     1      -6.353   7.093   9.564  1.00  0.00    -0.336 N 
HETATM   36  C12 UNL     1      -7.424   7.865   9.222  1.00  0.00     0.183 A 
ATOM     37  H8  UNL     1      -6.499   6.247  10.116  1.00  0.00     0.168 HD
HETATM   38  N9  UNL     1      -7.271   8.986   8.494  1.00  0.00    -0.338 N 
HETATM   39  C13 UNL     1      -6.066   9.391   8.078  1.00  0.00     0.114 A 
ATOM     40  H9  UNL     1      -8.093   9.540   8.254  1.00  0.00     0.168 HD
HETATM   41  C20 UNL     1      -4.972   8.579   8.444  1.00  0.00     0.055 A 
BRANCH  39  42
HETATM   42  N10 UNL     1      -5.847  10.418   7.408  1.00  0.00    -0.376 N 
ATOM     43  H10 UNL     1      -5.701  10.287   6.407  1.00  0.00     0.161 HD
BRANCH  42  44
HETATM   44  C14 UNL     1      -5.778  11.765   7.893  1.00  0.00     0.121 C 
BRANCH  44  45
HETATM   45  C15 UNL     1      -4.810  12.499   7.024  1.00  0.00     0.023 C 
BRANCH  45  46
HETATM   46  C16 UNL     1      -3.425  12.650   7.469  1.00  0.00     0.051 C 
BRANCH  46  47
HETATM   47  C17 UNL     1      -2.295  12.525   6.521  1.00  0.00     0.206 C 
HETATM   48  C18 UNL     1      -2.041  13.850   5.850  1.00  0.00     0.058 C 
BRANCH  47  49
HETATM   49  N11 UNL     1      -2.950  11.701   5.385  1.00  0.00    -0.061 N 
ATOM     50 3H11 UNL     1      -2.360  11.529   4.571  1.00  0.00     0.275 HD
ATOM     51 2H11 UNL     1      -3.105  10.714   5.593  1.00  0.00     0.275 HD
ATOM     52 1H11 UNL     1      -3.792  12.249   5.207  1.00  0.00     0.275 HD
ENDBRANCH  47  49
BRANCH  47  53
HETATM   53  C19 UNL     1      -1.107  11.790   6.908  1.00  0.00     0.210 C 
HETATM   54  O1  UNL     1      -1.053  11.365   8.119  1.00  0.00    -0.646 OA
HETATM   55  O2  UNL     1      -0.024  11.478   6.134  1.00  0.00    -0.646 OA
ENDBRANCH  47  53
ENDBRANCH  46  47
ENDBRANCH  45  46
ENDBRANCH  44  45
ENDBRANCH  42  44
ENDBRANCH  39  42
BRANCH  41  56
HETATM   56  C21 UNL     1      -3.603   8.970   8.005  1.00  0.00     0.210 C 
BRANCH  56  57
HETATM   57  O3  UNL     1      -3.544   9.012   6.590  1.00  0.00    -0.396 OA
ATOM     58  H3  UNL     1      -2.970   8.326   6.269  1.00  0.00     0.209 HD
ENDBRANCH  56  57
ENDBRANCH  41  56
ENDBRANCH   3  34
TORSDOF 12
ENDMDL
MODEL 3
REMARK VINA RESULT: -7.252825705      2.469      4.041
REMARK  12 active torsions:
REMARK  status: ('A' for Active; 'I' for Inactive)
REMARK       I    between atoms: N2_4  and  C3_6 
REMARK       I    between atoms: C3_6  and  N3_7 
REMARK       I    between atoms: C3_6  and  N4_11 
REMARK    1  A    between atoms: C6_21  and  C7_22 
REMARK    2  A    between atoms: C8_23  and  C9_24 
REMARK    3  A    between atoms: N7_26  and  C11_27 
REMARK    4  A    between atoms: C13_33  and  N10_34 
REMARK    5  A    between atoms: N10_34  and  C14_36 
REMARK    6  A    between atoms: C14_36  and  C15_37 
REMARK    7  A    between atoms: C15_37  and  C16_38 
REMARK    8  A    between atoms: C16_38  and  C17_39 
REMARK    9  A    between atoms: C17_39  and  N11_41 
REMARK   10  A    between atoms: C17_39  and  C19_45 
REMARK   11  A    between atoms: C20_48  and  C21_49 
REMARK   12  A    between atoms: C21_49  and  O3_50 
ROOT
HETATM    1  C9  UNL     1      -2.321   5.507  11.120  1.00  0.00     0.120 A 
HETATM    2  C10 UNL     1      -2.678   5.850   9.836  1.00  0.00     0.160 A 
HETATM    3  N7  UNL     1      -3.933   5.384   9.608  1.00  0.00    -0.233 N 
HETATM    4  N12 UNL     1      -4.354   4.778  10.697  1.00  0.00    -0.234 N 
ATOM      5  H12 UNL     1      -5.263   4.331  10.821  1.00  0.00     0.209 HD
HETATM    6  N13 UNL     1      -3.384   4.849  11.613  1.00  0.00    -0.276 N 
ATOM      7  H13 UNL     1      -3.442   4.460  12.554  1.00  0.00     0.189 HD
ENDROOT
BRANCH   1   8
HETATM    8  C8  UNL     1      -1.037   5.795  11.691  1.00  0.00    -0.037 C 
HETATM    9  C7  UNL     1       0.026   6.035  12.220  1.00  0.00    -0.023 C 
BRANCH   9  10
HETATM   10  C6  UNL     1       1.261   6.312  12.905  1.00  0.00     0.163 A 
HETATM   11  N6  UNL     1       2.087   5.278  13.254  1.00  0.00    -0.343 N 
HETATM   12  C5  UNL     1       3.216   5.459  13.934  1.00  0.00     0.124 A 
ATOM     13  H6  UNL     1       1.826   4.330  12.983  1.00  0.00     0.167 HD
HETATM   14  C4  UNL     1       3.588   6.748  14.315  1.00  0.00     0.109 A 
HETATM   15  N5  UNL     1       4.612   7.239  15.000  1.00  0.00    -0.186 N 
HETATM   16  C22 UNL     1       2.779   7.768  13.971  1.00  0.00     0.154 A 
HETATM   17  C2  UNL     1       4.488   8.625  15.124  1.00  0.00     0.685 A 
ATOM     18  H5  UNL     1       5.379   6.686  15.381  1.00  0.00     0.184 HD
HETATM   19  N1  UNL     1       3.345   8.906  14.473  1.00  0.00    -0.170 N 
HETATM   20  N2  UNL     1       5.311   9.300  15.752  1.00  0.00    -0.173 N 
HETATM   21  C1  UNL     1       2.727  10.209  14.262  1.00  0.00     0.177 C 
HETATM   22  C3  UNL     1       5.599  10.561  16.158  1.00  0.00     0.494 C 
ATOM     23  H2  UNL     1       6.045   8.679  16.090  1.00  0.00     0.181 HD
HETATM   24  N3  UNL     1       4.436  11.197  16.818  1.00  0.00    -0.032 N 
HETATM   25  N4  UNL     1       6.159  11.482  15.174  1.00  0.00    -0.032 N 
ATOM     26  H33 UNL     1       3.610  11.177  16.219  1.00  0.00     0.278 HD
ATOM     27  H32 UNL     1       4.087  10.627  17.589  1.00  0.00     0.278 HD
ATOM     28  H31 UNL     1       4.653  12.146  17.123  1.00  0.00     0.278 HD
ATOM     29  H43 UNL     1       6.992  11.064  14.760  1.00  0.00     0.278 HD
ATOM     30  H42 UNL     1       5.541  11.524  14.364  1.00  0.00     0.278 HD
ATOM     31  H41 UNL     1       6.376  12.431  15.479  1.00  0.00     0.278 HD
HETATM   32  N14 UNL     1       1.633   7.532  13.274  1.00  0.00    -0.319 N 
ATOM     33  H14 UNL     1       1.038   8.323  13.027  1.00  0.00     0.169 HD
ENDBRANCH   9  10
ENDBRANCH   1   8
BRANCH   3  34
HETATM   34  C11 UNL     1      -4.562   5.553   8.351  1.00  0.00     0.141 A 
HETATM   35  N8  UNL     1      -4.336   4.653   7.384  1.00  0.00    -0.336 N 
HETATM   36  C12 UNL     1      -4.916   4.785   6.156  1.00  0.00     0.183 A 
ATOM     37  H8  UNL     1      -3.724   3.858   7.569  1.00  0.00     0.168 HD
HETATM   38  N9  UNL     1      -5.728   5.821   5.876  1.00  0.00    -0.338 N 
HETATM   39  C13 UNL     1      -6.002   6.760   6.787  1.00  0.00     0.114 A 
ATOM     40  H9  UNL     1      -6.143   5.891   4.948  1.00  0.00     0.168 HD
HETATM   41  C20 UNL     1      -5.394   6.605   8.051  1.00  0.00     0.055 A 
BRANCH  39  42
HETATM   42  N10 UNL     1      -6.748   7.741   6.602  1.00  0.00    -0.376 N 
ATOM     43  H10 UNL     1      -7.246   8.095   7.419  1.00  0.00     0.161 HD
BRANCH  42  44
HETATM   44  C14 UNL     1      -6.980   8.426   5.365  1.00  0.00     0.121 C 
BRANCH  44  45
HETATM   45  C15 UNL     1      -5.788   9.288   5.105  1.00  0.00     0.023 C 
BRANCH  45  46
HETATM   46  C16 UNL     1      -5.583  10.485   5.919  1.00  0.00     0.051 C 
BRANCH  46  47
HETATM   47  C17 UNL     1      -4.310  11.241   5.867  1.00  0.00     0.206 C 
HETATM   48  C18 UNL     1      -4.544  12.666   6.299  1.00  0.00     0.058 C 
BRANCH  47  49
HETATM   49  N11 UNL     1      -4.115  11.388   4.337  1.00  0.00    -0.061 N 
ATOM     50 3H11 UNL     1      -3.203  11.102   3.982  1.00  0.00     0.275 HD
ATOM     51 2H11 UNL     1      -4.645  10.732   3.763  1.00  0.00     0.275 HD
ATOM     52 1H11 UNL     1      -4.347  12.373   4.205  1.00  0.00     0.275 HD
ENDBRANCH  47  49
BRANCH  47  53
HETATM   53  C19 UNL     1      -3.091  10.635   6.364  1.00  0.00     0.210 C 
HETATM   54  O1  UNL     1      -3.183   9.445   6.839  1.00  0.00    -0.646 OA
HETATM   55  O2  UNL     1      -1.834  11.172   6.383  1.00  0.00    -0.646 OA
ENDBRANCH  47  53
ENDBRANCH  46  47
ENDBRANCH  45  46
ENDBRANCH  44  45
ENDBRANCH  42  44
ENDBRANCH  39  42
BRANCH  41  56
HETATM   56  C21 UNL     1      -5.653   7.622   9.108  1.00  0.00     0.210 C 
BRANCH  56  57
HETATM   57  O3  UNL     1      -4.792   8.733   8.930  1.00  0.00    -0.396 OA
ATOM     58  H3  UNL     1      -5.191   9.361   8.339  1.00  0.00     0.209 HD
ENDBRANCH  56  57
ENDBRANCH  41  56
ENDBRANCH   3  34
TORSDOF 12
ENDMDL
MODEL 4
REMARK VINA RESULT: -7.235078564      4.358     11.669
REMARK  12 active torsions:
REMARK  status: ('A' for Active; 'I' for Inactive)
REMARK       I    between atoms: N2_4  and  C3_6 
REMARK       I    between atoms: C3_6  and  N3_7 
REMARK       I    between atoms: C3_6  and  N4_11 
REMARK    1  A    between atoms: C6_21  and  C7_22 
REMARK    2  A    between atoms: C8_23  and  C9_24 
REMARK    3  A    between atoms: N7_26  and  C11_27 
REMARK    4  A    between atoms: C13_33  and  N10_34 
REMARK    5  A    between atoms: N10_34  and  C14_36 
REMARK    6  A    between atoms: C14_36  and  C15_37 
REMARK    7  A    between atoms: C15_37  and  C16_38 
REMARK    8  A    between atoms: C16_38  and  C17_39 
REMARK    9  A    between atoms: C17_39  and  N11_41 
REMARK   10  A    between atoms: C17_39  and  C19_45 
REMARK   11  A    between atoms: C20_48  and  C21_49 
REMARK   12  A    between atoms: C21_49  and  O3_50 
ROOT
HETATM    1  C9  UNL     1       2.298  12.885   9.801  1.00  0.00     0.120 A 
HETATM    2  C10 UNL     1       2.279  12.998  11.172  1.00  0.00     0.160 A 
HETATM    3  N7  UNL     1       3.561  13.121  11.604  1.00  0.00    -0.233 N 
HETATM    4  N12 UNL     1       4.355  13.091  10.555  1.00  0.00    -0.234 N 
ATOM      5  H12 UNL     1       5.373  13.164  10.572  1.00  0.00     0.209 HD
HETATM    6  N13 UNL     1       3.598  12.948   9.464  1.00  0.00    -0.276 N 
ATOM      7  H13 UNL     1       3.954  12.895   8.510  1.00  0.00     0.189 HD
ENDROOT
BRANCH   1   8
HETATM    8  C8  UNL     1       1.121  12.689   9.004  1.00  0.00    -0.037 C 
HETATM    9  C7  UNL     1       0.157  12.498   8.297  1.00  0.00    -0.023 C 
BRANCH   9  10
HETATM   10  C6  UNL     1      -0.952  12.235   7.419  1.00  0.00     0.163 A 
HETATM   11  N6  UNL     1      -1.243  13.117   6.413  1.00  0.00    -0.343 N 
HETATM   12  C5  UNL     1      -2.284  12.961   5.600  1.00  0.00     0.124 A 
ATOM     13  H6  UNL     1      -0.637  13.927   6.283  1.00  0.00     0.167 HD
HETATM   14  C4  UNL     1      -3.124  11.861   5.764  1.00  0.00     0.109 A 
HETATM   15  N5  UNL     1      -4.225  11.450   5.148  1.00  0.00    -0.186 N 
HETATM   16  C22 UNL     1      -2.840  10.989   6.751  1.00  0.00     0.154 A 
HETATM   17  C2  UNL     1      -4.696  10.275   5.737  1.00  0.00     0.685 A 
ATOM     18  H5  UNL     1      -4.663  11.924   4.359  1.00  0.00     0.184 HD
HETATM   19  N1  UNL     1      -3.810  10.028   6.718  1.00  0.00    -0.170 N 
HETATM   20  N2  UNL     1      -5.732   9.721   5.350  1.00  0.00    -0.173 N 
HETATM   21  C1  UNL     1      -3.792   8.908   7.652  1.00  0.00     0.177 C 
HETATM   22  C3  UNL     1      -6.558   8.673   5.588  1.00  0.00     0.494 C 
ATOM     23  H2  UNL     1      -6.101  10.247   4.559  1.00  0.00     0.181 HD
HETATM   24  N3  UNL     1      -6.943   8.601   7.016  1.00  0.00    -0.032 N 
HETATM   25  N4  UNL     1      -6.132   7.354   5.135  1.00  0.00    -0.032 N 
ATOM     26  H33 UNL     1      -6.123   8.575   7.623  1.00  0.00     0.278 HD
ATOM     27  H32 UNL     1      -7.351   9.479   7.338  1.00  0.00     0.278 HD
ATOM     28  H31 UNL     1      -7.565   7.812   7.196  1.00  0.00     0.278 HD
ATOM     29  H43 UNL     1      -5.919   7.394   4.138  1.00  0.00     0.278 HD
ATOM     30  H42 UNL     1      -5.210   7.148   5.521  1.00  0.00     0.278 HD
ATOM     31  H41 UNL     1      -6.754   6.565   5.315  1.00  0.00     0.278 HD
HETATM   32  N14 UNL     1      -1.762  11.191   7.558  1.00  0.00    -0.319 N 
ATOM     33  H14 UNL     1      -1.570  10.516   8.298  1.00  0.00     0.169 HD
ENDBRANCH   9  10
ENDBRANCH   1   8
BRANCH   3  34
HETATM   34  C11 UNL     1       3.865  13.219  12.982  1.00  0.00     0.141 A 
HETATM   35  N8  UNL     1       3.899  14.430  13.557  1.00  0.00    -0.336 N 
HETATM   36  C12 UNL     1       4.198  14.569  14.880  1.00  0.00     0.183 A 
ATOM     37  H8  UNL     1       3.698  15.259  12.996  1.00  0.00     0.168 HD
HETATM   38  N9  UNL     1       4.470  13.499  15.649  1.00  0.00    -0.338 N 
HETATM   39  C13 UNL     1       4.456  12.258  15.152  1.00  0.00     0.114 A 
ATOM     40  H9  UNL     1       4.691  13.638  16.635  1.00  0.00     0.168 HD
HETATM   41  C20 UNL     1       4.144  12.136  13.781  1.00  0.00     0.055 A 
BRANCH  39  42
HETATM   42  N10 UNL     1       4.691  11.222  15.803  1.00  0.00    -0.376 N 
ATOM     43  H10 UNL     1       5.185  10.477  15.312  1.00  0.00     0.161 HD
BRANCH  42  44
HETATM   44  C14 UNL     1       4.341  10.965  17.169  1.00  0.00     0.121 C 
BRANCH  44  45
HETATM   45  C15 UNL     1       3.586   9.676  17.197  1.00  0.00     0.023 C 
BRANCH  45  46
HETATM   46  C16 UNL     1       3.610   8.811  16.018  1.00  0.00     0.051 C 
BRANCH  46  47
HETATM   47  C17 UNL     1       4.532   7.655  15.933  1.00  0.00     0.206 C 
HETATM   48  C18 UNL     1       4.000   6.648  14.945  1.00  0.00     0.058 C 
BRANCH  47  49
HETATM   49  N11 UNL     1       4.262   6.959  17.290  1.00  0.00    -0.061 N 
ATOM     50 3H11 UNL     1       4.988   7.079  17.996  1.00  0.00     0.275 HD
ATOM     51 2H11 UNL     1       3.519   7.372  17.854  1.00  0.00     0.275 HD
ATOM     52 1H11 UNL     1       4.099   5.998  16.987  1.00  0.00     0.275 HD
ENDBRANCH  47  49
BRANCH  47  53
HETATM   53  C19 UNL     1       5.963   7.876  15.880  1.00  0.00     0.210 C 
HETATM   54  O1  UNL     1       6.392   8.714  15.005  1.00  0.00    -0.646 OA
HETATM   55  O2  UNL     1       6.930   7.307  16.661  1.00  0.00    -0.646 OA
ENDBRANCH  47  53
ENDBRANCH  46  47
ENDBRANCH  45  46
ENDBRANCH  44  45
ENDBRANCH  42  44
ENDBRANCH  39  42
BRANCH  41  56
HETATM   56  C21 UNL     1       4.120  10.781  13.163  1.00  0.00     0.210 C 
BRANCH  56  57
HETATM   57  O3  UNL     1       5.443  10.351  12.891  1.00  0.00    -0.396 OA
ATOM     58  H3  UNL     1       5.930  11.051  12.473  1.00  0.00     0.209 HD
ENDBRANCH  56  57
ENDBRANCH  41  56
ENDBRANCH   3  34
TORSDOF 12
ENDMDL
MODEL 5
REMARK VINA RESULT: -7.065885188      3.847      6.878
REMARK  12 active torsions:
REMARK  status: ('A' for Active; 'I' for Inactive)
REMARK       I    between atoms: N2_4  and  C3_6 
REMARK       I    between atoms: C3_6  and  N3_7 
REMARK       I    between atoms: C3_6  and  N4_11 
REMARK    1  A    between atoms: C6_21  and  C7_22 
REMARK    2  A    between atoms: C8_23  and  C9_24 
REMARK    3  A    between atoms: N7_26  and  C11_27 
REMARK    4  A    between atoms: C13_33  and  N10_34 
REMARK    5  A    between atoms: N10_34  and  C14_36 
REMARK    6  A    between atoms: C14_36  and  C15_37 
REMARK    7  A    between atoms: C15_37  and  C16_38 
REMARK    8  A    between atoms: C16_38  and  C17_39 
REMARK    9  A    between atoms: C17_39  and  N11_41 
REMARK   10  A    between atoms: C17_39  and  C19_45 
REMARK   11  A    between atoms: C20_48  and  C21_49 
REMARK   12  A    between atoms: C21_49  and  O3_50 
ROOT
HETATM    1  C9  UNL     1       0.736   6.477  12.534  1.00  0.00     0.120 A 
HETATM    2  C10 UNL     1      -0.349   6.736  11.728  1.00  0.00     0.160 A 
HETATM    3  N7  UNL     1      -0.917   5.549  11.391  1.00  0.00    -0.233 N 
HETATM    4  N12 UNL     1      -0.228   4.583  11.961  1.00  0.00    -0.234 N 
ATOM      5  H12 UNL     1      -0.423   3.584  11.888  1.00  0.00     0.209 HD
HETATM    6  N13 UNL     1       0.771   5.139  12.652  1.00  0.00    -0.276 N 
ATOM      7  H13 UNL     1       1.464   4.621  13.193  1.00  0.00     0.189 HD
ENDROOT
BRANCH   1   8
HETATM    8  C8  UNL     1       1.609   7.496  13.041  1.00  0.00    -0.037 C 
HETATM    9  C7  UNL     1       2.375   8.351  13.427  1.00  0.00    -0.023 C 
BRANCH   9  10
HETATM   10  C6  UNL     1       3.317   9.362  13.829  1.00  0.00     0.163 A 
HETATM   11  N6  UNL     1       4.572   8.995  14.234  1.00  0.00    -0.343 N 
HETATM   12  C5  UNL     1       5.472   9.872  14.668  1.00  0.00     0.124 A 
ATOM     13  H6  UNL     1       4.827   8.008  14.202  1.00  0.00     0.167 HD
HETATM   14  C4  UNL     1       5.140  11.226  14.720  1.00  0.00     0.109 A 
HETATM   15  N5  UNL     1       5.791  12.313  15.116  1.00  0.00    -0.186 N 
HETATM   16  C22 UNL     1       3.907  11.591  14.321  1.00  0.00     0.154 A 
HETATM   17  C2  UNL     1       4.974  13.438  14.983  1.00  0.00     0.685 A 
ATOM     18  H5  UNL     1       6.748  12.325  15.465  1.00  0.00     0.184 HD
HETATM   19  N1  UNL     1       3.824  12.945  14.488  1.00  0.00    -0.170 N 
HETATM   20  N2  UNL     1       5.355  14.564  15.320  1.00  0.00    -0.173 N 
HETATM   21  C1  UNL     1       2.614  13.675  14.130  1.00  0.00     0.177 C 
HETATM   22  C3  UNL     1       4.967  15.859  15.416  1.00  0.00     0.494 C 
ATOM     23  H2  UNL     1       6.318  14.493  15.648  1.00  0.00     0.181 HD
HETATM   24  N3  UNL     1       3.671  15.986  16.122  1.00  0.00    -0.032 N 
HETATM   25  N4  UNL     1       4.930  16.651  14.192  1.00  0.00    -0.032 N 
ATOM     26  H33 UNL     1       2.950  15.412  15.684  1.00  0.00     0.278 HD
ATOM     27  H32 UNL     1       3.698  15.536  17.037  1.00  0.00     0.278 HD
ATOM     28  H31 UNL     1       3.379  16.961  16.194  1.00  0.00     0.278 HD
ATOM     29  H43 UNL     1       5.841  16.607  13.735  1.00  0.00     0.278 HD
ATOM     30  H42 UNL     1       4.346  16.177  13.503  1.00  0.00     0.278 HD
ATOM     31  H41 UNL     1       4.637  17.626  14.264  1.00  0.00     0.278 HD
HETATM   32  N14 UNL     1       3.020  10.656  13.884  1.00  0.00    -0.319 N 
ATOM     33  H14 UNL     1       2.092  10.960  13.588  1.00  0.00     0.169 HD
ENDBRANCH   9  10
ENDBRANCH   1   8
BRANCH   3  34
HETATM   34  C11 UNL     1      -2.040   5.491  10.532  1.00  0.00     0.141 A 
HETATM   35  N8  UNL     1      -1.849   5.274   9.223  1.00  0.00    -0.336 N 
HETATM   36  C12 UNL     1      -2.904   5.220   8.360  1.00  0.00     0.183 A 
ATOM     37  H8  UNL     1      -0.901   5.146   8.868  1.00  0.00     0.168 HD
HETATM   38  N9  UNL     1      -4.167   5.384   8.793  1.00  0.00    -0.338 N 
HETATM   39  C13 UNL     1      -4.442   5.605  10.083  1.00  0.00     0.114 A 
ATOM     40  H9  UNL     1      -4.933   5.340   8.121  1.00  0.00     0.168 HD
HETATM   41  C20 UNL     1      -3.337   5.656  10.959  1.00  0.00     0.055 A 
BRANCH  39  42
HETATM   42  N10 UNL     1      -5.583   5.760  10.556  1.00  0.00    -0.376 N 
ATOM     43  H10 UNL     1      -5.861   5.116  11.297  1.00  0.00     0.161 HD
BRANCH  42  44
HETATM   44  C14 UNL     1      -6.550   6.746  10.170  1.00  0.00     0.121 C 
BRANCH  44  45
HETATM   45  C15 UNL     1      -6.016   8.076  10.590  1.00  0.00     0.023 C 
BRANCH  45  46
HETATM   46  C16 UNL     1      -5.828   9.119   9.583  1.00  0.00     0.051 C 
BRANCH  46  47
HETATM   47  C17 UNL     1      -4.529   9.297   8.895  1.00  0.00     0.206 C 
HETATM   48  C18 UNL     1      -3.402   9.161   9.886  1.00  0.00     0.058 C 
BRANCH  47  49
HETATM   49  N11 UNL     1      -4.545  10.821   8.621  1.00  0.00    -0.061 N 
ATOM     50 3H11 UNL     1      -5.320  11.155   8.049  1.00  0.00     0.275 HD
ATOM     51 2H11 UNL     1      -4.767  11.408   9.425  1.00  0.00     0.275 HD
ATOM     52 1H11 UNL     1      -3.615  10.957   8.222  1.00  0.00     0.275 HD
ENDBRANCH  47  49
BRANCH  47  53
HETATM   53  C19 UNL     1      -4.302   8.667   7.609  1.00  0.00     0.210 C 
HETATM   54  O1  UNL     1      -3.256   9.031   6.957  1.00  0.00    -0.646 OA
HETATM   55  O2  UNL     1      -5.064   7.712   6.996  1.00  0.00    -0.646 OA
ENDBRANCH  47  53
ENDBRANCH  46  47
ENDBRANCH  45  46
ENDBRANCH  44  45
ENDBRANCH  42  44
ENDBRANCH  39  42
BRANCH  41  56
HETATM   56  C21 UNL     1      -3.574   5.907  12.408  1.00  0.00     0.210 C 
BRANCH  56  57
HETATM   57  O3  UNL     1      -4.067   4.732  13.027  1.00  0.00    -0.396 OA
ATOM     58  H3  UNL     1      -4.966   4.579  12.761  1.00  0.00     0.209 HD
ENDBRANCH  56  57
ENDBRANCH  41  56
ENDBRANCH   3  34
TORSDOF 12
ENDMDL
