MODEL 1
REMARK VINA RESULT: -7.532802661      0.000      0.000
REMARK  13 active torsions:
REMARK  status: ('A' for Active; 'I' for Inactive)
REMARK    1  A    between atoms: N1_2  and  N2_3 
REMARK    2  A    between atoms: N1_2  and  S1_7 
REMARK    3  A    between atoms: N2_3  and  O1_5 
REMARK    4  A    between atoms: S1_7  and  N3_10 
REMARK       I    between atoms: N3_10  and  C2_12 
REMARK    5  A    between atoms: C2_12  and  C3_14 
REMARK    6  A    between atoms: C3_14  and  N4_15 
REMARK    7  A    between atoms: C5_20  and  N5_21 
REMARK    8  A    between atoms: C6_25  and  N6_26 
REMARK       I    between atoms: N6_26  and  C7_28 
REMARK       I    between atoms: C7_28  and  N7_30 
REMARK    9  A    between atoms: N7_30  and  O6_32 
REMARK   10  A    between atoms: O6_32  and  C8_33 
REMARK   11  A    between atoms: C8_33  and  C9_35 
REMARK   12  A    between atoms: N8_42  and  O8_44 
REMARK   13  A    between atoms: C16_46  and  C17_47 
ROOT
HETATM    1  C3  UNL     1       3.529  14.900  10.627  1.00  0.00     0.224 C 
HETATM    2  C4  UNL     1       3.929  13.583  10.131  1.00  0.00     0.085 C 
HETATM    3  C5  UNL     1       3.718  12.359  10.905  1.00  0.00     0.214 C 
HETATM    4  C6  UNL     1       3.413  12.507  12.349  1.00  0.00     0.165 C 
HETATM    5  C15 UNL     1       3.848  13.840  12.808  1.00  0.00     0.052 C 
HETATM    6  N8  UNL     1       4.695  14.053  13.703  1.00  0.00    -0.274 N 
ATOM      7  H8  UNL     1       4.866  15.042  13.884  1.00  0.00     0.193 HD
HETATM    8  C16 UNL     1       3.188  14.961  12.099  1.00  0.00     0.182 C 
ENDROOT
BRANCH   1   9
HETATM    9  C2  UNL     1       4.554  15.926  10.272  1.00  0.00     0.270 C 
HETATM   10  N3  UNL     1       4.218  17.258   9.944  1.00  0.00    -0.234 N 
ATOM     11  H3  UNL     1       3.238  17.539   9.947  1.00  0.00     0.183 HD
HETATM   12  O4  UNL     1       5.754  15.597  10.265  1.00  0.00    -0.270 OA
BRANCH  10  13
HETATM   13  S1  UNL     1       5.422  18.416   9.537  1.00  0.00     0.342 S 
HETATM   14  O2  UNL     1       6.275  17.811   8.430  1.00  0.00    -0.181 OA
HETATM   15  O3  UNL     1       4.798  19.680   8.990  1.00  0.00    -0.181 OA
BRANCH  13  16
HETATM   16  N1  UNL     1       6.456  18.766  10.847  1.00  0.00    -0.186 N 
HETATM   17  C1  UNL     1       7.875  18.889  10.624  1.00  0.00     0.195 C 
BRANCH  16  18
HETATM   18  N2  UNL     1       5.928  18.933  12.116  1.00  0.00    -0.198 N 
ATOM     19  H2  UNL     1       6.501  18.759  12.943  1.00  0.00     0.216 HD
BRANCH  18  20
HETATM   20  O1  UNL     1       4.739  19.301  12.232  1.00  0.00    -0.274 OA
ATOM     21  H1  UNL     1       4.391  19.462  13.101  1.00  0.00     0.246 HD
ENDBRANCH  18  20
ENDBRANCH  16  18
ENDBRANCH  13  16
ENDBRANCH  10  13
ENDBRANCH   1   9
BRANCH   1  22
HETATM   22  N4  UNL     1       2.295  15.310   9.934  1.00  0.00    -0.060 N 
ATOM     23  H43 UNL     1       1.472  15.314  10.536  1.00  0.00     0.275 HD
ATOM     24  H42 UNL     1       2.273  16.300   9.690  1.00  0.00     0.275 HD
ATOM     25  H41 UNL     1       2.208  14.689   9.130  1.00  0.00     0.275 HD
ENDBRANCH   1  22
BRANCH   8  26
HETATM   26  C17 UNL     1       3.380  16.272  12.683  1.00  0.00     0.185 C 
HETATM   27  O9  UNL     1       4.445  16.583  13.260  1.00  0.00    -0.647 OA
HETATM   28  O10 UNL     1       2.374  17.216  12.611  1.00  0.00    -0.647 OA
ENDBRANCH   8  26
BRANCH   3  29
HETATM   29  N5  UNL     1       4.810  11.393  10.778  1.00  0.00    -0.073 N 
ATOM     30  H53 UNL     1       5.266  11.480   9.869  1.00  0.00     0.274 HD
ATOM     31  H52 UNL     1       5.590  11.649  11.384  1.00  0.00     0.274 HD
ATOM     32  H51 UNL     1       4.522  10.430  10.947  1.00  0.00     0.274 HD
ENDBRANCH   3  29
BRANCH   4  33
HETATM   33  N6  UNL     1       3.951  11.455  13.184  1.00  0.00    -0.330 N 
HETATM   34  C7  UNL     1       3.229  10.317  13.560  1.00  0.00     0.341 C 
HETATM   35  O5  UNL     1       2.048  10.200  13.144  1.00  0.00    -0.245 OA
HETATM   36  N7  UNL     1       3.771   9.311  14.376  1.00  0.00    -0.207 N 
ATOM     37  H7  UNL     1       4.728   9.387  14.722  1.00  0.00     0.200 HD
ATOM     38  H6  UNL     1       4.911  11.548  13.517  1.00  0.00     0.165 HD
BRANCH  36  39
HETATM   39  O6  UNL     1       3.008   8.236  14.698  1.00  0.00    -0.191 OA
BRANCH  39  40
HETATM   40  C8  UNL     1       3.166   6.966  14.171  1.00  0.00     0.315 C 
HETATM   41  O7  UNL     1       4.250   6.368  14.339  1.00  0.00    -0.257 OA
BRANCH  40  42
HETATM   42  C9  UNL     1       2.061   6.331  13.418  1.00  0.00     0.041 A 
HETATM   43  C10 UNL     1       1.971   4.973  13.290  1.00  0.00     0.017 A 
HETATM   44  C11 UNL     1       0.920   4.420  12.570  1.00  0.00     0.001 A 
HETATM   45  C12 UNL     1      -0.052   5.213  11.970  1.00  0.00     0.000 A 
HETATM   46  C13 UNL     1       0.065   6.581  12.118  1.00  0.00     0.001 A 
HETATM   47  C14 UNL     1       1.106   7.127  12.830  1.00  0.00     0.017 A 
ENDBRANCH  40  42
ENDBRANCH  39  40
ENDBRANCH  36  39
ENDBRANCH   4  33
BRANCH   6  48
HETATM   48  O8  UNL     1       5.421  13.225  14.470  1.00  0.00    -0.290 OA
ATOM     49  H8  UNL     1       5.221  12.764  15.277  1.00  0.00     0.244 HD
ENDBRANCH   6  48
TORSDOF 13
ENDMDL
MODEL 2
REMARK VINA RESULT: -7.064059255      5.472      7.277
REMARK  13 active torsions:
REMARK  status: ('A' for Active; 'I' for Inactive)
REMARK    1  A    between atoms: N1_2  and  N2_3 
REMARK    2  A    between atoms: N1_2  and  S1_7 
REMARK    3  A    between atoms: N2_3  and  O1_5 
REMARK    4  A    between atoms: S1_7  and  N3_10 
REMARK       I    between atoms: N3_10  and  C2_12 
REMARK    5  A    between atoms: C2_12  and  C3_14 
REMARK    6  A    between atoms: C3_14  and  N4_15 
REMARK    7  A    between atoms: C5_20  and  N5_21 
REMARK    8  A    between atoms: C6_25  and  N6_26 
REMARK       I    between atoms: N6_26  and  C7_28 
REMARK       I    between atoms: C7_28  and  N7_30 
REMARK    9  A    between atoms: N7_30  and  O6_32 
REMARK   10  A    between atoms: O6_32  and  C8_33 
REMARK   11  A    between atoms: C8_33  and  C9_35 
REMARK   12  A    between atoms: N8_42  and  O8_44 
REMARK   13  A    between atoms: C16_46  and  C17_47 
ROOT
HETATM    1  C3  UNL     1      -0.119  14.548   7.801  1.00  0.00     0.224 C 
HETATM    2  C4  UNL     1      -0.201  15.108   9.150  1.00  0.00     0.085 C 
HETATM    3  C5  UNL     1       0.519  14.527  10.284  1.00  0.00     0.214 C 
HETATM    4  C6  UNL     1       1.055  13.153  10.121  1.00  0.00     0.165 C 
HETATM    5  C15 UNL     1       0.347  12.478   9.017  1.00  0.00     0.052 C 
HETATM    6  N8  UNL     1      -0.323  11.428   9.126  1.00  0.00    -0.274 N 
ATOM      7  H8  UNL     1      -0.740  11.109   8.251  1.00  0.00     0.193 HD
HETATM    8  C16 UNL     1       0.483  13.163   7.711  1.00  0.00     0.182 C 
ENDROOT
BRANCH   1   9
HETATM    9  C2  UNL     1      -1.452  14.597   7.131  1.00  0.00     0.270 C 
HETATM   10  N3  UNL     1      -2.565  13.861   7.593  1.00  0.00    -0.234 N 
ATOM     11  H3  UNL     1      -2.463  13.270   8.418  1.00  0.00     0.183 HD
HETATM   12  O4  UNL     1      -1.591  15.315   6.124  1.00  0.00    -0.270 OA
BRANCH  10  13
HETATM   13  S1  UNL     1      -4.088  13.937   6.798  1.00  0.00     0.342 S 
HETATM   14  O2  UNL     1      -4.901  12.737   7.266  1.00  0.00    -0.181 OA
HETATM   15  O3  UNL     1      -4.846  15.183   7.195  1.00  0.00    -0.181 OA
BRANCH  13  16
HETATM   16  N1  UNL     1      -3.943  13.826   5.103  1.00  0.00    -0.186 N 
HETATM   17  C1  UNL     1      -4.694  14.725   4.262  1.00  0.00     0.195 C 
BRANCH  16  18
HETATM   18  N2  UNL     1      -3.103  12.878   4.543  1.00  0.00    -0.198 N 
ATOM     19  H2  UNL     1      -2.513  13.114   3.745  1.00  0.00     0.216 HD
BRANCH  18  20
HETATM   20  O1  UNL     1      -3.081  11.728   5.032  1.00  0.00    -0.274 OA
ATOM     21  H1  UNL     1      -2.244  11.347   5.271  1.00  0.00     0.246 HD
ENDBRANCH  18  20
ENDBRANCH  16  18
ENDBRANCH  13  16
ENDBRANCH  10  13
ENDBRANCH   1   9
BRANCH   1  22
HETATM   22  N4  UNL     1       0.769  15.401   6.990  1.00  0.00    -0.060 N 
ATOM     23  H43 UNL     1       0.306  16.224   6.607  1.00  0.00     0.275 HD
ATOM     24  H42 UNL     1       1.470  15.899   7.539  1.00  0.00     0.275 HD
ATOM     25  H41 UNL     1       1.168  14.789   6.278  1.00  0.00     0.275 HD
ENDBRANCH   1  22
BRANCH   8  26
HETATM   26  C17 UNL     1       0.034  12.412   6.558  1.00  0.00     0.185 C 
HETATM   27  O9  UNL     1      -0.909  11.594   6.635  1.00  0.00    -0.647 OA
HETATM   28  O10 UNL     1       0.649  12.590   5.333  1.00  0.00    -0.647 OA
ENDBRANCH   8  26
BRANCH   3  29
HETATM   29  N5  UNL     1      -0.239  14.562  11.536  1.00  0.00    -0.073 N 
ATOM     30  H53 UNL     1      -1.242  14.529  11.352  1.00  0.00     0.274 HD
ATOM     31  H52 UNL     1      -0.131  13.687  12.048  1.00  0.00     0.274 HD
ATOM     32  H51 UNL     1      -0.006  15.359  12.128  1.00  0.00     0.274 HD
ENDBRANCH   3  29
BRANCH   4  33
HETATM   33  N6  UNL     1       1.037  12.358  11.329  1.00  0.00    -0.330 N 
HETATM   34  C7  UNL     1       2.092  11.530  11.728  1.00  0.00     0.341 C 
HETATM   35  O5  UNL     1       3.114  11.477  10.998  1.00  0.00    -0.245 OA
HETATM   36  N7  UNL     1       2.050  10.762  12.904  1.00  0.00    -0.207 N 
ATOM     37  H7  UNL     1       1.230  10.792  13.511  1.00  0.00     0.200 HD
ATOM     38  H6  UNL     1       0.210  12.404  11.924  1.00  0.00     0.165 HD
BRANCH  36  39
HETATM   39  O6  UNL     1       3.112   9.982  13.225  1.00  0.00    -0.191 OA
BRANCH  39  40
HETATM   40  C8  UNL     1       3.075   8.918  14.111  1.00  0.00     0.315 C 
HETATM   41  O7  UNL     1       3.528   9.073  15.265  1.00  0.00    -0.257 OA
BRANCH  40  42
HETATM   42  C9  UNL     1       2.506   7.619  13.689  1.00  0.00     0.041 A 
HETATM   43  C10 UNL     1       1.366   7.549  12.936  1.00  0.00     0.017 A 
HETATM   44  C11 UNL     1       0.864   6.307  12.567  1.00  0.00     0.001 A 
HETATM   45  C12 UNL     1       1.491   5.124  12.942  1.00  0.00     0.000 A 
HETATM   46  C13 UNL     1       2.640   5.228  13.700  1.00  0.00     0.001 A 
HETATM   47  C14 UNL     1       3.136   6.456  14.066  1.00  0.00     0.017 A 
ENDBRANCH  40  42
ENDBRANCH  39  40
ENDBRANCH  36  39
ENDBRANCH   4  33
BRANCH   6  48
HETATM   48  O8  UNL     1      -0.597  10.639  10.178  1.00  0.00    -0.290 OA
ATOM     49  H8  UNL     1      -1.385  10.176  10.439  1.00  0.00     0.244 HD
ENDBRANCH   6  48
TORSDOF 13
ENDMDL
MODEL 3
REMARK VINA RESULT: -6.988434905      1.790      2.542
REMARK  13 active torsions:
REMARK  status: ('A' for Active; 'I' for Inactive)
REMARK    1  A    between atoms: N1_2  and  N2_3 
REMARK    2  A    between atoms: N1_2  and  S1_7 
REMARK    3  A    between atoms: N2_3  and  O1_5 
REMARK    4  A    between atoms: S1_7  and  N3_10 
REMARK       I    between atoms: N3_10  and  C2_12 
REMARK    5  A    between atoms: C2_12  and  C3_14 
REMARK    6  A    between atoms: C3_14  and  N4_15 
REMARK    7  A    between atoms: C5_20  and  N5_21 
REMARK    8  A    between atoms: C6_25  and  N6_26 
REMARK       I    between atoms: N6_26  and  C7_28 
REMARK       I    between atoms: C7_28  and  N7_30 
REMARK    9  A    between atoms: N7_30  and  O6_32 
REMARK   10  A    between atoms: O6_32  and  C8_33 
REMARK   11  A    between atoms: C8_33  and  C9_35 
REMARK   12  A    between atoms: N8_42  and  O8_44 
REMARK   13  A    between atoms: C16_46  and  C17_47 
ROOT
HETATM    1  C3  UNL     1       3.900  17.136  11.258  1.00  0.00     0.224 C 
HETATM    2  C4  UNL     1       4.118  16.087  10.261  1.00  0.00     0.085 C 
HETATM    3  C5  UNL     1       3.637  14.718  10.448  1.00  0.00     0.214 C 
HETATM    4  C6  UNL     1       3.233  14.316  11.818  1.00  0.00     0.165 C 
HETATM    5  C15 UNL     1       3.841  15.236  12.798  1.00  0.00     0.052 C 
HETATM    6  N8  UNL     1       4.628  14.900  13.710  1.00  0.00    -0.274 N 
ATOM      7  H8  UNL     1       4.944  15.677  14.291  1.00  0.00     0.193 HD
HETATM    8  C16 UNL     1       3.444  16.652  12.617  1.00  0.00     0.182 C 
ENDROOT
BRANCH   1   9
HETATM    9  C2  UNL     1       5.109  18.004  11.378  1.00  0.00     0.270 C 
HETATM   10  N3  UNL     1       5.040  19.357  11.773  1.00  0.00    -0.234 N 
ATOM     11  H3  UNL     1       4.131  19.767  11.988  1.00  0.00     0.183 HD
HETATM   12  O4  UNL     1       6.225  17.516  11.120  1.00  0.00    -0.270 OA
BRANCH  10  13
HETATM   13  S1  UNL     1       6.451  20.332  11.900  1.00  0.00     0.342 S 
HETATM   14  O2  UNL     1       6.003  21.719  12.341  1.00  0.00    -0.181 OA
HETATM   15  O3  UNL     1       7.386  19.797  12.961  1.00  0.00    -0.181 OA
BRANCH  13  16
HETATM   16  N1  UNL     1       7.259  20.505  10.408  1.00  0.00    -0.186 N 
HETATM   17  C1  UNL     1       7.074  21.705   9.631  1.00  0.00     0.195 C 
BRANCH  16  18
HETATM   18  N2  UNL     1       8.089  19.494   9.953  1.00  0.00    -0.198 N 
ATOM     19  H2  UNL     1       8.064  19.203   8.975  1.00  0.00     0.216 HD
BRANCH  18  20
HETATM   20  O1  UNL     1       8.869  18.945  10.760  1.00  0.00    -0.274 OA
ATOM     21  H1  UNL     1       9.806  19.053  10.639  1.00  0.00     0.246 HD
ENDBRANCH  18  20
ENDBRANCH  16  18
ENDBRANCH  13  16
ENDBRANCH  10  13
ENDBRANCH   1   9
BRANCH   1  22
HETATM   22  N4  UNL     1       2.818  18.018  10.786  1.00  0.00    -0.060 N 
ATOM     23  H43 UNL     1       3.093  18.624  10.014  1.00  0.00     0.275 HD
ATOM     24  H42 UNL     1       2.074  17.523  10.294  1.00  0.00     0.275 HD
ATOM     25  H41 UNL     1       2.495  18.526  11.609  1.00  0.00     0.275 HD
ENDBRANCH   1  22
BRANCH   8  26
HETATM   26  C17 UNL     1       3.798  17.546  13.698  1.00  0.00     0.185 C 
HETATM   27  O9  UNL     1       3.014  18.435  14.097  1.00  0.00    -0.647 OA
HETATM   28  O10 UNL     1       5.027  17.431  14.318  1.00  0.00    -0.647 OA
ENDBRANCH   8  26
BRANCH   3  29
HETATM   29  N5  UNL     1       4.561  13.702   9.941  1.00  0.00    -0.073 N 
ATOM     30  H53 UNL     1       5.526  13.950  10.160  1.00  0.00     0.274 HD
ATOM     31  H52 UNL     1       4.481  12.840  10.481  1.00  0.00     0.274 HD
ATOM     32  H51 UNL     1       4.452  13.515   8.945  1.00  0.00     0.274 HD
ENDBRANCH   3  29
BRANCH   4  33
HETATM   33  N6  UNL     1       3.511  12.934  12.142  1.00  0.00    -0.330 N 
HETATM   34  C7  UNL     1       2.524  11.949  12.248  1.00  0.00     0.341 C 
HETATM   35  O5  UNL     1       1.329  12.282  12.046  1.00  0.00    -0.245 OA
HETATM   36  N7  UNL     1       2.818  10.613  12.569  1.00  0.00    -0.207 N 
ATOM     37  H7  UNL     1       3.782  10.322  12.735  1.00  0.00     0.200 HD
ATOM     38  H6  UNL     1       4.482  12.662  12.301  1.00  0.00     0.165 HD
BRANCH  36  39
HETATM   39  O6  UNL     1       1.806   9.714  12.655  1.00  0.00    -0.191 OA
BRANCH  39  40
HETATM   40  C8  UNL     1       1.882   8.495  13.308  1.00  0.00     0.315 C 
HETATM   41  O7  UNL     1       2.611   8.391  14.318  1.00  0.00    -0.257 OA
BRANCH  40  42
HETATM   42  C9  UNL     1       1.109   7.336  12.810  1.00  0.00     0.041 A 
HETATM   43  C10 UNL     1       1.517   6.052  13.043  1.00  0.00     0.017 A 
HETATM   44  C11 UNL     1       0.764   4.992  12.552  1.00  0.00     0.001 A 
HETATM   45  C12 UNL     1      -0.404   5.201  11.825  1.00  0.00     0.000 A 
HETATM   46  C13 UNL     1      -0.790   6.509  11.607  1.00  0.00     0.001 A 
HETATM   47  C14 UNL     1      -0.043   7.556  12.093  1.00  0.00     0.017 A 
ENDBRANCH  40  42
ENDBRANCH  39  40
ENDBRANCH  36  39
ENDBRANCH   4  33
BRANCH   6  48
HETATM   48  O8  UNL     1       5.135  13.710  14.068  1.00  0.00    -0.290 OA
ATOM     49  H8  UNL     1       4.944  13.129  14.796  1.00  0.00     0.244 HD
ENDBRANCH   6  48
TORSDOF 13
ENDMDL
MODEL 4
REMARK VINA RESULT: -6.762132533      1.982      2.767
REMARK  13 active torsions:
REMARK  status: ('A' for Active; 'I' for Inactive)
REMARK    1  A    between atoms: N1_2  and  N2_3 
REMARK    2  A    between atoms: N1_2  and  S1_7 
REMARK    3  A    between atoms: N2_3  and  O1_5 
REMARK    4  A    between atoms: S1_7  and  N3_10 
REMARK       I    between atoms: N3_10  and  C2_12 
REMARK    5  A    between atoms: C2_12  and  C3_14 
REMARK    6  A    between atoms: C3_14  and  N4_15 
REMARK    7  A    between atoms: C5_20  and  N5_21 
REMARK    8  A    between atoms: C6_25  and  N6_26 
REMARK       I    between atoms: N6_26  and  C7_28 
REMARK       I    between atoms: C7_28  and  N7_30 
REMARK    9  A    between atoms: N7_30  and  O6_32 
REMARK   10  A    between atoms: O6_32  and  C8_33 
REMARK   11  A    between atoms: C8_33  and  C9_35 
REMARK   12  A    between atoms: N8_42  and  O8_44 
REMARK   13  A    between atoms: C16_46  and  C17_47 
ROOT
HETATM    1  C3  UNL     1       3.099  14.783  13.816  1.00  0.00     0.224 C 
HETATM    2  C4  UNL     1       2.714  13.703  12.907  1.00  0.00     0.085 C 
HETATM    3  C5  UNL     1       2.733  12.297  13.310  1.00  0.00     0.214 C 
HETATM    4  C6  UNL     1       3.485  11.948  14.541  1.00  0.00     0.165 C 
HETATM    5  C15 UNL     1       4.449  13.022  14.846  1.00  0.00     0.052 C 
HETATM    6  N8  UNL     1       5.689  12.879  14.914  1.00  0.00    -0.274 N 
ATOM      7  H8  UNL     1       6.194  13.737  15.138  1.00  0.00     0.193 HD
HETATM    8  C16 UNL     1       3.820  14.345  15.072  1.00  0.00     0.182 C 
ENDROOT
BRANCH   1   9
HETATM    9  C2  UNL     1       3.879  15.827  13.088  1.00  0.00     0.270 C 
HETATM   10  N3  UNL     1       3.627  17.208  13.235  1.00  0.00    -0.234 N 
ATOM     11  H3  UNL     1       2.884  17.515  13.863  1.00  0.00     0.183 HD
HETATM   12  O4  UNL     1       4.790  15.467  12.319  1.00  0.00    -0.270 OA
BRANCH  10  13
HETATM   13  S1  UNL     1       4.543  18.387  12.381  1.00  0.00     0.342 S 
HETATM   14  O2  UNL     1       3.798  19.710  12.500  1.00  0.00    -0.181 OA
HETATM   15  O3  UNL     1       5.906  18.575  13.007  1.00  0.00    -0.181 OA
BRANCH  13  16
HETATM   16  N1  UNL     1       4.681  18.025  10.720  1.00  0.00    -0.186 N 
HETATM   17  C1  UNL     1       3.545  18.213   9.852  1.00  0.00     0.195 C 
BRANCH  16  18
HETATM   18  N2  UNL     1       5.882  17.556  10.215  1.00  0.00    -0.198 N 
ATOM     19  H2  UNL     1       6.697  18.167  10.165  1.00  0.00     0.216 HD
BRANCH  18  20
HETATM   20  O1  UNL     1       5.949  16.372   9.821  1.00  0.00    -0.274 OA
ATOM     21  H1  UNL     1       5.587  16.149   8.971  1.00  0.00     0.246 HD
ENDBRANCH  18  20
ENDBRANCH  16  18
ENDBRANCH  13  16
ENDBRANCH  10  13
ENDBRANCH   1   9
BRANCH   1  22
HETATM   22  N4  UNL     1       1.878  15.455  14.295  1.00  0.00    -0.060 N 
ATOM     23  H43 UNL     1       2.021  16.435  14.539  1.00  0.00     0.275 HD
ATOM     24  H42 UNL     1       1.184  15.610  13.564  1.00  0.00     0.275 HD
ATOM     25  H41 UNL     1       1.535  14.888  15.070  1.00  0.00     0.275 HD
ENDBRANCH   1  22
BRANCH   8  26
HETATM   26  C17 UNL     1       4.685  15.364  15.627  1.00  0.00     0.185 C 
HETATM   27  O9  UNL     1       5.929  15.294  15.528  1.00  0.00    -0.647 OA
HETATM   28  O10 UNL     1       4.141  16.450  16.287  1.00  0.00    -0.647 OA
ENDBRANCH   8  26
BRANCH   3  29
HETATM   29  N5  UNL     1       3.175  11.392  12.248  1.00  0.00    -0.073 N 
ATOM     30  H53 UNL     1       4.185  11.253  12.290  1.00  0.00     0.274 HD
ATOM     31  H52 UNL     1       2.864  10.439  12.433  1.00  0.00     0.274 HD
ATOM     32  H51 UNL     1       2.889  11.690  11.316  1.00  0.00     0.274 HD
ENDBRANCH   3  29
BRANCH   4  33
HETATM   33  N6  UNL     1       4.126  10.653  14.502  1.00  0.00    -0.330 N 
HETATM   34  C7  UNL     1       3.454   9.447  14.728  1.00  0.00     0.341 C 
HETATM   35  O5  UNL     1       2.222   9.492  14.975  1.00  0.00    -0.245 OA
HETATM   36  N7  UNL     1       4.099   8.200  14.690  1.00  0.00    -0.207 N 
ATOM     37  H7  UNL     1       5.098   8.142  14.490  1.00  0.00     0.200 HD
ATOM     38  H6  UNL     1       5.125  10.615  14.297  1.00  0.00     0.165 HD
BRANCH  36  39
HETATM   39  O6  UNL     1       3.380   7.074  14.921  1.00  0.00    -0.191 OA
BRANCH  39  40
HETATM   40  C8  UNL     1       3.150   6.076  13.989  1.00  0.00     0.315 C 
HETATM   41  O7  UNL     1       4.027   5.207  13.799  1.00  0.00    -0.257 OA
BRANCH  40  42
HETATM   42  C9  UNL     1       1.879   6.046  13.231  1.00  0.00     0.041 A 
HETATM   43  C10 UNL     1       1.244   7.198  12.856  1.00  0.00     0.017 A 
HETATM   44  C11 UNL     1       0.050   7.123  12.149  1.00  0.00     0.001 A 
HETATM   45  C12 UNL     1      -0.524   5.903  11.810  1.00  0.00     0.000 A 
HETATM   46  C13 UNL     1       0.142   4.758  12.201  1.00  0.00     0.001 A 
HETATM   47  C14 UNL     1       1.323   4.833  12.900  1.00  0.00     0.017 A 
ENDBRANCH  40  42
ENDBRANCH  39  40
ENDBRANCH  36  39
ENDBRANCH   4  33
BRANCH   6  48
HETATM   48  O8  UNL     1       6.483  11.809  14.747  1.00  0.00    -0.290 OA
ATOM     49  H8  UNL     1       7.273  11.527  15.193  1.00  0.00     0.244 HD
ENDBRANCH   6  48
TORSDOF 13
ENDMDL
MODEL 5
REMARK VINA RESULT: -6.642434342      1.963      2.708
REMARK  13 active torsions:
REMARK  status: ('A' for Active; 'I' for Inactive)
REMARK    1  A    between atoms: N1_2  and  N2_3 
REMARK    2  A    between atoms: N1_2  and  S1_7 
REMARK    3  A    between atoms: N2_3  and  O1_5 
REMARK    4  A    between atoms: S1_7  and  N3_10 
REMARK       I    between atoms: N3_10  and  C2_12 
REMARK    5  A    between atoms: C2_12  and  C3_14 
REMARK    6  A    between atoms: C3_14  and  N4_15 
REMARK    7  A    between atoms: C5_20  and  N5_21 
REMARK    8  A    between atoms: C6_25  and  N6_26 
REMARK       I    between atoms: N6_26  and  C7_28 
REMARK       I    between atoms: C7_28  and  N7_30 
REMARK    9  A    between atoms: N7_30  and  O6_32 
REMARK   10  A    between atoms: O6_32  and  C8_33 
REMARK   11  A    between atoms: C8_33  and  C9_35 
REMARK   12  A    between atoms: N8_42  and  O8_44 
REMARK   13  A    between atoms: C16_46  and  C17_47 
ROOT
HETATM    1  C3  UNL     1       3.049  17.451  11.430  1.00  0.00     0.224 C 
HETATM    2  C4  UNL     1       3.602  16.517  10.449  1.00  0.00     0.085 C 
HETATM    3  C5  UNL     1       3.537  15.066  10.625  1.00  0.00     0.214 C 
HETATM    4  C6  UNL     1       3.218  14.556  11.982  1.00  0.00     0.165 C 
HETATM    5  C15 UNL     1       3.492  15.609  12.978  1.00  0.00     0.052 C 
HETATM    6  N8  UNL     1       4.308  15.514  13.921  1.00  0.00    -0.274 N 
ATOM      7  H8  UNL     1       4.361  16.346  14.508  1.00  0.00     0.193 HD
HETATM    8  C16 UNL     1       2.704  16.847  12.774  1.00  0.00     0.182 C 
ENDROOT
BRANCH   1   9
HETATM    9  C2  UNL     1       3.944  18.634  11.590  1.00  0.00     0.270 C 
HETATM   10  N3  UNL     1       5.335  18.515  11.797  1.00  0.00    -0.234 N 
ATOM     11  H3  UNL     1       5.755  17.587  11.839  1.00  0.00     0.183 HD
HETATM   12  O4  UNL     1       3.445  19.774  11.539  1.00  0.00    -0.270 OA
BRANCH  10  13
HETATM   13  S1  UNL     1       6.340  19.899  11.979  1.00  0.00     0.342 S 
HETATM   14  O2  UNL     1       7.780  19.406  12.044  1.00  0.00    -0.181 OA
HETATM   15  O3  UNL     1       6.227  20.814  10.780  1.00  0.00    -0.181 OA
BRANCH  13  16
HETATM   16  N1  UNL     1       6.024  20.747  13.424  1.00  0.00    -0.186 N 
HETATM   17  C1  UNL     1       5.709  22.153  13.373  1.00  0.00     0.195 C 
BRANCH  16  18
HETATM   18  N2  UNL     1       6.067  20.081  14.637  1.00  0.00    -0.198 N 
ATOM     19  H2  UNL     1       5.752  20.540  15.492  1.00  0.00     0.216 HD
BRANCH  18  20
HETATM   20  O1  UNL     1       6.499  18.908  14.667  1.00  0.00    -0.274 OA
ATOM     21  H1  UNL     1       5.995  18.245  15.125  1.00  0.00     0.246 HD
ENDBRANCH  18  20
ENDBRANCH  16  18
ENDBRANCH  13  16
ENDBRANCH  10  13
ENDBRANCH   1   9
BRANCH   1  22
HETATM   22  N4  UNL     1       1.774  17.978  10.913  1.00  0.00    -0.060 N 
ATOM     23  H43 UNL     1       1.866  18.469  10.025  1.00  0.00     0.275 HD
ATOM     24  H42 UNL     1       1.134  17.254  10.587  1.00  0.00     0.275 HD
ATOM     25  H41 UNL     1       1.388  18.556  11.660  1.00  0.00     0.275 HD
ENDBRANCH   1  22
BRANCH   8  26
HETATM   26  C17 UNL     1       2.739  17.800  13.862  1.00  0.00     0.185 C 
HETATM   27  O9  UNL     1       1.729  18.461  14.188  1.00  0.00    -0.647 OA
HETATM   28  O10 UNL     1       3.909  17.998  14.572  1.00  0.00    -0.647 OA
ENDBRANCH   8  26
BRANCH   3  29
HETATM   29  N5  UNL     1       4.737  14.368  10.159  1.00  0.00    -0.073 N 
ATOM     30  H53 UNL     1       5.199  14.899   9.422  1.00  0.00     0.274 HD
ATOM     31  H52 UNL     1       5.468  14.393  10.870  1.00  0.00     0.274 HD
ATOM     32  H51 UNL     1       4.558  13.410   9.858  1.00  0.00     0.274 HD
ENDBRANCH   3  29
BRANCH   4  33
HETATM   33  N6  UNL     1       3.877  13.315  12.324  1.00  0.00    -0.330 N 
HETATM   34  C7  UNL     1       3.249  12.066  12.282  1.00  0.00     0.341 C 
HETATM   35  O5  UNL     1       2.045  12.019  11.922  1.00  0.00    -0.245 OA
HETATM   36  N7  UNL     1       3.909  10.874  12.624  1.00  0.00    -0.207 N 
ATOM     37  H7  UNL     1       4.886  10.891  12.917  1.00  0.00     0.200 HD
ATOM     38  H6  UNL     1       4.856  13.352  12.611  1.00  0.00     0.165 HD
BRANCH  36  39
HETATM   39  O6  UNL     1       3.232   9.700  12.559  1.00  0.00    -0.191 OA
BRANCH  39  40
HETATM   40  C8  UNL     1       2.832   8.955  13.656  1.00  0.00     0.315 C 
HETATM   41  O7  UNL     1       2.801   9.498  14.781  1.00  0.00    -0.257 OA
BRANCH  40  42
HETATM   42  C9  UNL     1       2.449   7.535  13.490  1.00  0.00     0.041 A 
HETATM   43  C10 UNL     1       3.224   6.523  13.984  1.00  0.00     0.017 A 
HETATM   44  C11 UNL     1       2.829   5.204  13.800  1.00  0.00     0.001 A 
HETATM   45  C12 UNL     1       1.658   4.879  13.123  1.00  0.00     0.000 A 
HETATM   46  C13 UNL     1       0.896   5.923  12.637  1.00  0.00     0.001 A 
HETATM   47  C14 UNL     1       1.288   7.228  12.819  1.00  0.00     0.017 A 
ENDBRANCH  40  42
ENDBRANCH  39  40
ENDBRANCH  36  39
ENDBRANCH   4  33
BRANCH   6  48
HETATM   48  O8  UNL     1       5.129  14.523  14.305  1.00  0.00    -0.290 OA
ATOM     49  H8  UNL     1       4.966  13.697  14.746  1.00  0.00     0.244 HD
ENDBRANCH   6  48
TORSDOF 13
ENDMDL
