MODEL 1
REMARK VINA RESULT: -7.506946601      0.000      0.000
REMARK  10 active torsions:
REMARK  status: ('A' for Active; 'I' for Inactive)
REMARK    1  A    between atoms: N1_1  and  C1_4 
REMARK    2  A    between atoms: C2_7  and  N3_8 
REMARK    3  A    between atoms: C3_11  and  C4_12 
REMARK       I    between atoms: C4_12  and  N5_14 
REMARK    4  A    between atoms: N5_14  and  C5_16 
REMARK    5  A    between atoms: C5_16  and  C6_17 
REMARK    6  A    between atoms: C6_17  and  C7_18 
REMARK    7  A    between atoms: C8_23  and  C9_24 
REMARK    8  A    between atoms: C12_27  and  N8_28 
REMARK    9  A    between atoms: C15_39  and  N13_40 
REMARK   10  A    between atoms: C19_51  and  C20_52 
ROOT
HETATM    1  N3  UNL     1       3.638  10.624  12.719  1.00  0.00    -0.071 N 
HETATM    2  N4  UNL     1       4.613   9.752  12.990  1.00  0.00    -0.258 N 
ATOM      3  H4  UNL     1       5.601   9.878  12.771  1.00  0.00     0.190 HD
HETATM    4  C3  UNL     1       4.079   8.685  13.598  1.00  0.00     0.191 A 
HETATM    5  N7  UNL     1       2.754   8.935  13.687  1.00  0.00    -0.324 N 
ATOM      6  H7  UNL     1       2.070   8.304  14.103  1.00  0.00     0.169 HD
HETATM    7  C8  UNL     1       2.467  10.124  13.151  1.00  0.00     0.129 A 
ENDROOT
BRANCH   7   8
HETATM    8  C9  UNL     1       1.111  10.710  13.078  1.00  0.00     0.082 C 
HETATM    9  C10 UNL     1       0.109   9.736  12.574  1.00  0.00     0.018 C 
HETATM   10  C11 UNL     1      -1.301   9.940  12.984  1.00  0.00     0.057 C 
HETATM   11  C12 UNL     1      -1.541  10.825  14.160  1.00  0.00     0.308 C 
HETATM   12  N14 UNL     1      -0.609  11.980  14.084  1.00  0.00    -0.052 N 
HETATM   13  C17 UNL     1       0.706  11.385  14.370  1.00  0.00     0.247 C 
ATOM     14 2H14 UNL     1      -0.655  12.501  13.209  1.00  0.00     0.279 HD
ATOM     15 1H14 UNL     1      -0.858  12.763  14.689  1.00  0.00     0.279 HD
BRANCH  11  16
HETATM   16  N8  UNL     1      -2.855  11.382  14.206  1.00  0.00    -0.239 N 
HETATM   17  N9  UNL     1      -3.557  11.827  13.160  1.00  0.00    -0.236 N 
HETATM   18  N10 UNL     1      -4.716  12.274  13.532  1.00  0.00    -0.269 N 
ATOM     19  H9  UNL     1      -3.226  11.816  12.195  1.00  0.00     0.208 HD
HETATM   20  C13 UNL     1      -4.832  12.141  14.876  1.00  0.00     0.154 A 
ATOM     21  H10 UNL     1      -5.427  12.664  12.913  1.00  0.00     0.190 HD
HETATM   22  N11 UNL     1      -5.798  12.438  15.757  1.00  0.00    -0.335 N 
HETATM   23  C16 UNL     1      -3.629  11.567  15.281  1.00  0.00     0.143 A 
HETATM   24  C14 UNL     1      -5.572  12.165  17.060  1.00  0.00     0.183 A 
ATOM     25  H11 UNL     1      -6.677  12.857  15.452  1.00  0.00     0.168 HD
HETATM   26  N12 UNL     1      -4.420  11.610  17.476  1.00  0.00    -0.337 N 
HETATM   27  C15 UNL     1      -3.423  11.298  16.616  1.00  0.00     0.132 A 
ATOM     28  H12 UNL     1      -4.293  11.421  18.471  1.00  0.00     0.168 HD
BRANCH  27  29
HETATM   29  N13 UNL     1      -2.327  10.760  17.067  1.00  0.00    -0.383 N 
ATOM     30 2H13 UNL     1      -1.761  11.187  17.799  1.00  0.00     0.157 HD
ATOM     31 1H13 UNL     1      -2.002   9.873  16.680  1.00  0.00     0.157 HD
ENDBRANCH  27  29
ENDBRANCH  11  16
ENDBRANCH   7   8
BRANCH   1  32
HETATM   32  C2  UNL     1       3.821  11.884  12.074  1.00  0.00     0.706 A 
HETATM   33  N2  UNL     1       3.837  12.997  12.818  1.00  0.00    -0.174 N 
HETATM   34  C1  UNL     1       4.001  14.230  12.307  1.00  0.00     0.131 A 
ATOM     35  H2  UNL     1       3.719  12.905  13.827  1.00  0.00     0.186 HD
HETATM   36  C19 UNL     1       4.159  14.347  10.942  1.00  0.00     0.089 A 
HETATM   37  C18 UNL     1       4.140  13.195  10.191  1.00  0.00     0.126 A 
HETATM   38  N15 UNL     1       3.973  11.989  10.751  1.00  0.00    -0.199 N 
ATOM     39  H15 UNL     1       3.963  11.152  10.167  1.00  0.00     0.183 HD
BRANCH  34  40
HETATM   40  N1  UNL     1       4.012  15.292  13.052  1.00  0.00    -0.384 N 
ATOM     41  H12 UNL     1       3.138  15.775  13.260  1.00  0.00     0.157 HD
ATOM     42  H11 UNL     1       4.873  15.670  13.447  1.00  0.00     0.157 HD
ENDBRANCH  34  40
BRANCH  36  43
HETATM   43  C20 UNL     1       4.341  15.665  10.328  1.00  0.00     0.270 C 
HETATM   44  N16 UNL     1       5.600  16.273  10.191  1.00  0.00    -0.057 NA
HETATM   45  O3  UNL     1       3.315  16.269   9.905  1.00  0.00    -0.271 OA
ENDBRANCH  36  43
ENDBRANCH   1  32
BRANCH   4  46
HETATM   46  C4  UNL     1       4.782   7.478  14.075  1.00  0.00     0.287 C 
HETATM   47  O1  UNL     1       4.153   6.689  14.819  1.00  0.00    -0.264 OA
HETATM   48  N5  UNL     1       6.104   7.233  13.702  1.00  0.00    -0.354 N 
ATOM     49  H5  UNL     1       6.564   7.912  13.095  1.00  0.00     0.162 HD
BRANCH  48  50
HETATM   50  C5  UNL     1       6.854   6.085  14.121  1.00  0.00     0.132 C 
BRANCH  50  51
HETATM   51  C6  UNL     1       6.948   4.990  13.084  1.00  0.00     0.119 C 
BRANCH  51  52
HETATM   52  C7  UNL     1       7.699   5.433  11.892  1.00  0.00     0.232 C 
HETATM   53  N6  UNL     1       7.682   4.643  10.724  1.00  0.00    -0.062 NA
HETATM   54  O2  UNL     1       8.336   6.503  11.934  1.00  0.00    -0.277 OA
ENDBRANCH  51  52
ENDBRANCH  50  51
ENDBRANCH  48  50
ENDBRANCH   4  46
TORSDOF 10
ENDMDL
MODEL 2
REMARK VINA RESULT: -7.457279251      4.187      8.373
REMARK  10 active torsions:
REMARK  status: ('A' for Active; 'I' for Inactive)
REMARK    1  A    between atoms: N1_1  and  C1_4 
REMARK    2  A    between atoms: C2_7  and  N3_8 
REMARK    3  A    between atoms: C3_11  and  C4_12 
REMARK       I    between atoms: C4_12  and  N5_14 
REMARK    4  A    between atoms: N5_14  and  C5_16 
REMARK    5  A    between atoms: C5_16  and  C6_17 
REMARK    6  A    between atoms: C6_17  and  C7_18 
REMARK    7  A    between atoms: C8_23  and  C9_24 
REMARK    8  A    between atoms: C12_27  and  N8_28 
REMARK    9  A    between atoms: C15_39  and  N13_40 
REMARK   10  A    between atoms: C19_51  and  C20_52 
ROOT
HETATM    1  N3  UNL     1       2.329   7.633  13.558  1.00  0.00    -0.071 N 
HETATM    2  N4  UNL     1       1.632   6.582  13.120  1.00  0.00    -0.258 N 
ATOM      3  H4  UNL     1       1.878   5.603  13.266  1.00  0.00     0.190 HD
HETATM    4  C3  UNL     1       0.555   7.026  12.459  1.00  0.00     0.191 A 
HETATM    5  N7  UNL     1       0.621   8.374  12.508  1.00  0.00    -0.324 N 
ATOM      6  H7  UNL     1      -0.062   9.005  12.090  1.00  0.00     0.169 HD
HETATM    7  C8  UNL     1       1.706   8.764  13.181  1.00  0.00     0.129 A 
ENDROOT
BRANCH   7   8
HETATM    8  C9  UNL     1       2.087  10.172  13.423  1.00  0.00     0.082 C 
HETATM    9  C10 UNL     1       3.535  10.407  13.188  1.00  0.00     0.018 C 
HETATM   10  C11 UNL     1       3.948  11.781  12.813  1.00  0.00     0.057 C 
HETATM   11  C12 UNL     1       2.879  12.694  12.312  1.00  0.00     0.308 C 
HETATM   12  N14 UNL     1       1.650  12.475  13.119  1.00  0.00    -0.052 N 
HETATM   13  C17 UNL     1       1.187  11.144  12.692  1.00  0.00     0.247 C 
ATOM     14 2H14 UNL     1       1.784  12.573  14.125  1.00  0.00     0.279 HD
ATOM     15 1H14 UNL     1       0.951  13.213  13.031  1.00  0.00     0.279 HD
BRANCH  11  16
HETATM   16  N8  UNL     1       3.195  14.080  12.445  1.00  0.00    -0.239 N 
HETATM   17  N9  UNL     1       2.830  14.877  13.454  1.00  0.00    -0.236 N 
HETATM   18  N10 UNL     1       3.272  16.083  13.279  1.00  0.00    -0.269 N 
ATOM     19  H9  UNL     1       2.276  14.576  14.256  1.00  0.00     0.208 HD
HETATM   20  C13 UNL     1       3.966  16.136  12.116  1.00  0.00     0.154 A 
ATOM     21  H10 UNL     1       3.122  16.866  13.915  1.00  0.00     0.190 HD
HETATM   22  N11 UNL     1       4.618  17.114  11.470  1.00  0.00    -0.335 N 
HETATM   23  C16 UNL     1       3.901  14.843  11.604  1.00  0.00     0.143 A 
HETATM   24  C14 UNL     1       5.214  16.809  10.297  1.00  0.00     0.183 A 
ATOM     25  H11 UNL     1       4.661  18.059  11.852  1.00  0.00     0.168 HD
HETATM   26  N12 UNL     1       5.167  15.568   9.782  1.00  0.00    -0.337 N 
HETATM   27  C15 UNL     1       4.519  14.557  10.406  1.00  0.00     0.132 A 
ATOM     28  H12 UNL     1       5.633  15.384   8.893  1.00  0.00     0.168 HD
BRANCH  27  29
HETATM   29  N13 UNL     1       4.504  13.372   9.869  1.00  0.00    -0.383 N 
ATOM     30 2H13 UNL     1       5.321  12.762   9.851  1.00  0.00     0.157 HD
ATOM     31 1H13 UNL     1       3.647  13.021   9.439  1.00  0.00     0.157 HD
ENDBRANCH  27  29
ENDBRANCH  11  16
ENDBRANCH   7   8
BRANCH   1  32
HETATM   32  C2  UNL     1       3.543   7.559  14.307  1.00  0.00     0.706 A 
HETATM   33  N2  UNL     1       4.641   7.073  13.715  1.00  0.00    -0.174 N 
HETATM   34  C1  UNL     1       5.830   6.961  14.333  1.00  0.00     0.131 A 
ATOM     35  H2  UNL     1       4.573   6.772  12.743  1.00  0.00     0.186 HD
HETATM   36  C19 UNL     1       5.915   7.370  15.647  1.00  0.00     0.089 A 
HETATM   37  C18 UNL     1       4.779   7.866  16.241  1.00  0.00     0.126 A 
HETATM   38  N15 UNL     1       3.617   7.957  15.580  1.00  0.00    -0.199 N 
ATOM     39  H15 UNL     1       2.791   8.330  16.048  1.00  0.00     0.183 HD
BRANCH  34  40
HETATM   40  N1  UNL     1       6.878   6.486  13.735  1.00  0.00    -0.384 N 
ATOM     41  H12 UNL     1       7.604   7.120  13.402  1.00  0.00     0.157 HD
ATOM     42  H11 UNL     1       7.012   5.486  13.584  1.00  0.00     0.157 HD
ENDBRANCH  34  40
BRANCH  36  43
HETATM   43  C20 UNL     1       7.184   7.271  16.373  1.00  0.00     0.270 C 
HETATM   44  N16 UNL     1       7.293   6.670  17.638  1.00  0.00    -0.057 NA
HETATM   45  O3  UNL     1       8.219   7.749  15.827  1.00  0.00    -0.271 OA
ENDBRANCH  36  43
ENDBRANCH   1  32
BRANCH   4  46
HETATM   46  C4  UNL     1      -0.493   6.218  11.806  1.00  0.00     0.287 C 
HETATM   47  O1  UNL     1      -0.475   4.978  11.987  1.00  0.00    -0.264 OA
HETATM   48  N5  UNL     1      -1.469   6.826  11.015  1.00  0.00    -0.354 N 
ATOM     49  H5  UNL     1      -1.432   7.840  10.904  1.00  0.00     0.162 HD
BRANCH  48  50
HETATM   50  C5  UNL     1      -2.520   6.112  10.350  1.00  0.00     0.132 C 
BRANCH  50  51
HETATM   51  C6  UNL     1      -2.091   5.409   9.084  1.00  0.00     0.119 C 
BRANCH  51  52
HETATM   52  C7  UNL     1      -2.723   6.006   7.889  1.00  0.00     0.232 C 
HETATM   53  N6  UNL     1      -3.885   6.791   8.035  1.00  0.00    -0.062 NA
HETATM   54  O2  UNL     1      -2.218   5.809   6.768  1.00  0.00    -0.277 OA
ENDBRANCH  51  52
ENDBRANCH  50  51
ENDBRANCH  48  50
ENDBRANCH   4  46
TORSDOF 10
ENDMDL
MODEL 3
REMARK VINA RESULT: -7.387881992      4.412      8.676
REMARK  10 active torsions:
REMARK  status: ('A' for Active; 'I' for Inactive)
REMARK    1  A    between atoms: N1_1  and  C1_4 
REMARK    2  A    between atoms: C2_7  and  N3_8 
REMARK    3  A    between atoms: C3_11  and  C4_12 
REMARK       I    between atoms: C4_12  and  N5_14 
REMARK    4  A    between atoms: N5_14  and  C5_16 
REMARK    5  A    between atoms: C5_16  and  C6_17 
REMARK    6  A    between atoms: C6_17  and  C7_18 
REMARK    7  A    between atoms: C8_23  and  C9_24 
REMARK    8  A    between atoms: C12_27  and  N8_28 
REMARK    9  A    between atoms: C15_39  and  N13_40 
REMARK   10  A    between atoms: C19_51  and  C20_52 
ROOT
HETATM    1  N3  UNL     1       4.362  12.303  14.014  1.00  0.00    -0.071 N 
HETATM    2  N4  UNL     1       4.763  13.130  14.983  1.00  0.00    -0.258 N 
ATOM      3  H4  UNL     1       5.165  12.848  15.877  1.00  0.00     0.190 HD
HETATM    4  C3  UNL     1       4.551  14.391  14.587  1.00  0.00     0.191 A 
HETATM    5  N7  UNL     1       4.010  14.305  13.352  1.00  0.00    -0.324 N 
ATOM      6  H7  UNL     1       3.734  15.102  12.781  1.00  0.00     0.169 HD
HETATM    7  C8  UNL     1       3.888  13.026  12.985  1.00  0.00     0.129 A 
ENDROOT
BRANCH   7   8
HETATM    8  C9  UNL     1       3.331  12.570  11.693  1.00  0.00     0.082 C 
HETATM    9  C10 UNL     1       1.899  12.192  11.805  1.00  0.00     0.018 C 
HETATM   10  C11 UNL     1       1.074  12.288  10.577  1.00  0.00     0.057 C 
HETATM   11  C12 UNL     1       1.615  13.120   9.463  1.00  0.00     0.308 C 
HETATM   12  N14 UNL     1       3.080  12.888   9.364  1.00  0.00    -0.052 N 
HETATM   13  C17 UNL     1       3.618  13.541  10.569  1.00  0.00     0.247 C 
ATOM     14 2H14 UNL     1       3.345  11.908   9.262  1.00  0.00     0.279 HD
ATOM     15 1H14 UNL     1       3.499  13.205   8.490  1.00  0.00     0.279 HD
BRANCH  11  16
HETATM   16  N8  UNL     1       1.077  12.791   8.182  1.00  0.00    -0.239 N 
HETATM   17  N9  UNL     1       1.555  11.869   7.342  1.00  0.00    -0.236 N 
HETATM   18  N10 UNL     1       0.844  11.811   6.259  1.00  0.00    -0.269 N 
ATOM     19  H9  UNL     1       2.372  11.286   7.528  1.00  0.00     0.208 HD
HETATM   20  C13 UNL     1      -0.160  12.718   6.339  1.00  0.00     0.154 A 
ATOM     21  H10 UNL     1       1.014  11.184   5.473  1.00  0.00     0.190 HD
HETATM   22  N11 UNL     1      -1.159  13.069   5.517  1.00  0.00    -0.335 N 
HETATM   23  C16 UNL     1       0.013  13.330   7.579  1.00  0.00     0.143 A 
HETATM   24  C14 UNL     1      -2.002  14.042   5.926  1.00  0.00     0.183 A 
ATOM     25  H11 UNL     1      -1.279  12.615   4.611  1.00  0.00     0.168 HD
HETATM   26  N12 UNL     1      -1.858  14.648   7.118  1.00  0.00    -0.337 N 
HETATM   27  C15 UNL     1      -0.862  14.320   7.973  1.00  0.00     0.132 A 
ATOM     28  H12 UNL     1      -2.520  15.377   7.385  1.00  0.00     0.168 HD
BRANCH  27  29
HETATM   29  N13 UNL     1      -0.765  14.932   9.117  1.00  0.00    -0.383 N 
ATOM     30 2H13 UNL     1      -0.979  14.480  10.006  1.00  0.00     0.157 HD
ATOM     31 1H13 UNL     1      -0.468  15.907   9.146  1.00  0.00     0.157 HD
ENDBRANCH  27  29
ENDBRANCH  11  16
ENDBRANCH   7   8
BRANCH   1  32
HETATM   32  C2  UNL     1       4.431  10.878  14.071  1.00  0.00     0.706 A 
HETATM   33  N2  UNL     1       5.250  10.234  13.230  1.00  0.00    -0.174 N 
HETATM   34  C1  UNL     1       5.386   8.897  13.203  1.00  0.00     0.131 A 
ATOM     35  H2  UNL     1       5.801  10.788  12.574  1.00  0.00     0.186 HD
HETATM   36  C19 UNL     1       4.638   8.154  14.092  1.00  0.00     0.089 A 
HETATM   37  C18 UNL     1       3.801   8.829  14.950  1.00  0.00     0.126 A 
HETATM   38  N15 UNL     1       3.703  10.165  14.936  1.00  0.00    -0.199 N 
ATOM     39  H15 UNL     1       3.073  10.638  15.584  1.00  0.00     0.183 HD
BRANCH  34  40
HETATM   40  N1  UNL     1       6.187   8.299  12.377  1.00  0.00    -0.384 N 
ATOM     41  H12 UNL     1       7.190   8.479  12.421  1.00  0.00     0.157 HD
ATOM     42  H11 UNL     1       5.851   7.643  11.672  1.00  0.00     0.157 HD
ENDBRANCH  34  40
BRANCH  36  43
HETATM   43  C20 UNL     1       4.743   6.693  14.109  1.00  0.00     0.270 C 
HETATM   44  N16 UNL     1       3.622   5.848  14.050  1.00  0.00    -0.057 NA
HETATM   45  O3  UNL     1       5.897   6.181  14.179  1.00  0.00    -0.271 OA
ENDBRANCH  36  43
ENDBRANCH   1  32
BRANCH   4  46
HETATM   46  C4  UNL     1       4.842  15.629  15.336  1.00  0.00     0.287 C 
HETATM   47  O1  UNL     1       5.228  15.518  16.523  1.00  0.00    -0.264 OA
HETATM   48  N5  UNL     1       4.690  16.877  14.732  1.00  0.00    -0.354 N 
ATOM     49  H5  UNL     1       4.372  16.904  13.762  1.00  0.00     0.162 HD
BRANCH  48  50
HETATM   50  C5  UNL     1       4.954  18.123  15.391  1.00  0.00     0.132 C 
BRANCH  50  51
HETATM   51  C6  UNL     1       6.372  18.620  15.239  1.00  0.00     0.119 C 
BRANCH  51  52
HETATM   52  C7  UNL     1       6.559  19.354  13.970  1.00  0.00     0.232 C 
HETATM   53  N6  UNL     1       7.482  20.417  13.909  1.00  0.00    -0.062 NA
HETATM   54  O2  UNL     1       5.897  19.020  12.969  1.00  0.00    -0.277 OA
ENDBRANCH  51  52
ENDBRANCH  50  51
ENDBRANCH  48  50
ENDBRANCH   4  46
TORSDOF 10
ENDMDL
MODEL 4
REMARK VINA RESULT: -7.353776282      0.835      1.222
REMARK  10 active torsions:
REMARK  status: ('A' for Active; 'I' for Inactive)
REMARK    1  A    between atoms: N1_1  and  C1_4 
REMARK    2  A    between atoms: C2_7  and  N3_8 
REMARK    3  A    between atoms: C3_11  and  C4_12 
REMARK       I    between atoms: C4_12  and  N5_14 
REMARK    4  A    between atoms: N5_14  and  C5_16 
REMARK    5  A    between atoms: C5_16  and  C6_17 
REMARK    6  A    between atoms: C6_17  and  C7_18 
REMARK    7  A    between atoms: C8_23  and  C9_24 
REMARK    8  A    between atoms: C12_27  and  N8_28 
REMARK    9  A    between atoms: C15_39  and  N13_40 
REMARK   10  A    between atoms: C19_51  and  C20_52 
ROOT
HETATM    1  N3  UNL     1       3.280  10.523  13.005  1.00  0.00    -0.071 N 
HETATM    2  N4  UNL     1       4.272   9.662  13.245  1.00  0.00    -0.258 N 
ATOM      3  H4  UNL     1       5.267   9.852  13.123  1.00  0.00     0.190 HD
HETATM    4  C3  UNL     1       3.745   8.508  13.675  1.00  0.00     0.191 A 
HETATM    5  N7  UNL     1       2.408   8.694  13.687  1.00  0.00    -0.324 N 
ATOM      6  H7  UNL     1       1.725   7.991  13.969  1.00  0.00     0.169 HD
HETATM    7  C8  UNL     1       2.105   9.929  13.278  1.00  0.00     0.129 A 
ENDROOT
BRANCH   7   8
HETATM    8  C9  UNL     1       0.732  10.467  13.168  1.00  0.00     0.082 C 
HETATM    9  C10 UNL     1      -0.230   9.448  12.676  1.00  0.00     0.018 C 
HETATM   10  C11 UNL     1      -1.652   9.615  13.058  1.00  0.00     0.057 C 
HETATM   11  C12 UNL     1      -1.940  10.523  14.207  1.00  0.00     0.308 C 
HETATM   12  N14 UNL     1      -1.045  11.706  14.113  1.00  0.00    -0.052 N 
HETATM   13  C17 UNL     1       0.284  11.163  14.435  1.00  0.00     0.247 C 
ATOM     14 2H14 UNL     1      -1.094  12.202  13.223  1.00  0.00     0.279 HD
ATOM     15 1H14 UNL     1      -1.330  12.496  14.693  1.00  0.00     0.279 HD
BRANCH  11  16
HETATM   16  N8  UNL     1      -3.272  11.037  14.217  1.00  0.00    -0.239 N 
HETATM   17  N9  UNL     1      -4.015  11.318  13.142  1.00  0.00    -0.236 N 
HETATM   18  N10 UNL     1      -5.180  11.771  13.486  1.00  0.00    -0.269 N 
ATOM     19  H9  UNL     1      -3.706  11.193  12.178  1.00  0.00     0.208 HD
HETATM   20  C13 UNL     1      -5.259  11.810  14.839  1.00  0.00     0.154 A 
ATOM     21  H10 UNL     1      -5.919  12.053  12.841  1.00  0.00     0.190 HD
HETATM   22  N11 UNL     1      -6.215  12.186  15.700  1.00  0.00    -0.335 N 
HETATM   23  C16 UNL     1      -4.026  11.335  15.280  1.00  0.00     0.143 A 
HETATM   24  C14 UNL     1      -5.948  12.093  17.021  1.00  0.00     0.183 A 
ATOM     25  H11 UNL     1      -7.115  12.533  15.369  1.00  0.00     0.168 HD
HETATM   26  N12 UNL     1      -4.766  11.636  17.473  1.00  0.00    -0.337 N 
HETATM   27  C15 UNL     1      -3.779  11.248  16.633  1.00  0.00     0.132 A 
ATOM     28  H12 UNL     1      -4.610  11.582  18.480  1.00  0.00     0.168 HD
BRANCH  27  29
HETATM   29  N13 UNL     1      -2.654  10.810  17.118  1.00  0.00    -0.383 N 
ATOM     30 2H13 UNL     1      -2.066  11.364  17.740  1.00  0.00     0.157 HD
ATOM     31 1H13 UNL     1      -2.327   9.875  16.873  1.00  0.00     0.157 HD
ENDBRANCH  27  29
ENDBRANCH  11  16
ENDBRANCH   7   8
BRANCH   1  32
HETATM   32  C2  UNL     1       3.450  11.860  12.533  1.00  0.00     0.706 A 
HETATM   33  N2  UNL     1       3.857  12.056  11.272  1.00  0.00    -0.174 N 
HETATM   34  C1  UNL     1       4.047  13.273  10.734  1.00  0.00     0.131 A 
ATOM     35  H2  UNL     1       4.032  11.238  10.689  1.00  0.00     0.186 HD
HETATM   36  C19 UNL     1       3.809  14.375  11.529  1.00  0.00     0.089 A 
HETATM   37  C18 UNL     1       3.392  14.157  12.821  1.00  0.00     0.126 A 
HETATM   38  N15 UNL     1       3.217  12.922  13.310  1.00  0.00    -0.199 N 
ATOM     39  H15 UNL     1       2.906  12.792  14.272  1.00  0.00     0.183 HD
BRANCH  34  40
HETATM   40  N1  UNL     1       4.443  13.434   9.510  1.00  0.00    -0.384 N 
ATOM     41  H12 UNL     1       4.291  14.327   9.040  1.00  0.00     0.157 HD
ATOM     42  H11 UNL     1       4.911  12.694   8.988  1.00  0.00     0.157 HD
ENDBRANCH  34  40
BRANCH  36  43
HETATM   43  C20 UNL     1       4.000  15.727  10.998  1.00  0.00     0.270 C 
HETATM   44  N16 UNL     1       3.022  16.392  10.240  1.00  0.00    -0.057 NA
HETATM   45  O3  UNL     1       5.094  16.310  11.239  1.00  0.00    -0.271 OA
ENDBRANCH  36  43
ENDBRANCH   1  32
BRANCH   4  46
HETATM   46  C4  UNL     1       4.468   7.280  14.057  1.00  0.00     0.287 C 
HETATM   47  O1  UNL     1       3.795   6.315  14.491  1.00  0.00    -0.264 OA
HETATM   48  N5  UNL     1       5.855   7.205  13.934  1.00  0.00    -0.354 N 
ATOM     49  H5  UNL     1       6.350   8.022  13.575  1.00  0.00     0.162 HD
BRANCH  48  50
HETATM   50  C5  UNL     1       6.629   6.048  14.282  1.00  0.00     0.132 C 
BRANCH  50  51
HETATM   51  C6  UNL     1       6.790   5.047  13.162  1.00  0.00     0.119 C 
BRANCH  51  52
HETATM   52  C7  UNL     1       7.512   5.629  12.012  1.00  0.00     0.232 C 
HETATM   53  N6  UNL     1       7.736   4.846  10.861  1.00  0.00    -0.062 NA
HETATM   54  O2  UNL     1       7.913   6.807  12.075  1.00  0.00    -0.277 OA
ENDBRANCH  51  52
ENDBRANCH  50  51
ENDBRANCH  48  50
ENDBRANCH   4  46
TORSDOF 10
ENDMDL
MODEL 5
REMARK VINA RESULT: -7.298913425      5.159      9.080
REMARK  10 active torsions:
REMARK  status: ('A' for Active; 'I' for Inactive)
REMARK    1  A    between atoms: N1_1  and  C1_4 
REMARK    2  A    between atoms: C2_7  and  N3_8 
REMARK    3  A    between atoms: C3_11  and  C4_12 
REMARK       I    between atoms: C4_12  and  N5_14 
REMARK    4  A    between atoms: N5_14  and  C5_16 
REMARK    5  A    between atoms: C5_16  and  C6_17 
REMARK    6  A    between atoms: C6_17  and  C7_18 
REMARK    7  A    between atoms: C8_23  and  C9_24 
REMARK    8  A    between atoms: C12_27  and  N8_28 
REMARK    9  A    between atoms: C15_39  and  N13_40 
REMARK   10  A    between atoms: C19_51  and  C20_52 
ROOT
HETATM    1  N3  UNL     1       1.666  14.458   9.406  1.00  0.00    -0.071 N 
HETATM    2  N4  UNL     1       1.973  15.744   9.227  1.00  0.00    -0.258 N 
ATOM      3  H4  UNL     1       1.491  16.390   8.602  1.00  0.00     0.190 HD
HETATM    4  C3  UNL     1       3.020  16.049  10.006  1.00  0.00     0.191 A 
HETATM    5  N7  UNL     1       3.337  14.910  10.660  1.00  0.00    -0.324 N 
ATOM      6  H7  UNL     1       4.098  14.818  11.332  1.00  0.00     0.169 HD
HETATM    7  C8  UNL     1       2.513  13.922  10.302  1.00  0.00     0.129 A 
ENDROOT
BRANCH   7   8
HETATM    8  C9  UNL     1       2.578  12.540  10.824  1.00  0.00     0.082 C 
HETATM    9  C10 UNL     1       3.954  11.983  10.759  1.00  0.00     0.018 C 
HETATM   10  C11 UNL     1       4.302  10.918  11.730  1.00  0.00     0.057 C 
HETATM   11  C12 UNL     1       3.420  10.779  12.925  1.00  0.00     0.308 C 
HETATM   12  N14 UNL     1       2.009  10.972  12.499  1.00  0.00    -0.052 N 
HETATM   13  C17 UNL     1       1.933  12.409  12.186  1.00  0.00     0.247 C 
ATOM     14 2H14 UNL     1       1.711  10.359  11.740  1.00  0.00     0.279 HD
ATOM     15 1H14 UNL     1       1.316  10.651  13.176  1.00  0.00     0.279 HD
BRANCH  11  16
HETATM   16  N8  UNL     1       3.473   9.490  13.536  1.00  0.00    -0.239 N 
HETATM   17  N9  UNL     1       2.616   8.486  13.330  1.00  0.00    -0.236 N 
HETATM   18  N10 UNL     1       2.937   7.446  14.036  1.00  0.00    -0.269 N 
ATOM     19  H9  UNL     1       1.814   8.531  12.701  1.00  0.00     0.208 HD
HETATM   20  C13 UNL     1       4.050   7.727  14.757  1.00  0.00     0.154 A 
ATOM     21  H10 UNL     1       2.432   6.560  14.046  1.00  0.00     0.190 HD
HETATM   22  N11 UNL     1       4.788   7.027  15.631  1.00  0.00    -0.335 N 
HETATM   23  C16 UNL     1       4.371   9.039  14.418  1.00  0.00     0.143 A 
HETATM   24  C14 UNL     1       5.862   7.635  16.180  1.00  0.00     0.183 A 
ATOM     25  H11 UNL     1       4.546   6.067  15.873  1.00  0.00     0.168 HD
HETATM   26  N12 UNL     1       6.194   8.900  15.869  1.00  0.00    -0.337 N 
HETATM   27  C15 UNL     1       5.473   9.636  14.992  1.00  0.00     0.132 A 
ATOM     28  H12 UNL     1       7.016   9.318  16.308  1.00  0.00     0.168 HD
BRANCH  27  29
HETATM   29  N13 UNL     1       5.836  10.855  14.720  1.00  0.00    -0.383 N 
ATOM     30 2H13 UNL     1       6.783  11.200  14.880  1.00  0.00     0.157 HD
ATOM     31 1H13 UNL     1       5.158  11.511  14.332  1.00  0.00     0.157 HD
ENDBRANCH  27  29
ENDBRANCH  11  16
ENDBRANCH   7   8
BRANCH   1  32
HETATM   32  C2  UNL     1       0.603  13.768   8.746  1.00  0.00     0.706 A 
HETATM   33  N2  UNL     1       0.849  13.168   7.574  1.00  0.00    -0.174 N 
HETATM   34  C1  UNL     1      -0.081  12.496   6.875  1.00  0.00     0.131 A 
ATOM     35  H2  UNL     1       1.793  13.224   7.192  1.00  0.00     0.186 HD
HETATM   36  C19 UNL     1      -1.355  12.425   7.397  1.00  0.00     0.089 A 
HETATM   37  C18 UNL     1      -1.593  13.046   8.601  1.00  0.00     0.126 A 
HETATM   38  N15 UNL     1      -0.629  13.704   9.259  1.00  0.00    -0.199 N 
ATOM     39  H15 UNL     1      -0.835  14.155  10.150  1.00  0.00     0.183 HD
BRANCH  34  40
HETATM   40  N1  UNL     1       0.184  11.925   5.741  1.00  0.00    -0.384 N 
ATOM     41  H12 UNL     1       1.126  11.978   5.354  1.00  0.00     0.157 HD
ATOM     42  H11 UNL     1      -0.521  11.413   5.211  1.00  0.00     0.157 HD
ENDBRANCH  34  40
BRANCH  36  43
HETATM   43  C20 UNL     1      -2.412  11.706   6.679  1.00  0.00     0.270 C 
HETATM   44  N16 UNL     1      -2.722  10.360   6.931  1.00  0.00    -0.057 NA
HETATM   45  O3  UNL     1      -3.065  12.336   5.800  1.00  0.00    -0.271 OA
ENDBRANCH  36  43
ENDBRANCH   1  32
BRANCH   4  46
HETATM   46  C4  UNL     1       3.696  17.354  10.131  1.00  0.00     0.287 C 
HETATM   47  O1  UNL     1       3.453  18.225   9.263  1.00  0.00    -0.264 OA
HETATM   48  N5  UNL     1       4.575  17.600  11.186  1.00  0.00    -0.354 N 
ATOM     49  H5  UNL     1       4.734  16.852  11.862  1.00  0.00     0.162 HD
BRANCH  48  50
HETATM   50  C5  UNL     1       5.268  18.841  11.378  1.00  0.00     0.132 C 
BRANCH  50  51
HETATM   51  C6  UNL     1       5.739  19.079  12.793  1.00  0.00     0.119 C 
BRANCH  51  52
HETATM   52  C7  UNL     1       7.081  19.698  12.823  1.00  0.00     0.232 C 
HETATM   53  N6  UNL     1       7.518  20.356  13.990  1.00  0.00    -0.062 NA
HETATM   54  O2  UNL     1       7.808  19.628  11.814  1.00  0.00    -0.277 OA
ENDBRANCH  51  52
ENDBRANCH  50  51
ENDBRANCH  48  50
ENDBRANCH   4  46
TORSDOF 10
ENDMDL
