MODEL 1
REMARK VINA RESULT: -5.945806609      0.000      0.000
REMARK  5 active torsions:
REMARK  status: ('A' for Active; 'I' for Inactive)
REMARK    1  A    between atoms: C2_2  and  O2_4 
REMARK    2  A    between atoms: O2_4  and  C3_5 
REMARK    3  A    between atoms: N1_13  and  C11_14 
REMARK    4  A    between atoms: C11_14  and  C12_15 
REMARK    5  A    between atoms: N5_34  and  C23_35 
ROOT
HETATM    1  C3  UNL     1      13.454  45.007  16.602  1.00  0.00     0.367 C 
HETATM    2  C4  UNL     1      14.625  45.658  17.318  1.00  0.00     0.065 C 
HETATM    3  C5  UNL     1      15.398  44.679  18.179  1.00  0.00     0.004 C 
HETATM    4  C6  UNL     1      15.332  44.981  19.639  1.00  0.00     0.000 C 
HETATM    5  C7  UNL     1      16.605  44.641  20.375  1.00  0.00     0.000 C 
HETATM    6  C8  UNL     1      17.554  45.832  20.182  1.00  0.00     0.002 C 
HETATM    7  C9  UNL     1      18.903  45.527  20.797  1.00  0.00     0.030 C 
HETATM    8  C10 UNL     1      20.053  46.023  19.991  1.00  0.00     0.273 C 
HETATM    9  N1  UNL     1      20.423  47.404  20.253  1.00  0.00     0.096 N 
HETATM   10  C13 UNL     1      19.975  48.225  19.145  1.00  0.00     0.303 C 
HETATM   11  C14 UNL     1      21.089  48.594  18.189  1.00  0.00     0.302 C 
HETATM   12  N2  UNL     1      21.048  47.804  16.991  1.00  0.00     0.087 N 
HETATM   13  C15 UNL     1      22.214  46.933  16.912  1.00  0.00     0.310 C 
HETATM   14  C16 UNL     1      20.934  48.544  15.780  1.00  0.00     0.299 C 
HETATM   15  C17 UNL     1      19.554  49.007  15.455  1.00  0.00     0.262 C 
HETATM   16  N3  UNL     1      18.829  48.036  14.626  1.00  0.00    -0.073 N 
ATOM     17  H31 UNL     1      17.949  47.753  15.058  1.00  0.00     0.277 HD
ATOM     18  H32 UNL     1      19.293  47.128  14.614  1.00  0.00     0.277 HD
HETATM   19  C18 UNL     1      18.625  48.551  13.286  1.00  0.00     0.234 C 
HETATM   20  C19 UNL     1      17.153  48.474  12.952  1.00  0.00     0.055 C 
HETATM   21  C20 UNL     1      16.809  47.028  12.653  1.00  0.00     0.234 C 
HETATM   22  N4  UNL     1      16.478  46.281  13.836  1.00  0.00    -0.073 N 
ATOM     23  H41 UNL     1      16.336  46.880  14.648  1.00  0.00     0.277 HD
ATOM     24  H42 UNL     1      17.269  45.744  14.191  1.00  0.00     0.277 HD
HETATM   25  C21 UNL     1      15.334  45.454  13.555  1.00  0.00     0.262 C 
HETATM   26  C22 UNL     1      14.895  44.652  14.771  1.00  0.00     0.303 C 
HETATM   27  N5  UNL     1      13.608  45.101  15.204  1.00  0.00     0.123 N 
ENDROOT
BRANCH   1  28
HETATM   28  O2  UNL     1      12.271  45.475  17.158  1.00  0.00    -0.285 OA
BRANCH  28  29
HETATM   29  C2  UNL     1      11.386  44.748  17.903  1.00  0.00     0.256 C 
HETATM   30  C1  UNL     1       9.940  44.786  17.612  1.00  0.00     0.126 C 
HETATM   31  O1  UNL     1      11.809  44.044  18.840  1.00  0.00    -0.266 OA
ENDBRANCH  28  29
ENDBRANCH   1  28
BRANCH  27  32
HETATM   32  C23 UNL     1      12.572  44.647  14.364  1.00  0.00     0.218 C 
HETATM   33  C24 UNL     1      12.039  43.274  14.682  1.00  0.00     0.042 C 
HETATM   34  C25 UNL     1      11.391  45.573  14.202  1.00  0.00     0.042 C 
ENDBRANCH  27  32
BRANCH   9  35
HETATM   35  C11 UNL     1      19.991  47.858  21.535  1.00  0.00     0.341 C 
BRANCH  35  36
HETATM   36  C12 UNL     1      19.055  48.994  21.372  1.00  0.00     0.261 C 
HETATM   37  O3  UNL     1      18.685  49.750  22.245  1.00  0.00    -0.305 OA
ENDBRANCH  35  36
ENDBRANCH   9  35
TORSDOF 5
ENDMDL
MODEL 2
REMARK VINA RESULT: -5.888100700      2.664      3.411
REMARK  5 active torsions:
REMARK  status: ('A' for Active; 'I' for Inactive)
REMARK    1  A    between atoms: C2_2  and  O2_4 
REMARK    2  A    between atoms: O2_4  and  C3_5 
REMARK    3  A    between atoms: N1_13  and  C11_14 
REMARK    4  A    between atoms: C11_14  and  C12_15 
REMARK    5  A    between atoms: N5_34  and  C23_35 
ROOT
HETATM    1  C3  UNL     1      11.731  43.574  14.779  1.00  0.00     0.367 C 
HETATM    2  C4  UNL     1      12.905  44.347  15.355  1.00  0.00     0.065 C 
HETATM    3  C5  UNL     1      13.231  43.936  16.777  1.00  0.00     0.004 C 
HETATM    4  C6  UNL     1      13.017  45.022  17.779  1.00  0.00     0.000 C 
HETATM    5  C7  UNL     1      14.013  44.989  18.913  1.00  0.00     0.000 C 
HETATM    6  C8  UNL     1      15.271  45.711  18.412  1.00  0.00     0.002 C 
HETATM    7  C9  UNL     1      16.367  45.627  19.452  1.00  0.00     0.030 C 
HETATM    8  C10 UNL     1      17.724  45.409  18.876  1.00  0.00     0.273 C 
HETATM    9  N1  UNL     1      18.412  46.626  18.478  1.00  0.00     0.096 N 
HETATM   10  C13 UNL     1      18.392  46.722  17.032  1.00  0.00     0.303 C 
HETATM   11  C14 UNL     1      19.702  46.322  16.389  1.00  0.00     0.302 C 
HETATM   12  N2  UNL     1      19.638  45.005  15.820  1.00  0.00     0.087 N 
HETATM   13  C15 UNL     1      20.515  44.091  16.542  1.00  0.00     0.310 C 
HETATM   14  C16 UNL     1      19.927  44.930  14.428  1.00  0.00     0.299 C 
HETATM   15  C17 UNL     1      18.799  45.312  13.531  1.00  0.00     0.262 C 
HETATM   16  N3  UNL     1      17.976  44.154  13.157  1.00  0.00    -0.073 N 
ATOM     17  H31 UNL     1      16.995  44.293  13.401  1.00  0.00     0.277 HD
ATOM     18  H32 UNL     1      18.169  43.347  13.751  1.00  0.00     0.277 HD
HETATM   19  C18 UNL     1      18.139  43.836  11.753  1.00  0.00     0.234 C 
HETATM   20  C19 UNL     1      16.776  43.788  11.101  1.00  0.00     0.055 C 
HETATM   21  C20 UNL     1      16.100  42.495  11.510  1.00  0.00     0.234 C 
HETATM   22  N4  UNL     1      15.391  42.609  12.756  1.00  0.00    -0.073 N 
ATOM     23  H41 UNL     1      15.291  43.577  13.060  1.00  0.00     0.277 HD
ATOM     24  H42 UNL     1      15.936  42.267  13.547  1.00  0.00     0.277 HD
HETATM   25  C21 UNL     1      14.124  41.939  12.630  1.00  0.00     0.262 C 
HETATM   26  C22 UNL     1      13.292  42.043  13.900  1.00  0.00     0.303 C 
HETATM   27  N5  UNL     1      12.127  42.832  13.647  1.00  0.00     0.123 N 
ENDROOT
BRANCH   1  28
HETATM   28  O2  UNL     1      10.650  44.435  14.646  1.00  0.00    -0.285 OA
BRANCH  28  29
HETATM   29  C2  UNL     1       9.501  44.409  15.386  1.00  0.00     0.256 C 
HETATM   30  C1  UNL     1       9.507  44.803  16.808  1.00  0.00     0.126 C 
HETATM   31  O1  UNL     1       8.437  44.047  14.851  1.00  0.00    -0.266 OA
ENDBRANCH  28  29
ENDBRANCH   1  28
BRANCH  27  32
HETATM   32  C23 UNL     1      11.154  42.131  12.909  1.00  0.00     0.218 C 
HETATM   33  C24 UNL     1      10.251  41.235  13.717  1.00  0.00     0.042 C 
HETATM   34  C25 UNL     1      10.282  42.960  11.996  1.00  0.00     0.042 C 
ENDBRANCH  27  32
BRANCH   9  35
HETATM   35  C11 UNL     1      17.923  47.785  19.153  1.00  0.00     0.341 C 
BRANCH  35  36
HETATM   36  C12 UNL     1      18.914  48.232  20.157  1.00  0.00     0.261 C 
HETATM   37  O3  UNL     1      18.719  49.022  21.056  1.00  0.00    -0.305 OA
ENDBRANCH  35  36
ENDBRANCH   9  35
TORSDOF 5
ENDMDL
MODEL 3
REMARK VINA RESULT: -5.865879893      1.799      2.089
REMARK  5 active torsions:
REMARK  status: ('A' for Active; 'I' for Inactive)
REMARK    1  A    between atoms: C2_2  and  O2_4 
REMARK    2  A    between atoms: O2_4  and  C3_5 
REMARK    3  A    between atoms: N1_13  and  C11_14 
REMARK    4  A    between atoms: C11_14  and  C12_15 
REMARK    5  A    between atoms: N5_34  and  C23_35 
ROOT
HETATM    1  C3  UNL     1      14.554  45.484  17.322  1.00  0.00     0.367 C 
HETATM    2  C4  UNL     1      15.752  45.920  18.148  1.00  0.00     0.065 C 
HETATM    3  C5  UNL     1      16.376  44.774  18.919  1.00  0.00     0.004 C 
HETATM    4  C6  UNL     1      16.274  44.922  20.401  1.00  0.00     0.000 C 
HETATM    5  C7  UNL     1      17.468  44.366  21.138  1.00  0.00     0.000 C 
HETATM    6  C8  UNL     1      18.546  45.458  21.112  1.00  0.00     0.002 C 
HETATM    7  C9  UNL     1      19.825  44.940  21.736  1.00  0.00     0.030 C 
HETATM    8  C10 UNL     1      21.058  45.389  21.031  1.00  0.00     0.273 C 
HETATM    9  N1  UNL     1      21.560  46.684  21.459  1.00  0.00     0.096 N 
HETATM   10  C13 UNL     1      21.255  47.665  20.436  1.00  0.00     0.303 C 
HETATM   11  C14 UNL     1      22.446  48.008  19.566  1.00  0.00     0.302 C 
HETATM   12  N2  UNL     1      22.377  47.362  18.286  1.00  0.00     0.087 N 
HETATM   13  C15 UNL     1      23.445  46.379  18.150  1.00  0.00     0.310 C 
HETATM   14  C16 UNL     1      22.399  48.236  17.163  1.00  0.00     0.299 C 
HETATM   15  C17 UNL     1      21.093  48.882  16.844  1.00  0.00     0.262 C 
HETATM   16  N3  UNL     1      20.307  48.092  15.886  1.00  0.00    -0.073 N 
ATOM     17  H31 UNL     1      19.384  47.863  16.254  1.00  0.00     0.277 HD
ATOM     18  H32 UNL     1      20.673  47.145  15.788  1.00  0.00     0.277 HD
HETATM   19  C18 UNL     1      20.223  48.767  14.607  1.00  0.00     0.234 C 
HETATM   20  C19 UNL     1      18.768  48.891  14.215  1.00  0.00     0.055 C 
HETATM   21  C20 UNL     1      18.286  47.534  13.744  1.00  0.00     0.234 C 
HETATM   22  N4  UNL     1      17.823  46.704  14.823  1.00  0.00    -0.073 N 
ATOM     23  H41 UNL     1      17.707  47.225  15.692  1.00  0.00     0.277 HD
ATOM     24  H42 UNL     1      18.534  46.048  15.143  1.00  0.00     0.277 HD
HETATM   25  C21 UNL     1      16.611  46.045  14.412  1.00  0.00     0.262 C 
HETATM   26  C22 UNL     1      16.033  45.170  15.514  1.00  0.00     0.303 C 
HETATM   27  N5  UNL     1      14.783  45.710  15.950  1.00  0.00     0.123 N 
ENDROOT
BRANCH   1  28
HETATM   28  O2  UNL     1      13.403  46.019  17.886  1.00  0.00    -0.285 OA
BRANCH  28  29
HETATM   29  C2  UNL     1      12.620  45.427  18.837  1.00  0.00     0.256 C 
HETATM   30  C1  UNL     1      11.827  44.222  18.524  1.00  0.00     0.126 C 
HETATM   31  O1  UNL     1      12.577  45.913  19.983  1.00  0.00    -0.266 OA
ENDBRANCH  28  29
ENDBRANCH   1  28
BRANCH  27  32
HETATM   32  C23 UNL     1      13.745  45.468  15.029  1.00  0.00     0.218 C 
HETATM   33  C24 UNL     1      13.135  44.091  15.092  1.00  0.00     0.042 C 
HETATM   34  C25 UNL     1      12.616  46.471  15.016  1.00  0.00     0.042 C 
ENDBRANCH  27  32
BRANCH   9  35
HETATM   35  C11 UNL     1      21.120  47.043  22.768  1.00  0.00     0.341 C 
BRANCH  35  36
HETATM   36  C12 UNL     1      22.152  46.667  23.761  1.00  0.00     0.261 C 
HETATM   37  O3  UNL     1      21.952  46.296  24.898  1.00  0.00    -0.305 OA
ENDBRANCH  35  36
ENDBRANCH   9  35
TORSDOF 5
ENDMDL
MODEL 4
REMARK VINA RESULT: -5.741022288      2.244      2.983
REMARK  5 active torsions:
REMARK  status: ('A' for Active; 'I' for Inactive)
REMARK    1  A    between atoms: C2_2  and  O2_4 
REMARK    2  A    between atoms: O2_4  and  C3_5 
REMARK    3  A    between atoms: N1_13  and  C11_14 
REMARK    4  A    between atoms: C11_14  and  C12_15 
REMARK    5  A    between atoms: N5_34  and  C23_35 
ROOT
HETATM    1  C3  UNL     1      12.003  43.862  15.900  1.00  0.00     0.367 C 
HETATM    2  C4  UNL     1      13.267  44.626  16.256  1.00  0.00     0.065 C 
HETATM    3  C5  UNL     1      13.849  44.199  17.589  1.00  0.00     0.004 C 
HETATM    4  C6  UNL     1      13.830  45.274  18.625  1.00  0.00     0.000 C 
HETATM    5  C7  UNL     1      15.018  45.226  19.554  1.00  0.00     0.000 C 
HETATM    6  C8  UNL     1      16.165  45.951  18.836  1.00  0.00     0.002 C 
HETATM    7  C9  UNL     1      17.435  45.853  19.654  1.00  0.00     0.030 C 
HETATM    8  C10 UNL     1      18.659  45.638  18.834  1.00  0.00     0.273 C 
HETATM    9  N1  UNL     1      19.268  46.858  18.328  1.00  0.00     0.096 N 
HETATM   10  C13 UNL     1      18.980  46.970  16.912  1.00  0.00     0.303 C 
HETATM   11  C14 UNL     1      20.147  46.574  16.033  1.00  0.00     0.302 C 
HETATM   12  N2  UNL     1      19.972  45.263  15.472  1.00  0.00     0.087 N 
HETATM   13  C15 UNL     1      20.964  44.340  16.009  1.00  0.00     0.310 C 
HETATM   14  C16 UNL     1      19.998  45.204  14.050  1.00  0.00     0.299 C 
HETATM   15  C17 UNL     1      18.725  45.598  13.382  1.00  0.00     0.262 C 
HETATM   16  N3  UNL     1      17.842  44.446  13.155  1.00  0.00    -0.073 N 
ATOM     17  H31 UNL     1      16.924  44.585  13.578  1.00  0.00     0.277 HD
ATOM     18  H32 UNL     1      18.138  43.632  13.694  1.00  0.00     0.277 HD
HETATM   19  C18 UNL     1      17.740  44.143  11.742  1.00  0.00     0.234 C 
HETATM   20  C19 UNL     1      16.280  44.105  11.353  1.00  0.00     0.055 C 
HETATM   21  C20 UNL     1      15.686  42.809  11.867  1.00  0.00     0.234 C 
HETATM   22  N4  UNL     1      15.220  42.911  13.224  1.00  0.00    -0.073 N 
ATOM     23  H41 UNL     1      15.183  43.877  13.551  1.00  0.00     0.277 HD
ATOM     24  H42 UNL     1      15.901  42.559  13.896  1.00  0.00     0.277 HD
HETATM   25  C21 UNL     1      13.949  42.246  13.328  1.00  0.00     0.262 C 
HETATM   26  C22 UNL     1      13.368  42.337  14.731  1.00  0.00     0.303 C 
HETATM   27  N5  UNL     1      12.179  43.132  14.707  1.00  0.00     0.123 N 
ENDROOT
BRANCH   1  28
HETATM   28  O2  UNL     1      10.920  44.727  15.979  1.00  0.00    -0.285 OA
BRANCH  28  29
HETATM   29  C2  UNL     1       9.897  44.659  16.882  1.00  0.00     0.256 C 
HETATM   30  C1  UNL     1      10.146  44.839  18.325  1.00  0.00     0.126 C 
HETATM   31  O1  UNL     1       8.738  44.441  16.479  1.00  0.00    -0.266 OA
ENDBRANCH  28  29
ENDBRANCH   1  28
BRANCH  27  32
HETATM   32  C23 UNL     1      11.084  42.441  14.154  1.00  0.00     0.218 C 
HETATM   33  C24 UNL     1      10.501  43.050  12.905  1.00  0.00     0.042 C 
HETATM   34  C25 UNL     1      11.285  40.967  13.898  1.00  0.00     0.042 C 
ENDBRANCH  27  32
BRANCH   9  35
HETATM   35  C11 UNL     1      18.917  48.010  19.094  1.00  0.00     0.341 C 
BRANCH  35  36
HETATM   36  C12 UNL     1      20.093  48.472  19.865  1.00  0.00     0.261 C 
HETATM   37  O3  UNL     1      20.071  49.030  20.942  1.00  0.00    -0.305 OA
ENDBRANCH  35  36
ENDBRANCH   9  35
TORSDOF 5
ENDMDL
MODEL 5
REMARK VINA RESULT: -5.647813262      1.203      1.362
REMARK  5 active torsions:
REMARK  status: ('A' for Active; 'I' for Inactive)
REMARK    1  A    between atoms: C2_2  and  O2_4 
REMARK    2  A    between atoms: O2_4  and  C3_5 
REMARK    3  A    between atoms: N1_13  and  C11_14 
REMARK    4  A    between atoms: C11_14  and  C12_15 
REMARK    5  A    between atoms: N5_34  and  C23_35 
ROOT
HETATM    1  C3  UNL     1      13.907  45.127  16.991  1.00  0.00     0.367 C 
HETATM    2  C4  UNL     1      15.120  45.679  17.719  1.00  0.00     0.065 C 
HETATM    3  C5  UNL     1      15.846  44.619  18.525  1.00  0.00     0.004 C 
HETATM    4  C6  UNL     1      15.813  44.858  19.998  1.00  0.00     0.000 C 
HETATM    5  C7  UNL     1      17.072  44.414  20.701  1.00  0.00     0.000 C 
HETATM    6  C8  UNL     1      18.086  45.557  20.548  1.00  0.00     0.002 C 
HETATM    7  C9  UNL     1      19.421  45.149  21.131  1.00  0.00     0.030 C 
HETATM    8  C10 UNL     1      20.590  45.615  20.333  1.00  0.00     0.273 C 
HETATM    9  N1  UNL     1      21.040  46.960  20.651  1.00  0.00     0.096 N 
HETATM   10  C13 UNL     1      20.629  47.854  19.587  1.00  0.00     0.303 C 
HETATM   11  C14 UNL     1      21.751  48.202  18.633  1.00  0.00     0.302 C 
HETATM   12  N2  UNL     1      21.652  47.470  17.402  1.00  0.00     0.087 N 
HETATM   13  C15 UNL     1      22.766  46.538  17.268  1.00  0.00     0.310 C 
HETATM   14  C16 UNL     1      21.568  48.269  16.227  1.00  0.00     0.299 C 
HETATM   15  C17 UNL     1      20.213  48.824  15.941  1.00  0.00     0.262 C 
HETATM   16  N3  UNL     1      19.424  47.933  15.079  1.00  0.00    -0.073 N 
ATOM     17  H31 UNL     1      18.535  47.681  15.510  1.00  0.00     0.277 HD
ATOM     18  H32 UNL     1      19.836  47.002  15.020  1.00  0.00     0.277 HD
HETATM   19  C18 UNL     1      19.236  48.519  13.767  1.00  0.00     0.234 C 
HETATM   20  C19 UNL     1      17.758  48.540  13.448  1.00  0.00     0.055 C 
HETATM   21  C20 UNL     1      17.329  47.132  13.090  1.00  0.00     0.234 C 
HETATM   22  N4  UNL     1      16.969  46.351  14.243  1.00  0.00    -0.073 N 
ATOM     23  H41 UNL     1      16.870  46.921  15.084  1.00  0.00     0.277 HD
ATOM     24  H42 UNL     1      17.731  45.755  14.564  1.00  0.00     0.277 HD
HETATM   25  C21 UNL     1      15.776  45.605  13.942  1.00  0.00     0.262 C 
HETATM   26  C22 UNL     1      15.306  44.774  15.126  1.00  0.00     0.303 C 
HETATM   27  N5  UNL     1      14.051  45.276  15.596  1.00  0.00     0.123 N 
ENDROOT
BRANCH   1  28
HETATM   28  O2  UNL     1      12.759  45.637  17.582  1.00  0.00    -0.285 OA
BRANCH  28  29
HETATM   29  C2  UNL     1      12.169  45.178  18.727  1.00  0.00     0.256 C 
HETATM   30  C1  UNL     1      12.206  45.972  19.970  1.00  0.00     0.126 C 
HETATM   31  O1  UNL     1      11.595  44.073  18.718  1.00  0.00    -0.266 OA
ENDBRANCH  28  29
ENDBRANCH   1  28
BRANCH  27  32
HETATM   32  C23 UNL     1      12.982  44.920  14.751  1.00  0.00     0.218 C 
HETATM   33  C24 UNL     1      12.293  43.623  15.093  1.00  0.00     0.042 C 
HETATM   34  C25 UNL     1      11.915  45.968  14.547  1.00  0.00     0.042 C 
ENDBRANCH  27  32
BRANCH   9  35
HETATM   35  C11 UNL     1      20.649  47.379  21.958  1.00  0.00     0.341 C 
BRANCH  35  36
HETATM   36  C12 UNL     1      21.714  47.041  22.929  1.00  0.00     0.261 C 
HETATM   37  O3  UNL     1      21.599  46.999  24.135  1.00  0.00    -0.305 OA
ENDBRANCH  35  36
ENDBRANCH   9  35
TORSDOF 5
ENDMDL
