MODEL 1
REMARK VINA RESULT: -7.109347164      0.000      0.000
REMARK  6 active torsions:
REMARK  status: ('A' for Active; 'I' for Inactive)
REMARK    1  A    between atoms: O1_3  and  C3_4 
REMARK    2  A    between atoms: C5_7  and  C6_8 
REMARK    3  A    between atoms: C13_15  and  O3_16 
REMARK    4  A    between atoms: C18_22  and  O4_23 
REMARK    5  A    between atoms: C19_26  and  C20_27 
REMARK    6  A    between atoms: C20_27  and  O6_28 
ROOT
HETATM    1  C1  UNL     1      12.949  48.815  14.771  1.00  0.00     0.044 C 
HETATM    2  C2  UNL     1      13.377  47.695  14.883  1.00  0.00     0.043 C 
HETATM    3  O1  UNL     1      13.863  46.434  15.031  1.00  0.00    -0.293 OA
ENDROOT
BRANCH   3   4
HETATM    4  C3  UNL     1      13.356  45.464  15.888  1.00  0.00     0.203 C 
HETATM    5  C4  UNL     1      13.393  45.958  17.341  1.00  0.00     0.186 C 
HETATM    6  O2  UNL     1      14.675  46.192  17.769  1.00  0.00    -0.348 OA
HETATM    7  C25 UNL     1      12.659  44.942  18.122  1.00  0.00    -0.056 C 
HETATM    8  C5  UNL     1      15.511  45.075  17.678  1.00  0.00     0.269 C 
HETATM    9  O8  UNL     1      15.482  44.658  16.377  1.00  0.00    -0.352 OA
HETATM   10  C21 UNL     1      14.276  44.263  15.876  1.00  0.00     0.165 C 
HETATM   11  C22 UNL     1      13.580  43.172  16.640  1.00  0.00     0.036 C 
HETATM   12  C23 UNL     1      12.700  42.422  15.651  1.00  0.00     0.017 C 
HETATM   13  C24 UNL     1      12.763  43.674  17.780  1.00  0.00    -0.015 C 
HETATM   14  C26 UNL     1      11.816  45.317  19.274  1.00  0.00     0.046 C 
BRANCH   8  15
HETATM   15  C6  UNL     1      16.965  45.602  17.914  1.00  0.00     0.068 C 
HETATM   16  C7  UNL     1      17.884  44.981  16.949  1.00  0.00    -0.018 C 
HETATM   17  C8  UNL     1      19.111  45.183  16.607  1.00  0.00     0.007 C 
HETATM   18  C9  UNL     1      20.134  46.188  17.092  1.00  0.00     0.079 C 
HETATM   19  C10 UNL     1      20.943  46.651  15.880  1.00  0.00     0.051 C 
HETATM   20  C11 UNL     1      21.151  45.533  17.956  1.00  0.00     0.044 C 
HETATM   21  O7  UNL     1      19.608  47.376  17.545  1.00  0.00    -0.334 OA
HETATM   22  C12 UNL     1      20.867  45.164  19.333  1.00  0.00     0.036 C 
HETATM   23  C13 UNL     1      19.482  44.891  19.771  1.00  0.00     0.132 C 
HETATM   24  C14 UNL     1      18.530  46.004  19.927  1.00  0.00     0.048 C 
HETATM   25  C15 UNL     1      18.224  46.280  21.421  1.00  0.00     0.024 C 
HETATM   26  C16 UNL     1      17.205  45.519  19.353  1.00  0.00     0.010 C 
HETATM   27  C18 UNL     1      18.885  47.355  19.433  1.00  0.00     0.235 A 
HETATM   28  C17 UNL     1      16.821  44.196  19.997  1.00  0.00     0.012 C 
HETATM   29  O5  UNL     1      19.625  48.297  19.951  1.00  0.00    -0.305 OA
HETATM   30  C19 UNL     1      20.030  47.704  18.792  1.00  0.00     0.248 A 
BRANCH  23  31
HETATM   31  O3  UNL     1      19.619  44.264  21.023  1.00  0.00    -0.395 OA
ATOM     32  H3  UNL     1      19.111  44.801  21.620  1.00  0.00     0.210 HD
ENDBRANCH  23  31
BRANCH  27  33
HETATM   33  O4  UNL     1      17.663  48.111  19.228  1.00  0.00    -0.360 OA
ATOM     34  H4  UNL     1      16.936  47.617  19.588  1.00  0.00     0.213 HD
ENDBRANCH  27  33
BRANCH  30  35
HETATM   35  C20 UNL     1      21.258  48.548  18.621  1.00  0.00     0.238 C 
BRANCH  35  36
HETATM   36  O6  UNL     1      21.067  49.588  17.666  1.00  0.00    -0.395 OA
ATOM     37  H6  UNL     1      20.586  50.323  18.028  1.00  0.00     0.209 HD
ENDBRANCH  35  36
ENDBRANCH  30  35
ENDBRANCH   8  15
ENDBRANCH   3   4
TORSDOF 6
ENDMDL
MODEL 2
REMARK VINA RESULT: -6.905839308      1.622      3.721
REMARK  6 active torsions:
REMARK  status: ('A' for Active; 'I' for Inactive)
REMARK    1  A    between atoms: O1_3  and  C3_4 
REMARK    2  A    between atoms: C5_7  and  C6_8 
REMARK    3  A    between atoms: C13_15  and  O3_16 
REMARK    4  A    between atoms: C18_22  and  O4_23 
REMARK    5  A    between atoms: C19_26  and  C20_27 
REMARK    6  A    between atoms: C20_27  and  O6_28 
ROOT
HETATM    1  C1  UNL     1      10.975  46.651  20.635  1.00  0.00     0.044 C 
HETATM    2  C2  UNL     1      11.971  46.300  20.056  1.00  0.00     0.043 C 
HETATM    3  O1  UNL     1      13.085  45.883  19.398  1.00  0.00    -0.293 OA
ENDROOT
BRANCH   3   4
HETATM    4  C3  UNL     1      13.134  45.452  18.077  1.00  0.00     0.203 C 
HETATM    5  C4  UNL     1      13.987  44.182  17.958  1.00  0.00     0.186 C 
HETATM    6  O2  UNL     1      15.290  44.405  18.320  1.00  0.00    -0.348 OA
HETATM    7  C25 UNL     1      13.805  43.713  16.570  1.00  0.00    -0.056 C 
HETATM    8  C5  UNL     1      15.917  45.409  17.576  1.00  0.00     0.269 C 
HETATM    9  O8  UNL     1      15.158  46.537  17.706  1.00  0.00    -0.352 OA
HETATM   10  C21 UNL     1      13.874  46.479  17.248  1.00  0.00     0.165 C 
HETATM   11  C22 UNL     1      13.713  46.077  15.809  1.00  0.00     0.036 C 
HETATM   12  C23 UNL     1      12.420  46.704  15.309  1.00  0.00     0.017 C 
HETATM   13  C24 UNL     1      13.683  44.602  15.605  1.00  0.00    -0.015 C 
HETATM   14  C26 UNL     1      13.759  42.274  16.242  1.00  0.00     0.046 C 
BRANCH   8  15
HETATM   15  C6  UNL     1      17.259  45.723  18.315  1.00  0.00     0.068 C 
HETATM   16  C7  UNL     1      17.400  47.175  18.499  1.00  0.00    -0.018 C 
HETATM   17  C8  UNL     1      18.200  47.930  19.172  1.00  0.00     0.007 C 
HETATM   18  C9  UNL     1      19.368  47.597  20.077  1.00  0.00     0.079 C 
HETATM   19  C10 UNL     1      19.336  48.570  21.255  1.00  0.00     0.051 C 
HETATM   20  C11 UNL     1      20.660  47.907  19.409  1.00  0.00     0.044 C 
HETATM   21  O7  UNL     1      19.276  46.383  20.717  1.00  0.00    -0.334 OA
HETATM   22  C12 UNL     1      21.218  47.047  18.379  1.00  0.00     0.036 C 
HETATM   23  C13 UNL     1      20.342  46.185  17.559  1.00  0.00     0.132 C 
HETATM   24  C14 UNL     1      19.727  44.986  18.154  1.00  0.00     0.048 C 
HETATM   25  C15 UNL     1      20.374  43.689  17.605  1.00  0.00     0.024 C 
HETATM   26  C16 UNL     1      18.294  44.939  17.643  1.00  0.00     0.010 C 
HETATM   27  C18 UNL     1      19.801  44.768  19.618  1.00  0.00     0.235 A 
HETATM   28  C17 UNL     1      18.288  45.028  16.125  1.00  0.00     0.012 C 
HETATM   29  O5  UNL     1      20.755  44.301  20.375  1.00  0.00    -0.305 OA
HETATM   30  C19 UNL     1      20.368  45.599  20.529  1.00  0.00     0.248 A 
BRANCH  23  31
HETATM   31  O3  UNL     1      21.153  45.766  16.488  1.00  0.00    -0.395 OA
ATOM     32  H3  UNL     1      21.185  44.819  16.565  1.00  0.00     0.210 HD
ENDBRANCH  23  31
BRANCH  27  33
HETATM   33  O4  UNL     1      18.736  43.861  20.006  1.00  0.00    -0.360 OA
ATOM     34  H4  UNL     1      18.660  43.869  20.953  1.00  0.00     0.213 HD
ENDBRANCH  27  33
BRANCH  30  35
HETATM   35  C20 UNL     1      21.306  45.894  21.662  1.00  0.00     0.238 C 
BRANCH  35  36
HETATM   36  O6  UNL     1      20.666  45.796  22.931  1.00  0.00    -0.395 OA
ATOM     37  H6  UNL     1      20.105  46.541  23.108  1.00  0.00     0.209 HD
ENDBRANCH  35  36
ENDBRANCH  30  35
ENDBRANCH   8  15
ENDBRANCH   3   4
TORSDOF 6
ENDMDL
MODEL 3
REMARK VINA RESULT: -6.763715449      1.909      4.305
REMARK  6 active torsions:
REMARK  status: ('A' for Active; 'I' for Inactive)
REMARK    1  A    between atoms: O1_3  and  C3_4 
REMARK    2  A    between atoms: C5_7  and  C6_8 
REMARK    3  A    between atoms: C13_15  and  O3_16 
REMARK    4  A    between atoms: C18_22  and  O4_23 
REMARK    5  A    between atoms: C19_26  and  C20_27 
REMARK    6  A    between atoms: C20_27  and  O6_28 
ROOT
HETATM    1  C1  UNL     1      14.044  40.107  14.594  1.00  0.00     0.044 C 
HETATM    2  C2  UNL     1      13.673  40.963  15.355  1.00  0.00     0.043 C 
HETATM    3  O1  UNL     1      13.265  41.946  16.201  1.00  0.00    -0.293 OA
ENDROOT
BRANCH   3   4
HETATM    4  C3  UNL     1      12.528  43.070  15.846  1.00  0.00     0.203 C 
HETATM    5  C4  UNL     1      13.342  43.968  14.904  1.00  0.00     0.186 C 
HETATM    6  O2  UNL     1      14.476  44.448  15.507  1.00  0.00    -0.348 OA
HETATM    7  C25 UNL     1      12.402  45.010  14.444  1.00  0.00    -0.056 C 
HETATM    8  C5  UNL     1      14.227  45.172  16.677  1.00  0.00     0.269 C 
HETATM    9  O8  UNL     1      13.520  44.355  17.512  1.00  0.00    -0.352 OA
HETATM   10  C21 UNL     1      12.302  43.922  17.075  1.00  0.00     0.165 C 
HETATM   11  C22 UNL     1      11.329  45.000  16.686  1.00  0.00     0.036 C 
HETATM   12  C23 UNL     1       9.930  44.442  16.898  1.00  0.00     0.017 C 
HETATM   13  C24 UNL     1      11.491  45.465  15.280  1.00  0.00    -0.015 C 
HETATM   14  C26 UNL     1      12.462  45.551  13.071  1.00  0.00     0.046 C 
BRANCH   8  15
HETATM   15  C6  UNL     1      15.617  45.370  17.368  1.00  0.00     0.068 C 
HETATM   16  C7  UNL     1      15.438  45.503  18.821  1.00  0.00    -0.018 C 
HETATM   17  C8  UNL     1      16.235  45.512  19.835  1.00  0.00     0.007 C 
HETATM   18  C9  UNL     1      17.741  45.386  19.927  1.00  0.00     0.079 C 
HETATM   19  C10 UNL     1      18.063  44.544  21.162  1.00  0.00     0.051 C 
HETATM   20  C11 UNL     1      18.365  46.700  20.234  1.00  0.00     0.044 C 
HETATM   21  O7  UNL     1      18.322  44.643  18.926  1.00  0.00    -0.334 OA
HETATM   22  C12 UNL     1      18.516  47.733  19.223  1.00  0.00     0.036 C 
HETATM   23  C13 UNL     1      17.611  47.787  18.057  1.00  0.00     0.132 C 
HETATM   24  C14 UNL     1      17.739  46.788  16.982  1.00  0.00     0.048 C 
HETATM   25  C15 UNL     1      18.329  47.418  15.694  1.00  0.00     0.024 C 
HETATM   26  C16 UNL     1      16.321  46.390  16.593  1.00  0.00     0.010 C 
HETATM   27  C18 UNL     1      18.613  45.607  17.172  1.00  0.00     0.235 A 
HETATM   28  C17 UNL     1      15.508  47.636  16.275  1.00  0.00     0.012 C 
HETATM   29  O5  UNL     1      19.905  45.462  17.066  1.00  0.00    -0.305 OA
HETATM   30  C19 UNL     1      19.323  45.300  18.287  1.00  0.00     0.248 A 
BRANCH  23  31
HETATM   31  O3  UNL     1      17.829  49.057  17.491  1.00  0.00    -0.395 OA
ATOM     32  H3  UNL     1      17.363  49.037  16.664  1.00  0.00     0.210 HD
ENDBRANCH  23  31
BRANCH  27  33
HETATM   33  O4  UNL     1      18.190  44.564  16.255  1.00  0.00    -0.360 OA
ATOM     34  H4  UNL     1      17.698  43.913  16.741  1.00  0.00     0.213 HD
ENDBRANCH  27  33
BRANCH  30  35
HETATM   35  C20 UNL     1      20.592  44.948  19.005  1.00  0.00     0.238 C 
BRANCH  35  36
HETATM   36  O6  UNL     1      20.782  43.539  19.103  1.00  0.00    -0.395 OA
ATOM     37  H6  UNL     1      20.244  43.152  19.782  1.00  0.00     0.209 HD
ENDBRANCH  35  36
ENDBRANCH  30  35
ENDBRANCH   8  15
ENDBRANCH   3   4
TORSDOF 6
ENDMDL
MODEL 4
REMARK VINA RESULT: -6.743899282      1.801      4.053
REMARK  6 active torsions:
REMARK  status: ('A' for Active; 'I' for Inactive)
REMARK    1  A    between atoms: O1_3  and  C3_4 
REMARK    2  A    between atoms: C5_7  and  C6_8 
REMARK    3  A    between atoms: C13_15  and  O3_16 
REMARK    4  A    between atoms: C18_22  and  O4_23 
REMARK    5  A    between atoms: C19_26  and  C20_27 
REMARK    6  A    between atoms: C20_27  and  O6_28 
ROOT
HETATM    1  C1  UNL     1      11.837  46.294  20.127  1.00  0.00     0.044 C 
HETATM    2  C2  UNL     1      11.848  45.261  19.509  1.00  0.00     0.043 C 
HETATM    3  O1  UNL     1      11.840  44.100  18.801  1.00  0.00    -0.293 OA
ENDROOT
BRANCH   3   4
HETATM    4  C3  UNL     1      11.816  43.995  17.415  1.00  0.00     0.203 C 
HETATM    5  C4  UNL     1      12.869  42.986  16.935  1.00  0.00     0.186 C 
HETATM    6  O2  UNL     1      14.142  43.386  17.250  1.00  0.00    -0.348 OA
HETATM    7  C25 UNL     1      12.618  42.812  15.490  1.00  0.00    -0.056 C 
HETATM    8  C5  UNL     1      14.483  44.637  16.730  1.00  0.00     0.269 C 
HETATM    9  O8  UNL     1      13.550  45.527  17.180  1.00  0.00    -0.352 OA
HETATM   10  C21 UNL     1      12.255  45.311  16.811  1.00  0.00     0.165 C 
HETATM   11  C22 UNL     1      12.007  45.216  15.331  1.00  0.00     0.036 C 
HETATM   12  C23 UNL     1      10.572  45.660  15.086  1.00  0.00     0.017 C 
HETATM   13  C24 UNL     1      12.225  43.850  14.779  1.00  0.00    -0.015 C 
HETATM   14  C26 UNL     1      12.800  41.505  14.828  1.00  0.00     0.046 C 
BRANCH   8  15
HETATM   15  C6  UNL     1      15.821  45.047  17.430  1.00  0.00     0.068 C 
HETATM   16  C7  UNL     1      15.588  45.262  18.866  1.00  0.00    -0.018 C 
HETATM   17  C8  UNL     1      16.350  45.438  19.891  1.00  0.00     0.007 C 
HETATM   18  C9  UNL     1      17.857  45.498  20.021  1.00  0.00     0.079 C 
HETATM   19  C10 UNL     1      18.241  44.791  21.321  1.00  0.00     0.051 C 
HETATM   20  C11 UNL     1      18.315  46.896  20.240  1.00  0.00     0.044 C 
HETATM   21  O7  UNL     1      18.548  44.759  19.089  1.00  0.00    -0.334 OA
HETATM   22  C12 UNL     1      18.373  47.864  19.158  1.00  0.00     0.036 C 
HETATM   23  C13 UNL     1      17.500  47.726  17.974  1.00  0.00     0.132 C 
HETATM   24  C14 UNL     1      17.773  46.674  16.979  1.00  0.00     0.048 C 
HETATM   25  C15 UNL     1      18.321  47.275  15.659  1.00  0.00     0.024 C 
HETATM   26  C16 UNL     1      16.423  46.085  16.595  1.00  0.00     0.010 C 
HETATM   27  C18 UNL     1      18.773  45.622  17.274  1.00  0.00     0.235 A 
HETATM   28  C17 UNL     1      15.479  47.199  16.169  1.00  0.00     0.012 C 
HETATM   29  O5  UNL     1      20.076  45.624  17.204  1.00  0.00    -0.305 OA
HETATM   30  C19 UNL     1      19.483  45.482  18.422  1.00  0.00     0.248 A 
BRANCH  23  31
HETATM   31  O3  UNL     1      17.585  48.969  17.320  1.00  0.00    -0.395 OA
ATOM     32  H3  UNL     1      18.076  48.792  16.526  1.00  0.00     0.210 HD
ENDBRANCH  23  31
BRANCH  27  33
HETATM   33  O4  UNL     1      18.501  44.473  16.429  1.00  0.00    -0.360 OA
ATOM     34  H4  UNL     1      18.181  43.764  16.975  1.00  0.00     0.213 HD
ENDBRANCH  27  33
BRANCH  30  35
HETATM   35  C20 UNL     1      20.764  45.335  19.189  1.00  0.00     0.238 C 
BRANCH  35  36
HETATM   36  O6  UNL     1      21.122  43.970  19.382  1.00  0.00    -0.395 OA
ATOM     37  H6  UNL     1      21.856  43.872  19.976  1.00  0.00     0.209 HD
ENDBRANCH  35  36
ENDBRANCH  30  35
ENDBRANCH   8  15
ENDBRANCH   3   4
TORSDOF 6
ENDMDL
MODEL 5
REMARK VINA RESULT: -6.523294076      4.153      6.289
REMARK  6 active torsions:
REMARK  status: ('A' for Active; 'I' for Inactive)
REMARK    1  A    between atoms: O1_3  and  C3_4 
REMARK    2  A    between atoms: C5_7  and  C6_8 
REMARK    3  A    between atoms: C13_15  and  O3_16 
REMARK    4  A    between atoms: C18_22  and  O4_23 
REMARK    5  A    between atoms: C19_26  and  C20_27 
REMARK    6  A    between atoms: C20_27  and  O6_28 
ROOT
HETATM    1  C1  UNL     1       8.458  45.333  19.304  1.00  0.00     0.044 C 
HETATM    2  C2  UNL     1       9.475  45.161  18.684  1.00  0.00     0.043 C 
HETATM    3  O1  UNL     1      10.622  44.943  17.987  1.00  0.00    -0.293 OA
ENDROOT
BRANCH   3   4
HETATM    4  C3  UNL     1      10.759  44.098  16.891  1.00  0.00     0.203 C 
HETATM    5  C4  UNL     1      12.242  43.820  16.610  1.00  0.00     0.186 C 
HETATM    6  O2  UNL     1      12.923  44.963  16.279  1.00  0.00    -0.348 OA
HETATM    7  C25 UNL     1      12.256  42.773  15.569  1.00  0.00    -0.056 C 
HETATM    8  C5  UNL     1      12.397  45.630  15.169  1.00  0.00     0.269 C 
HETATM    9  O8  UNL     1      11.083  45.888  15.441  1.00  0.00    -0.352 OA
HETATM   10  C21 UNL     1      10.269  44.813  15.651  1.00  0.00     0.165 C 
HETATM   11  C22 UNL     1      10.235  43.796  14.545  1.00  0.00     0.036 C 
HETATM   12  C23 UNL     1       8.878  43.112  14.605  1.00  0.00     0.017 C 
HETATM   13  C24 UNL     1      11.326  42.785  14.635  1.00  0.00    -0.015 C 
HETATM   14  C26 UNL     1      13.287  41.716  15.552  1.00  0.00     0.046 C 
BRANCH   8  15
HETATM   15  C6  UNL     1      13.096  47.030  15.132  1.00  0.00     0.068 C 
HETATM   16  C7  UNL     1      12.256  47.989  14.400  1.00  0.00    -0.018 C 
HETATM   17  C8  UNL     1      12.277  49.267  14.231  1.00  0.00     0.007 C 
HETATM   18  C9  UNL     1      13.225  50.330  14.744  1.00  0.00     0.079 C 
HETATM   19  C10 UNL     1      12.394  51.565  15.095  1.00  0.00     0.051 C 
HETATM   20  C11 UNL     1      14.117  50.813  13.657  1.00  0.00     0.044 C 
HETATM   21  O7  UNL     1      13.818  50.043  15.951  1.00  0.00    -0.334 OA
HETATM   22  C12 UNL     1      15.251  50.032  13.190  1.00  0.00     0.036 C 
HETATM   23  C13 UNL     1      15.265  48.562  13.333  1.00  0.00     0.132 C 
HETATM   24  C14 UNL     1      15.459  47.954  14.661  1.00  0.00     0.048 C 
HETATM   25  C15 UNL     1      16.858  47.298  14.781  1.00  0.00     0.024 C 
HETATM   26  C16 UNL     1      14.484  46.787  14.746  1.00  0.00     0.010 C 
HETATM   27  C18 UNL     1      15.414  48.803  15.874  1.00  0.00     0.235 A 
HETATM   28  C17 UNL     1      14.671  45.874  13.544  1.00  0.00     0.012 C 
HETATM   29  O5  UNL     1      16.309  49.581  16.418  1.00  0.00    -0.305 OA
HETATM   30  C19 UNL     1      15.171  50.138  15.916  1.00  0.00     0.248 A 
BRANCH  23  31
HETATM   31  O3  UNL     1      16.318  48.131  12.505  1.00  0.00    -0.395 OA
ATOM     32  H3  UNL     1      16.966  47.776  13.102  1.00  0.00     0.210 HD
ENDBRANCH  23  31
BRANCH  27  33
HETATM   33  O4  UNL     1      15.116  47.962  17.019  1.00  0.00    -0.360 OA
ATOM     34  H4  UNL     1      15.599  48.288  17.769  1.00  0.00     0.213 HD
ENDBRANCH  27  33
BRANCH  30  35
HETATM   35  C20 UNL     1      15.512  51.544  16.315  1.00  0.00     0.238 C 
BRANCH  35  36
HETATM   36  O6  UNL     1      14.870  51.929  17.527  1.00  0.00    -0.395 OA
ATOM     37  H6  UNL     1      15.410  52.511  18.049  1.00  0.00     0.209 HD
ENDBRANCH  35  36
ENDBRANCH  30  35
ENDBRANCH   8  15
ENDBRANCH   3   4
TORSDOF 6
ENDMDL
