MODEL 1
REMARK VINA RESULT: -7.169118797      0.000      0.000
REMARK  7 active torsions:
REMARK  status: ('A' for Active; 'I' for Inactive)
REMARK    1  A    between atoms: C9_10  and  O2_12 
REMARK    2  A    between atoms: C13_16  and  O3_17 
REMARK    3  A    between atoms: C14_19  and  C15_20 
REMARK    4  A    between atoms: C15_20  and  N1_21 
REMARK    5  A    between atoms: C17_23  and  C18_24 
REMARK    6  A    between atoms: C18_24  and  N2_25 
REMARK    7  A    between atoms: C26_37  and  O4_38 
ROOT
HETATM    1  C1  UNL     1      12.376  40.332  13.044  1.00  0.00     0.023 C 
HETATM    2  C2  UNL     1      12.493  41.034  14.135  1.00  0.00    -0.017 C 
HETATM    3  C3  UNL     1      13.435  40.881  15.194  1.00  0.00     0.156 C 
HETATM    4  O1  UNL     1      14.144  39.903  15.479  1.00  0.00    -0.293 OA
HETATM    5  C4  UNL     1      13.429  42.202  15.966  1.00  0.00     0.097 C 
HETATM    6  C5  UNL     1      12.694  43.178  15.102  1.00  0.00     0.016 C 
HETATM    7  C6  UNL     1      11.636  42.207  14.549  1.00  0.00     0.034 C 
HETATM    8  C7  UNL     1      10.937  42.728  13.359  1.00  0.00     0.021 C 
HETATM    9  C8  UNL     1      10.608  44.174  13.616  1.00  0.00     0.056 C 
HETATM   10  C9  UNL     1       9.111  44.238  13.260  1.00  0.00     0.061 C 
HETATM   11  C10 UNL     1       8.878  43.500  11.945  1.00  0.00     0.046 C 
HETATM   12  C11 UNL     1       8.524  43.541  14.418  1.00  0.00     0.041 C 
HETATM   13  C12 UNL     1       9.390  44.063  15.570  1.00  0.00     0.042 C 
HETATM   14  C13 UNL     1      10.660  44.607  15.017  1.00  0.00     0.078 C 
HETATM   15  C14 UNL     1      11.946  44.296  15.813  1.00  0.00     0.040 C 
HETATM   16  C21 UNL     1      12.847  45.520  15.816  1.00  0.00    -0.001 C 
HETATM   17  C22 UNL     1      14.063  45.481  16.649  1.00  0.00     0.011 C 
HETATM   18  C23 UNL     1      13.358  45.898  14.435  1.00  0.00     0.012 C 
HETATM   19  C24 UNL     1      14.281  44.848  13.965  1.00  0.00     0.011 C 
HETATM   20  C25 UNL     1      14.663  45.126  12.482  1.00  0.00     0.012 C 
HETATM   21  C26 UNL     1      13.543  43.547  13.966  1.00  0.00     0.132 C 
ENDROOT
BRANCH  15  22
HETATM   22  C15 UNL     1      11.718  43.882  17.199  1.00  0.00     0.104 C 
BRANCH  22  23
HETATM   23  N1  UNL     1      11.433  44.697  18.304  1.00  0.00    -0.265 N 
HETATM   24  C16 UNL     1      10.201  45.108  18.654  1.00  0.00     0.145 A 
HETATM   25  C17 UNL     1      10.251  45.918  19.800  1.00  0.00     0.072 A 
HETATM   26  N3  UNL     1      11.533  45.971  20.110  1.00  0.00    -0.287 N 
HETATM   27  N4  UNL     1      12.159  45.279  19.251  1.00  0.00    -0.237 N 
ATOM     28  H3  UNL     1      11.944  46.476  20.895  1.00  0.00     0.188 HD
ATOM     29  H4  UNL     1      13.172  45.175  19.286  1.00  0.00     0.209 HD
BRANCH  25  30
HETATM   30  C18 UNL     1       9.128  46.563  20.502  1.00  0.00     0.331 C 
BRANCH  30  31
HETATM   31  N2  UNL     1       9.521  47.332  21.648  1.00  0.00     0.085 N 
HETATM   32  C19 UNL     1       9.781  48.721  21.314  1.00  0.00     0.309 C 
HETATM   33  C20 UNL     1       8.409  47.320  22.586  1.00  0.00     0.309 C 
ENDBRANCH  30  31
ENDBRANCH  25  30
ENDBRANCH  22  23
ENDBRANCH  15  22
BRANCH  14  34
HETATM   34  O3  UNL     1      10.525  45.996  15.055  1.00  0.00    -0.388 OA
ATOM     35  H3  UNL     1      10.949  46.316  15.842  1.00  0.00     0.210 HD
ENDBRANCH  14  34
BRANCH  21  36
HETATM   36  O4  UNL     1      14.583  42.584  13.826  1.00  0.00    -0.394 OA
ATOM     37  H4  UNL     1      14.420  42.058  13.053  1.00  0.00     0.210 HD
ENDBRANCH  21  36
BRANCH  10  38
HETATM   38  O2  UNL     1       8.594  45.481  13.128  1.00  0.00    -0.390 OA
ATOM     39  H2  UNL     1       7.890  45.567  12.496  1.00  0.00     0.210 HD
ENDBRANCH  10  38
TORSDOF 7
ENDMDL
MODEL 2
REMARK VINA RESULT: -7.098088291      8.900     11.820
REMARK  7 active torsions:
REMARK  status: ('A' for Active; 'I' for Inactive)
REMARK    1  A    between atoms: C9_10  and  O2_12 
REMARK    2  A    between atoms: C13_16  and  O3_17 
REMARK    3  A    between atoms: C14_19  and  C15_20 
REMARK    4  A    between atoms: C15_20  and  N1_21 
REMARK    5  A    between atoms: C17_23  and  C18_24 
REMARK    6  A    between atoms: C18_24  and  N2_25 
REMARK    7  A    between atoms: C26_37  and  O4_38 
ROOT
HETATM    1  C1  UNL     1      24.225  46.010  23.993  1.00  0.00     0.023 C 
HETATM    2  C2  UNL     1      23.032  46.101  23.480  1.00  0.00    -0.017 C 
HETATM    3  C3  UNL     1      21.900  46.810  23.980  1.00  0.00     0.156 C 
HETATM    4  O1  UNL     1      21.687  47.240  25.125  1.00  0.00    -0.293 OA
HETATM    5  C4  UNL     1      20.937  46.964  22.803  1.00  0.00     0.097 C 
HETATM    6  C5  UNL     1      21.721  46.599  21.581  1.00  0.00     0.016 C 
HETATM    7  C6  UNL     1      22.548  45.459  22.201  1.00  0.00     0.034 C 
HETATM    8  C7  UNL     1      23.719  45.084  21.386  1.00  0.00     0.021 C 
HETATM    9  C8  UNL     1      23.280  45.035  19.947  1.00  0.00     0.056 C 
HETATM   10  C9  UNL     1      23.806  43.660  19.491  1.00  0.00     0.061 C 
HETATM   11  C10 UNL     1      25.240  43.486  19.983  1.00  0.00     0.046 C 
HETATM   12  C11 UNL     1      22.855  42.764  20.171  1.00  0.00     0.041 C 
HETATM   13  C12 UNL     1      21.536  43.529  20.015  1.00  0.00     0.042 C 
HETATM   14  C13 UNL     1      21.833  44.956  19.718  1.00  0.00     0.078 C 
HETATM   15  C14 UNL     1      20.942  46.005  20.417  1.00  0.00     0.040 C 
HETATM   16  C21 UNL     1      20.633  47.134  19.448  1.00  0.00    -0.001 C 
HETATM   17  C22 UNL     1      19.672  48.166  19.874  1.00  0.00     0.011 C 
HETATM   18  C23 UNL     1      21.863  47.925  19.030  1.00  0.00     0.012 C 
HETATM   19  C24 UNL     1      22.372  48.664  20.199  1.00  0.00     0.011 C 
HETATM   20  C25 UNL     1      23.733  49.326  19.834  1.00  0.00     0.012 C 
HETATM   21  C26 UNL     1      22.669  47.676  21.281  1.00  0.00     0.132 C 
ENDROOT
BRANCH  15  22
HETATM   22  C15 UNL     1      19.678  45.478  20.937  1.00  0.00     0.104 C 
BRANCH  22  23
HETATM   23  N1  UNL     1      18.556  45.060  20.207  1.00  0.00    -0.265 N 
HETATM   24  C16 UNL     1      17.330  45.604  20.311  1.00  0.00     0.145 A 
HETATM   25  C17 UNL     1      16.422  44.959  19.455  1.00  0.00     0.072 A 
HETATM   26  N3  UNL     1      17.142  44.031  18.853  1.00  0.00    -0.287 N 
HETATM   27  N4  UNL     1      18.325  44.119  19.300  1.00  0.00    -0.237 N 
ATOM     28  H3  UNL     1      16.808  43.365  18.156  1.00  0.00     0.188 HD
ATOM     29  H4  UNL     1      19.065  43.495  18.978  1.00  0.00     0.209 HD
BRANCH  25  30
HETATM   30  C18 UNL     1      14.991  45.251  19.269  1.00  0.00     0.331 C 
BRANCH  30  31
HETATM   31  N2  UNL     1      14.523  45.042  17.929  1.00  0.00     0.085 N 
HETATM   32  C19 UNL     1      13.108  44.715  17.886  1.00  0.00     0.309 C 
HETATM   33  C20 UNL     1      14.693  46.291  17.204  1.00  0.00     0.309 C 
ENDBRANCH  30  31
ENDBRANCH  25  30
ENDBRANCH  22  23
ENDBRANCH  15  22
BRANCH  14  34
HETATM   34  O3  UNL     1      21.594  45.116  18.352  1.00  0.00    -0.388 OA
ATOM     35  H3  UNL     1      21.107  45.921  18.225  1.00  0.00     0.210 HD
ENDBRANCH  14  34
BRANCH  21  36
HETATM   36  O4  UNL     1      22.828  48.495  22.435  1.00  0.00    -0.394 OA
ATOM     37  H4  UNL     1      23.741  48.494  22.696  1.00  0.00     0.210 HD
ENDBRANCH  21  36
BRANCH  10  38
HETATM   38  O2  UNL     1      23.805  43.448  18.155  1.00  0.00    -0.390 OA
ATOM     39  H2  UNL     1      23.311  42.692  17.861  1.00  0.00     0.210 HD
ENDBRANCH  10  38
TORSDOF 7
ENDMDL
MODEL 3
REMARK VINA RESULT: -7.025993534      8.502     11.237
REMARK  7 active torsions:
REMARK  status: ('A' for Active; 'I' for Inactive)
REMARK    1  A    between atoms: C9_10  and  O2_12 
REMARK    2  A    between atoms: C13_16  and  O3_17 
REMARK    3  A    between atoms: C14_19  and  C15_20 
REMARK    4  A    between atoms: C15_20  and  N1_21 
REMARK    5  A    between atoms: C17_23  and  C18_24 
REMARK    6  A    between atoms: C18_24  and  N2_25 
REMARK    7  A    between atoms: C26_37  and  O4_38 
ROOT
HETATM    1  C1  UNL     1      23.358  44.797  24.002  1.00  0.00     0.023 C 
HETATM    2  C2  UNL     1      22.378  45.428  23.421  1.00  0.00    -0.017 C 
HETATM    3  C3  UNL     1      21.675  46.585  23.869  1.00  0.00     0.156 C 
HETATM    4  O1  UNL     1      21.612  47.072  25.009  1.00  0.00    -0.293 OA
HETATM    5  C4  UNL     1      20.971  47.161  22.639  1.00  0.00     0.097 C 
HETATM    6  C5  UNL     1      21.574  46.466  21.459  1.00  0.00     0.016 C 
HETATM    7  C6  UNL     1      21.736  45.076  22.099  1.00  0.00     0.034 C 
HETATM    8  C7  UNL     1      22.649  44.194  21.348  1.00  0.00     0.021 C 
HETATM    9  C8  UNL     1      22.332  44.345  19.884  1.00  0.00     0.056 C 
HETATM   10  C9  UNL     1      22.189  42.881  19.428  1.00  0.00     0.061 C 
HETATM   11  C10 UNL     1      23.344  42.064  20.001  1.00  0.00     0.046 C 
HETATM   12  C11 UNL     1      20.889  42.532  20.028  1.00  0.00     0.041 C 
HETATM   13  C12 UNL     1      20.088  43.821  19.811  1.00  0.00     0.042 C 
HETATM   14  C13 UNL     1      21.031  44.946  19.567  1.00  0.00     0.078 C 
HETATM   15  C14 UNL     1      20.684  46.293  20.236  1.00  0.00     0.040 C 
HETATM   16  C21 UNL     1      20.997  47.430  19.278  1.00  0.00    -0.001 C 
HETATM   17  C22 UNL     1      20.599  48.794  19.670  1.00  0.00     0.011 C 
HETATM   18  C23 UNL     1      22.478  47.557  18.954  1.00  0.00     0.012 C 
HETATM   19  C24 UNL     1      23.196  47.983  20.169  1.00  0.00     0.011 C 
HETATM   20  C25 UNL     1      24.728  47.935  19.902  1.00  0.00     0.012 C 
HETATM   21  C26 UNL     1      22.930  46.977  21.243  1.00  0.00     0.132 C 
ENDROOT
BRANCH  15  22
HETATM   22  C15 UNL     1      19.289  46.416  20.666  1.00  0.00     0.104 C 
BRANCH  22  23
HETATM   23  N1  UNL     1      18.138  46.393  19.866  1.00  0.00    -0.265 N 
HETATM   24  C16 UNL     1      17.105  45.548  20.038  1.00  0.00     0.145 A 
HETATM   25  C17 UNL     1      16.111  45.772  19.071  1.00  0.00     0.072 A 
HETATM   26  N3  UNL     1      16.585  46.759  18.334  1.00  0.00    -0.287 N 
HETATM   27  N4  UNL     1      17.717  47.076  18.809  1.00  0.00    -0.237 N 
ATOM     28  H3  UNL     1      16.126  47.188  17.531  1.00  0.00     0.188 HD
ATOM     29  H4  UNL     1      18.279  47.821  18.397  1.00  0.00     0.209 HD
BRANCH  25  30
HETATM   30  C18 UNL     1      14.828  45.066  18.913  1.00  0.00     0.331 C 
BRANCH  30  31
HETATM   31  N2  UNL     1      13.741  45.914  18.516  1.00  0.00     0.085 N 
HETATM   32  C19 UNL     1      13.122  45.471  17.279  1.00  0.00     0.309 C 
HETATM   33  C20 UNL     1      12.724  45.836  19.553  1.00  0.00     0.309 C 
ENDBRANCH  30  31
ENDBRANCH  25  30
ENDBRANCH  22  23
ENDBRANCH  15  22
BRANCH  14  34
HETATM   34  O3  UNL     1      20.982  45.189  18.193  1.00  0.00    -0.388 OA
ATOM     35  H3  UNL     1      20.153  45.607  17.992  1.00  0.00     0.210 HD
ENDBRANCH  14  34
BRANCH  21  36
HETATM   36  O4  UNL     1      23.375  47.637  22.423  1.00  0.00    -0.394 OA
ATOM     37  H4  UNL     1      24.315  47.763  22.375  1.00  0.00     0.210 HD
ENDBRANCH  21  36
BRANCH  10  38
HETATM   38  O2  UNL     1      22.175  42.685  18.090  1.00  0.00    -0.390 OA
ATOM     39  H2  UNL     1      21.402  43.000  17.637  1.00  0.00     0.210 HD
ENDBRANCH  10  38
TORSDOF 7
ENDMDL
MODEL 4
REMARK VINA RESULT: -6.650502454      8.612     11.703
REMARK  7 active torsions:
REMARK  status: ('A' for Active; 'I' for Inactive)
REMARK    1  A    between atoms: C9_10  and  O2_12 
REMARK    2  A    between atoms: C13_16  and  O3_17 
REMARK    3  A    between atoms: C14_19  and  C15_20 
REMARK    4  A    between atoms: C15_20  and  N1_21 
REMARK    5  A    between atoms: C17_23  and  C18_24 
REMARK    6  A    between atoms: C18_24  and  N2_25 
REMARK    7  A    between atoms: C26_37  and  O4_38 
ROOT
HETATM    1  C1  UNL     1      23.861  49.518  19.750  1.00  0.00     0.023 C 
HETATM    2  C2  UNL     1      22.774  48.824  19.566  1.00  0.00    -0.017 C 
HETATM    3  C3  UNL     1      21.824  48.923  18.507  1.00  0.00     0.156 C 
HETATM    4  O1  UNL     1      21.638  49.851  17.704  1.00  0.00    -0.293 OA
HETATM    5  C4  UNL     1      21.029  47.617  18.523  1.00  0.00     0.097 C 
HETATM    6  C5  UNL     1      21.788  46.685  19.414  1.00  0.00     0.016 C 
HETATM    7  C6  UNL     1      22.246  47.722  20.454  1.00  0.00     0.034 C 
HETATM    8  C7  UNL     1      23.344  47.238  21.313  1.00  0.00     0.021 C 
HETATM    9  C8  UNL     1      23.023  45.822  21.713  1.00  0.00     0.056 C 
HETATM   10  C9  UNL     1      23.216  45.863  23.241  1.00  0.00     0.061 C 
HETATM   11  C10 UNL     1      24.514  46.598  23.561  1.00  0.00     0.046 C 
HETATM   12  C11 UNL     1      22.017  46.616  23.649  1.00  0.00     0.041 C 
HETATM   13  C12 UNL     1      20.953  46.048  22.702  1.00  0.00     0.042 C 
HETATM   14  C13 UNL     1      21.626  45.407  21.541  1.00  0.00     0.078 C 
HETATM   15  C14 UNL     1      20.978  45.634  20.159  1.00  0.00     0.040 C 
HETATM   16  C21 UNL     1      21.045  44.348  19.351  1.00  0.00    -0.001 C 
HETATM   17  C22 UNL     1      20.347  44.310  18.054  1.00  0.00     0.011 C 
HETATM   18  C23 UNL     1      22.465  43.915  19.020  1.00  0.00     0.012 C 
HETATM   19  C24 UNL     1      23.052  44.889  18.081  1.00  0.00     0.011 C 
HETATM   20  C25 UNL     1      24.561  44.564  17.881  1.00  0.00     0.012 C 
HETATM   21  C26 UNL     1      23.000  46.240  18.720  1.00  0.00     0.132 C 
ENDROOT
BRANCH  15  22
HETATM   22  C15 UNL     1      19.584  46.081  20.207  1.00  0.00     0.104 C 
BRANCH  22  23
HETATM   23  N1  UNL     1      18.426  45.297  20.122  1.00  0.00    -0.265 N 
HETATM   24  C16 UNL     1      17.383  45.557  19.313  1.00  0.00     0.145 A 
HETATM   25  C17 UNL     1      16.377  44.590  19.467  1.00  0.00     0.072 A 
HETATM   26  N3  UNL     1      16.852  43.764  20.381  1.00  0.00    -0.287 N 
HETATM   27  N4  UNL     1      17.996  44.193  20.721  1.00  0.00    -0.237 N 
ATOM     28  H3  UNL     1      16.386  42.933  20.745  1.00  0.00     0.188 HD
ATOM     29  H4  UNL     1      18.559  43.712  21.422  1.00  0.00     0.209 HD
BRANCH  25  30
HETATM   30  C18 UNL     1      15.083  44.512  18.769  1.00  0.00     0.331 C 
BRANCH  30  31
HETATM   31  N2  UNL     1      14.345  45.742  18.767  1.00  0.00     0.085 N 
HETATM   32  C19 UNL     1      14.129  46.250  17.423  1.00  0.00     0.309 C 
HETATM   33  C20 UNL     1      13.034  45.470  19.335  1.00  0.00     0.309 C 
ENDBRANCH  30  31
ENDBRANCH  25  30
ENDBRANCH  22  23
ENDBRANCH  15  22
BRANCH  14  34
HETATM   34  O3  UNL     1      21.545  44.032  21.770  1.00  0.00    -0.388 OA
ATOM     35  H3  UNL     1      22.419  43.666  21.704  1.00  0.00     0.210 HD
ENDBRANCH  14  34
BRANCH  21  36
HETATM   36  O4  UNL     1      23.270  47.123  17.637  1.00  0.00    -0.394 OA
ATOM     37  H4  UNL     1      22.468  47.277  17.152  1.00  0.00     0.210 HD
ENDBRANCH  21  36
BRANCH  10  38
HETATM   38  O2  UNL     1      23.266  44.659  23.855  1.00  0.00    -0.390 OA
ATOM     39  H2  UNL     1      23.045  44.661  24.779  1.00  0.00     0.210 HD
ENDBRANCH  10  38
TORSDOF 7
ENDMDL
MODEL 5
REMARK VINA RESULT: -6.550183830      8.349     11.044
REMARK  7 active torsions:
REMARK  status: ('A' for Active; 'I' for Inactive)
REMARK    1  A    between atoms: C9_10  and  O2_12 
REMARK    2  A    between atoms: C13_16  and  O3_17 
REMARK    3  A    between atoms: C14_19  and  C15_20 
REMARK    4  A    between atoms: C15_20  and  N1_21 
REMARK    5  A    between atoms: C17_23  and  C18_24 
REMARK    6  A    between atoms: C18_24  and  N2_25 
REMARK    7  A    between atoms: C26_37  and  O4_38 
ROOT
HETATM    1  C1  UNL     1      24.506  44.565  22.495  1.00  0.00     0.023 C 
HETATM    2  C2  UNL     1      23.267  44.964  22.466  1.00  0.00    -0.017 C 
HETATM    3  C3  UNL     1      22.497  45.552  23.513  1.00  0.00     0.156 C 
HETATM    4  O1  UNL     1      22.704  45.547  24.736  1.00  0.00    -0.293 OA
HETATM    5  C4  UNL     1      21.305  46.231  22.837  1.00  0.00     0.097 C 
HETATM    6  C5  UNL     1      21.626  46.265  21.375  1.00  0.00     0.016 C 
HETATM    7  C6  UNL     1      22.324  44.896  21.287  1.00  0.00     0.034 C 
HETATM    8  C7  UNL     1      23.117  44.728  20.054  1.00  0.00     0.021 C 
HETATM    9  C8  UNL     1      22.301  45.262  18.908  1.00  0.00     0.056 C 
HETATM   10  C9  UNL     1      22.372  44.106  17.891  1.00  0.00     0.061 C 
HETATM   11  C10 UNL     1      23.813  43.613  17.795  1.00  0.00     0.046 C 
HETATM   12  C11 UNL     1      21.473  43.127  18.526  1.00  0.00     0.041 C 
HETATM   13  C12 UNL     1      20.360  44.030  19.070  1.00  0.00     0.042 C 
HETATM   14  C13 UNL     1      20.865  45.426  19.161  1.00  0.00     0.078 C 
HETATM   15  C14 UNL     1      20.449  46.228  20.413  1.00  0.00     0.040 C 
HETATM   16  C21 UNL     1      20.138  47.662  20.015  1.00  0.00    -0.001 C 
HETATM   17  C22 UNL     1      19.577  48.558  21.041  1.00  0.00     0.011 C 
HETATM   18  C23 UNL     1      21.347  48.417  19.486  1.00  0.00     0.012 C 
HETATM   19  C24 UNL     1      22.305  48.614  20.589  1.00  0.00     0.011 C 
HETATM   20  C25 UNL     1      23.623  49.217  20.022  1.00  0.00     0.012 C 
HETATM   21  C26 UNL     1      22.665  47.270  21.136  1.00  0.00     0.132 C 
ENDROOT
BRANCH  15  22
HETATM   22  C15 UNL     1      19.292  45.682  21.127  1.00  0.00     0.104 C 
BRANCH  22  23
HETATM   23  N1  UNL     1      18.094  45.200  20.582  1.00  0.00    -0.265 N 
HETATM   24  C16 UNL     1      17.251  45.926  19.826  1.00  0.00     0.145 A 
HETATM   25  C17 UNL     1      16.139  45.160  19.441  1.00  0.00     0.072 A 
HETATM   26  N3  UNL     1      16.349  43.977  19.986  1.00  0.00    -0.287 N 
HETATM   27  N4  UNL     1      17.449  44.040  20.614  1.00  0.00    -0.237 N 
ATOM     28  H3  UNL     1      15.741  43.162  19.915  1.00  0.00     0.188 HD
ATOM     29  H4  UNL     1      17.820  43.237  21.122  1.00  0.00     0.209 HD
BRANCH  25  30
HETATM   30  C18 UNL     1      14.994  45.579  18.614  1.00  0.00     0.331 C 
BRANCH  30  31
HETATM   31  N2  UNL     1      13.813  44.789  18.810  1.00  0.00     0.085 N 
HETATM   32  C19 UNL     1      12.688  45.586  19.268  1.00  0.00     0.309 C 
HETATM   33  C20 UNL     1      13.441  44.230  17.520  1.00  0.00     0.309 C 
ENDBRANCH  30  31
ENDBRANCH  25  30
ENDBRANCH  22  23
ENDBRANCH  15  22
BRANCH  14  34
HETATM   34  O3  UNL     1      20.302  46.104  18.079  1.00  0.00    -0.388 OA
ATOM     35  H3  UNL     1      19.530  46.566  18.385  1.00  0.00     0.210 HD
ENDBRANCH  14  34
BRANCH  21  36
HETATM   36  O4  UNL     1      23.307  47.582  22.368  1.00  0.00    -0.394 OA
ATOM     37  H4  UNL     1      24.167  47.179  22.383  1.00  0.00     0.210 HD
ENDBRANCH  21  36
BRANCH  10  38
HETATM   38  O2  UNL     1      21.958  44.405  16.638  1.00  0.00    -0.390 OA
ATOM     39  H2  UNL     1      22.599  44.838  16.087  1.00  0.00     0.210 HD
ENDBRANCH  10  38
TORSDOF 7
ENDMDL
