MODEL 1
REMARK VINA RESULT: -5.757788059      0.000      0.000
REMARK  3 active torsions:
REMARK  status: ('A' for Active; 'I' for Inactive)
REMARK    1  A    between atoms: N2_4  and  N3_6 
REMARK    2  A    between atoms: C1_8  and  N4_9 
REMARK    3  A    between atoms: N4_9  and  C2_11 
ROOT
HETATM    1  N3  UNL     1      35.708  29.125  69.104  1.00  0.00    -0.283 N 
ATOM      2  H3  UNL     1      35.541  30.114  69.289  1.00  0.00     0.189 HD
HETATM    3  C1  UNL     1      34.784  28.442  68.512  1.00  0.00     0.195 C 
ENDROOT
BRANCH   1   4
HETATM    4  N2  UNL     1      36.924  28.568  69.500  1.00  0.00    -0.248 N 
HETATM    5  N1  UNL     1      37.764  29.300  70.108  1.00  0.00    -0.331 N 
ATOM      6  H12 UNL     1      37.539  30.277  70.295  1.00  0.00     0.178 HD
ATOM      7  H11 UNL     1      38.653  28.892  70.398  1.00  0.00     0.178 HD
ATOM      8  H2  UNL     1      37.134  27.589  69.304  1.00  0.00     0.207 HD
ENDBRANCH   1   4
BRANCH   3   9
HETATM    9  N4  UNL     1      33.551  28.995  68.107  1.00  0.00    -0.373 N 
ATOM     10  H4  UNL     1      33.470  30.012  68.096  1.00  0.00     0.161 HD
BRANCH   9  11
HETATM   11  C2  UNL     1      32.407  28.236  67.710  1.00  0.00     0.159 A 
HETATM   12  C3  UNL     1      31.280  28.179  68.720  1.00  0.00     0.113 A 
HETATM   13  C4  UNL     1      31.133  28.873  67.383  1.00  0.00     0.152 A 
HETATM   14  O1  UNL     1      30.333  29.494  66.713  1.00  0.00    -0.296 OA
ENDBRANCH   9  11
ENDBRANCH   3   9
TORSDOF 3
ENDMDL
MODEL 2
REMARK VINA RESULT: -5.731958316      3.114      5.190
REMARK  3 active torsions:
REMARK  status: ('A' for Active; 'I' for Inactive)
REMARK    1  A    between atoms: N2_4  and  N3_6 
REMARK    2  A    between atoms: C1_8  and  N4_9 
REMARK    3  A    between atoms: N4_9  and  C2_11 
ROOT
HETATM    1  N3  UNL     1      31.011  29.590  67.047  1.00  0.00    -0.283 N 
ATOM      2  H3  UNL     1      31.750  30.197  66.694  1.00  0.00     0.189 HD
HETATM    3  C1  UNL     1      31.290  28.764  68.000  1.00  0.00     0.195 C 
ENDROOT
BRANCH   1   4
HETATM    4  N2  UNL     1      29.741  29.685  66.478  1.00  0.00    -0.248 N 
HETATM    5  N1  UNL     1      29.375  30.794  65.978  1.00  0.00    -0.331 N 
ATOM      6  H12 UNL     1      30.011  31.592  66.000  1.00  0.00     0.178 HD
ATOM      7  H11 UNL     1      28.446  30.864  65.562  1.00  0.00     0.178 HD
ATOM      8  H2  UNL     1      29.116  28.879  66.464  1.00  0.00     0.207 HD
ENDBRANCH   1   4
BRANCH   3   9
HETATM    9  N4  UNL     1      32.570  28.659  68.584  1.00  0.00    -0.373 N 
ATOM     10  H4  UNL     1      32.619  28.463  69.584  1.00  0.00     0.161 HD
BRANCH   9  11
HETATM   11  C2  UNL     1      33.804  28.805  67.879  1.00  0.00     0.159 A 
HETATM   12  C3  UNL     1      34.944  27.937  68.371  1.00  0.00     0.113 A 
HETATM   13  C4  UNL     1      34.323  27.757  67.002  1.00  0.00     0.152 A 
HETATM   14  O1  UNL     1      34.406  27.078  65.999  1.00  0.00    -0.296 OA
ENDBRANCH   9  11
ENDBRANCH   3   9
TORSDOF 3
ENDMDL
MODEL 3
REMARK VINA RESULT: -5.604667900      3.411      5.567
REMARK  3 active torsions:
REMARK  status: ('A' for Active; 'I' for Inactive)
REMARK    1  A    between atoms: N2_4  and  N3_6 
REMARK    2  A    between atoms: C1_8  and  N4_9 
REMARK    3  A    between atoms: N4_9  and  C2_11 
ROOT
HETATM    1  N3  UNL     1      30.783  29.961  66.830  1.00  0.00    -0.283 N 
ATOM      2  H3  UNL     1      31.314  30.775  66.521  1.00  0.00     0.189 HD
HETATM    3  C1  UNL     1      31.375  29.079  67.566  1.00  0.00     0.195 C 
ENDROOT
BRANCH   1   4
HETATM    4  N2  UNL     1      29.449  29.846  66.440  1.00  0.00    -0.248 N 
HETATM    5  N1  UNL     1      28.951  30.742  65.690  1.00  0.00    -0.331 N 
ATOM      6  H12 UNL     1      29.530  31.525  65.386  1.00  0.00     0.178 HD
ATOM      7  H11 UNL     1      27.975  30.658  65.405  1.00  0.00     0.178 HD
ATOM      8  H2  UNL     1      28.883  29.058  66.753  1.00  0.00     0.207 HD
ENDBRANCH   1   4
BRANCH   3   9
HETATM    9  N4  UNL     1      32.724  29.184  67.967  1.00  0.00    -0.373 N 
ATOM     10  H4  UNL     1      33.144  30.114  67.974  1.00  0.00     0.161 HD
BRANCH   9  11
HETATM   11  C2  UNL     1      33.547  28.085  68.363  1.00  0.00     0.159 A 
HETATM   12  C3  UNL     1      34.348  27.436  67.254  1.00  0.00     0.113 A 
HETATM   13  C4  UNL     1      35.004  28.182  68.396  1.00  0.00     0.152 A 
HETATM   14  O1  UNL     1      36.093  28.505  68.824  1.00  0.00    -0.296 OA
ENDBRANCH   9  11
ENDBRANCH   3   9
TORSDOF 3
ENDMDL
MODEL 4
REMARK VINA RESULT: -5.597664675      1.204      1.385
REMARK  3 active torsions:
REMARK  status: ('A' for Active; 'I' for Inactive)
REMARK    1  A    between atoms: N2_4  and  N3_6 
REMARK    2  A    between atoms: C1_8  and  N4_9 
REMARK    3  A    between atoms: N4_9  and  C2_11 
ROOT
HETATM    1  N3  UNL     1      35.685  28.822  68.949  1.00  0.00    -0.283 N 
ATOM      2  H3  UNL     1      35.329  29.766  69.092  1.00  0.00     0.189 HD
HETATM    3  C1  UNL     1      35.018  28.016  68.191  1.00  0.00     0.195 C 
ENDROOT
BRANCH   1   4
HETATM    4  N2  UNL     1      36.874  28.454  69.581  1.00  0.00    -0.248 N 
HETATM    5  N1  UNL     1      37.642  29.365  70.018  1.00  0.00    -0.331 N 
ATOM      6  H12 UNL     1      37.381  30.345  69.901  1.00  0.00     0.178 HD
ATOM      7  H11 UNL     1      38.511  29.096  70.480  1.00  0.00     0.178 HD
ATOM      8  H2  UNL     1      37.121  27.471  69.689  1.00  0.00     0.207 HD
ENDBRANCH   1   4
BRANCH   3   9
HETATM    9  N4  UNL     1      33.815  28.377  67.546  1.00  0.00    -0.373 N 
ATOM     10  H4  UNL     1      33.806  28.372  66.526  1.00  0.00     0.161 HD
BRANCH   9  11
HETATM   11  C2  UNL     1      32.609  28.748  68.216  1.00  0.00     0.159 A 
HETATM   12  C3  UNL     1      31.417  29.006  67.317  1.00  0.00     0.113 A 
HETATM   13  C4  UNL     1      31.459  27.849  68.292  1.00  0.00     0.152 A 
HETATM   14  O1  UNL     1      30.799  26.909  68.685  1.00  0.00    -0.296 OA
ENDBRANCH   9  11
ENDBRANCH   3   9
TORSDOF 3
ENDMDL
MODEL 5
REMARK VINA RESULT: -5.437260056      1.507      1.695
REMARK  3 active torsions:
REMARK  status: ('A' for Active; 'I' for Inactive)
REMARK    1  A    between atoms: N2_4  and  N3_6 
REMARK    2  A    between atoms: C1_8  and  N4_9 
REMARK    3  A    between atoms: N4_9  and  C2_11 
ROOT
HETATM    1  N3  UNL     1      35.084  28.232  68.348  1.00  0.00    -0.283 N 
ATOM      2  H3  UNL     1      34.589  28.978  68.836  1.00  0.00     0.189 HD
HETATM    3  C1  UNL     1      34.497  27.645  67.358  1.00  0.00     0.195 C 
ENDROOT
BRANCH   1   4
HETATM    4  N2  UNL     1      36.365  27.888  68.778  1.00  0.00    -0.248 N 
HETATM    5  N1  UNL     1      36.977  28.672  69.568  1.00  0.00    -0.331 N 
ATOM      6  H12 UNL     1      36.526  29.534  69.873  1.00  0.00     0.178 HD
ATOM      7  H11 UNL     1      37.915  28.420  69.882  1.00  0.00     0.178 HD
ATOM      8  H2  UNL     1      36.803  27.023  68.463  1.00  0.00     0.207 HD
ENDBRANCH   1   4
BRANCH   3   9
HETATM    9  N4  UNL     1      33.201  27.984  66.914  1.00  0.00    -0.373 N 
ATOM     10  H4  UNL     1      32.867  27.547  66.055  1.00  0.00     0.161 HD
BRANCH   9  11
HETATM   11  C2  UNL     1      32.322  28.895  67.577  1.00  0.00     0.159 A 
HETATM   12  C3  UNL     1      30.846  28.693  67.302  1.00  0.00     0.113 A 
HETATM   13  C4  UNL     1      31.451  28.470  68.671  1.00  0.00     0.152 A 
HETATM   14  O1  UNL     1      31.157  28.142  69.802  1.00  0.00    -0.296 OA
ENDBRANCH   9  11
ENDBRANCH   3   9
TORSDOF 3
ENDMDL
