MODEL 1
REMARK VINA RESULT: -5.685385333      0.000      0.000
REMARK  5 active torsions:
REMARK  status: ('A' for Active; 'I' for Inactive)
REMARK    1  A    between atoms: C2_2  and  C3_3 
REMARK    2  A    between atoms: C3_3  and  N1_4 
REMARK    3  A    between atoms: N1_4  and  N2_5 
REMARK    4  A    between atoms: N2_5  and  C4_7 
REMARK    5  A    between atoms: C5_10  and  N4_11 
ROOT
HETATM    1  C4  UNL     1      32.077  28.869  67.148  1.00  0.00     0.163 A 
HETATM    2  N3  UNL     1      30.775  29.196  66.998  1.00  0.00    -0.322 N 
ATOM      3  H3  UNL     1      30.004  29.524  66.416  1.00  0.00     0.169 HD
HETATM    4  C5  UNL     1      31.260  28.756  68.226  1.00  0.00     0.146 A 
ENDROOT
BRANCH   1   5
HETATM    5  N2  UNL     1      33.197  28.791  66.531  1.00  0.00    -0.286 N 
ATOM      6  H2  UNL     1      33.520  29.621  66.035  1.00  0.00     0.184 HD
BRANCH   5   7
HETATM    7  N1  UNL     1      33.997  27.668  66.487  1.00  0.00    -0.136 NA
BRANCH   7   8
HETATM    8  C3  UNL     1      34.360  27.325  67.843  1.00  0.00     0.161 C 
BRANCH   8   9
HETATM    9  C2  UNL     1      35.085  28.421  68.532  1.00  0.00    -0.019 C 
HETATM   10  C1  UNL     1      36.335  28.272  68.928  1.00  0.00     0.008 C 
ENDBRANCH   8   9
ENDBRANCH   7   8
ENDBRANCH   5   7
ENDBRANCH   1   5
BRANCH   4  11
HETATM   11  N4  UNL     1      31.092  28.460  69.456  1.00  0.00    -0.382 N 
ATOM     12  H42 UNL     1      31.451  28.323  70.401  1.00  0.00     0.157 HD
ATOM     13  H41 UNL     1      30.475  28.181  70.219  1.00  0.00     0.157 HD
ENDBRANCH   4  11
TORSDOF 5
ENDMDL
MODEL 2
REMARK VINA RESULT: -5.108821995      0.830      1.411
REMARK  5 active torsions:
REMARK  status: ('A' for Active; 'I' for Inactive)
REMARK    1  A    between atoms: C2_2  and  C3_3 
REMARK    2  A    between atoms: C3_3  and  N1_4 
REMARK    3  A    between atoms: N1_4  and  N2_5 
REMARK    4  A    between atoms: N2_5  and  C4_7 
REMARK    5  A    between atoms: C5_10  and  N4_11 
ROOT
HETATM    1  C4  UNL     1      31.911  28.917  67.118  1.00  0.00     0.163 A 
HETATM    2  N3  UNL     1      30.981  28.436  67.971  1.00  0.00    -0.322 N 
ATOM      3  H3  UNL     1      30.724  27.844  68.762  1.00  0.00     0.169 HD
HETATM    4  C5  UNL     1      30.629  29.341  66.974  1.00  0.00     0.146 A 
ENDROOT
BRANCH   1   5
HETATM    5  N2  UNL     1      33.155  28.868  66.815  1.00  0.00    -0.286 N 
ATOM      6  H2  UNL     1      33.651  29.754  66.717  1.00  0.00     0.184 HD
BRANCH   5   7
HETATM    7  N1  UNL     1      33.873  27.707  66.612  1.00  0.00    -0.136 NA
BRANCH   7   8
HETATM    8  C3  UNL     1      34.431  27.300  67.881  1.00  0.00     0.161 C 
BRANCH   8   9
HETATM    9  C2  UNL     1      35.101  28.416  68.592  1.00  0.00    -0.019 C 
HETATM   10  C1  UNL     1      36.364  28.332  68.963  1.00  0.00     0.008 C 
ENDBRANCH   8   9
ENDBRANCH   7   8
ENDBRANCH   5   7
ENDBRANCH   1   5
BRANCH   4  11
HETATM   11  N4  UNL     1      29.766  30.053  66.361  1.00  0.00    -0.382 N 
ATOM     12  H42 UNL     1      29.401  30.484  65.512  1.00  0.00     0.157 HD
ATOM     13  H41 UNL     1      28.915  30.615  66.379  1.00  0.00     0.157 HD
ENDBRANCH   4  11
TORSDOF 5
ENDMDL
MODEL 3
REMARK VINA RESULT: -4.987280142      1.412      1.882
REMARK  5 active torsions:
REMARK  status: ('A' for Active; 'I' for Inactive)
REMARK    1  A    between atoms: C2_2  and  C3_3 
REMARK    2  A    between atoms: C3_3  and  N1_4 
REMARK    3  A    between atoms: N1_4  and  N2_5 
REMARK    4  A    between atoms: N2_5  and  C4_7 
REMARK    5  A    between atoms: C5_10  and  N4_11 
ROOT
HETATM    1  C4  UNL     1      31.301  28.899  67.309  1.00  0.00     0.163 A 
HETATM    2  N3  UNL     1      31.456  30.130  67.843  1.00  0.00    -0.322 N 
ATOM      3  H3  UNL     1      31.936  30.767  68.479  1.00  0.00     0.169 HD
HETATM    4  C5  UNL     1      30.476  29.891  66.884  1.00  0.00     0.146 A 
ENDROOT
BRANCH   1   5
HETATM    5  N2  UNL     1      31.753  27.701  67.334  1.00  0.00    -0.286 N 
ATOM      6  H2  UNL     1      31.297  27.013  66.736  1.00  0.00     0.184 HD
BRANCH   5   7
HETATM    7  N1  UNL     1      32.810  27.272  68.111  1.00  0.00    -0.136 NA
BRANCH   7   8
HETATM    8  C3  UNL     1      34.033  27.735  67.494  1.00  0.00     0.161 C 
BRANCH   8   9
HETATM    9  C2  UNL     1      34.870  28.534  68.423  1.00  0.00    -0.019 C 
HETATM   10  C1  UNL     1      36.080  28.137  68.767  1.00  0.00     0.008 C 
ENDBRANCH   8   9
ENDBRANCH   7   8
ENDBRANCH   5   7
ENDBRANCH   1   5
BRANCH   4  11
HETATM   11  N4  UNL     1      29.514  30.283  66.143  1.00  0.00    -0.382 N 
ATOM     12  H42 UNL     1      28.602  30.721  66.018  1.00  0.00     0.157 HD
ATOM     13  H41 UNL     1      29.100  30.382  65.217  1.00  0.00     0.157 HD
ENDBRANCH   4  11
TORSDOF 5
ENDMDL
MODEL 4
REMARK VINA RESULT: -4.719862717      2.497      3.666
REMARK  5 active torsions:
REMARK  status: ('A' for Active; 'I' for Inactive)
REMARK    1  A    between atoms: C2_2  and  C3_3 
REMARK    2  A    between atoms: C3_3  and  N1_4 
REMARK    3  A    between atoms: N1_4  and  N2_5 
REMARK    4  A    between atoms: N2_5  and  C4_7 
REMARK    5  A    between atoms: C5_10  and  N4_11 
ROOT
HETATM    1  C4  UNL     1      29.481  30.124  66.254  1.00  0.00     0.163 A 
HETATM    2  N3  UNL     1      28.137  30.194  66.367  1.00  0.00    -0.322 N 
ATOM      3  H3  UNL     1      27.269  29.910  66.822  1.00  0.00     0.169 HD
HETATM    4  C5  UNL     1      28.809  30.940  65.403  1.00  0.00     0.146 A 
ENDROOT
BRANCH   1   5
HETATM    5  N2  UNL     1      30.528  29.571  66.743  1.00  0.00    -0.286 N 
ATOM      6  H2  UNL     1      31.400  29.672  66.224  1.00  0.00     0.184 HD
BRANCH   5   7
HETATM    7  N1  UNL     1      30.564  28.850  67.919  1.00  0.00    -0.136 NA
BRANCH   7   8
HETATM    8  C3  UNL     1      31.633  27.883  67.817  1.00  0.00     0.161 C 
BRANCH   8   9
HETATM    9  C2  UNL     1      32.947  28.514  67.536  1.00  0.00    -0.019 C 
HETATM   10  C1  UNL     1      34.067  27.822  67.605  1.00  0.00     0.008 C 
ENDBRANCH   8   9
ENDBRANCH   7   8
ENDBRANCH   5   7
ENDBRANCH   1   5
BRANCH   4  11
HETATM   11  N4  UNL     1      28.818  31.772  64.436  1.00  0.00    -0.382 N 
ATOM     12  H42 UNL     1      29.301  32.276  63.692  1.00  0.00     0.157 HD
ATOM     13  H41 UNL     1      28.322  32.431  63.836  1.00  0.00     0.157 HD
ENDBRANCH   4  11
TORSDOF 5
ENDMDL
MODEL 5
REMARK VINA RESULT: -4.626613423      1.864      4.116
REMARK  5 active torsions:
REMARK  status: ('A' for Active; 'I' for Inactive)
REMARK    1  A    between atoms: C2_2  and  C3_3 
REMARK    2  A    between atoms: C3_3  and  N1_4 
REMARK    3  A    between atoms: N1_4  and  N2_5 
REMARK    4  A    between atoms: N2_5  and  C4_7 
REMARK    5  A    between atoms: C5_10  and  N4_11 
ROOT
HETATM    1  C4  UNL     1      34.788  28.559  68.259  1.00  0.00     0.163 A 
HETATM    2  N3  UNL     1      35.299  27.312  68.170  1.00  0.00    -0.322 N 
ATOM      3  H3  UNL     1      35.234  26.348  67.841  1.00  0.00     0.169 HD
HETATM    4  C5  UNL     1      35.981  28.311  68.857  1.00  0.00     0.146 A 
ENDROOT
BRANCH   1   5
HETATM    5  N2  UNL     1      33.793  29.291  67.919  1.00  0.00    -0.286 N 
ATOM      6  H2  UNL     1      33.733  30.223  68.328  1.00  0.00     0.184 HD
BRANCH   5   7
HETATM    7  N1  UNL     1      32.796  28.912  67.043  1.00  0.00    -0.136 NA
BRANCH   7   8
HETATM    8  C3  UNL     1      31.528  29.311  67.610  1.00  0.00     0.161 C 
BRANCH   8   9
HETATM    9  C2  UNL     1      31.057  28.377  68.663  1.00  0.00    -0.019 C 
HETATM   10  C1  UNL     1      31.312  27.085  68.595  1.00  0.00     0.008 C 
ENDBRANCH   8   9
ENDBRANCH   7   8
ENDBRANCH   5   7
ENDBRANCH   1   5
BRANCH   4  11
HETATM   11  N4  UNL     1      36.976  28.720  69.543  1.00  0.00    -0.382 N 
ATOM     12  H42 UNL     1      37.632  29.449  69.823  1.00  0.00     0.157 HD
ATOM     13  H41 UNL     1      37.708  28.536  70.229  1.00  0.00     0.157 HD
ENDBRANCH   4  11
TORSDOF 5
ENDMDL
