MODEL 1
REMARK VINA RESULT: -6.702926886      0.000      0.000
REMARK  14 active torsions:
REMARK  status: ('A' for Active; 'I' for Inactive)
REMARK    1  A    between atoms: N1_1  and  C1_5 
REMARK    2  A    between atoms: C1_5  and  C2_6 
REMARK    3  A    between atoms: C2_6  and  C3_7 
REMARK    4  A    between atoms: C3_7  and  C4_8 
REMARK    5  A    between atoms: C4_8  and  C5_9 
REMARK    6  A    between atoms: C5_9  and  C6_10 
REMARK    7  A    between atoms: C6_10  and  N2_11 
REMARK    8  A    between atoms: C6_10  and  O1_15 
REMARK    9  A    between atoms: O1_15  and  C7_16 
REMARK   10  A    between atoms: C8_20  and  C9_21 
REMARK   11  A    between atoms: C10_24  and  O3_25 
REMARK   12  A    between atoms: C11_27  and  O4_28 
REMARK   13  A    between atoms: C12_30  and  C13_31 
REMARK   14  A    between atoms: C13_31  and  O5_32 
ROOT
HETATM    1  C7  UNL     1      -8.966 -21.523  32.321  1.00  0.00     0.474 C 
HETATM    2  N3  UNL     1      -8.739 -22.195  33.581  1.00  0.00     0.002 N 
ATOM      3  H31 UNL     1      -7.965 -22.855  33.500  1.00  0.00     0.286 HD
ATOM      4  H32 UNL     1      -9.499 -22.845  33.782  1.00  0.00     0.286 HD
HETATM    5  C8  UNL     1      -8.533 -21.313  34.676  1.00  0.00     0.339 C 
HETATM    6  O2  UNL     1      -8.041 -20.075  34.364  1.00  0.00    -0.325 OA
HETATM    7  C10 UNL     1      -6.737 -20.027  33.952  1.00  0.00     0.290 C 
HETATM    8  C11 UNL     1      -6.688 -20.003  32.440  1.00  0.00     0.204 C 
HETATM    9  C12 UNL     1      -6.689 -21.412  31.944  1.00  0.00     0.183 C 
HETATM   10  O6  UNL     1      -7.939 -21.726  31.434  1.00  0.00    -0.329 OA
ENDROOT
BRANCH   1  11
HETATM   11  O1  UNL     1     -10.132 -22.058  31.774  1.00  0.00    -0.305 OA
BRANCH  11  12
HETATM   12  C6  UNL     1     -10.049 -23.451  31.633  1.00  0.00     0.322 C 
BRANCH  12  13
HETATM   13  C5  UNL     1     -11.148 -24.036  32.457  1.00  0.00     0.061 C 
BRANCH  13  14
HETATM   14  C4  UNL     1     -12.539 -23.666  32.114  1.00  0.00     0.004 C 
BRANCH  14  15
HETATM   15  C3  UNL     1     -13.328 -22.912  33.119  1.00  0.00     0.002 C 
BRANCH  15  16
HETATM   16  C2  UNL     1     -12.548 -22.506  34.348  1.00  0.00     0.027 C 
BRANCH  16  17
HETATM   17  C1  UNL     1     -12.748 -21.021  34.613  1.00  0.00     0.229 C 
BRANCH  17  18
HETATM   18  N1  UNL     1     -11.858 -20.347  33.653  1.00  0.00    -0.079 N 
ATOM     19  H13 UNL     1     -11.127 -19.785  34.089  1.00  0.00     0.274 HD
ATOM     20  H12 UNL     1     -11.233 -20.978  33.152  1.00  0.00     0.274 HD
ATOM     21  H11 UNL     1     -12.484 -19.816  33.048  1.00  0.00     0.274 HD
ENDBRANCH  17  18
ENDBRANCH  16  17
ENDBRANCH  15  16
ENDBRANCH  14  15
ENDBRANCH  13  14
ENDBRANCH  12  13
BRANCH  12  22
HETATM   22  N2  UNL     1     -10.084 -23.875  30.286  1.00  0.00    -0.053 N 
ATOM     23  H23 UNL     1      -9.744 -24.833  30.197  1.00  0.00     0.277 HD
ATOM     24  H22 UNL     1     -11.045 -24.010  29.971  1.00  0.00     0.277 HD
ATOM     25  H21 UNL     1      -9.579 -23.250  29.658  1.00  0.00     0.277 HD
ENDBRANCH  12  22
ENDBRANCH  11  12
ENDBRANCH   1  11
BRANCH   5  26
HETATM   26  C9  UNL     1      -7.706 -22.033  35.724  1.00  0.00     0.147 C 
HETATM   27  S1  UNL     1      -7.770 -21.235  37.331  1.00  0.00    -0.093 SA
ENDBRANCH   5  26
BRANCH   9  28
HETATM   28  C13 UNL     1      -5.699 -21.594  30.789  1.00  0.00     0.199 C 
BRANCH  28  29
HETATM   29  O5  UNL     1      -5.496 -22.953  30.657  1.00  0.00    -0.398 OA
ATOM     30  H5  UNL     1      -4.557 -23.090  30.691  1.00  0.00     0.209 HD
ENDBRANCH  28  29
ENDBRANCH   9  28
BRANCH   8  31
HETATM   31  O4  UNL     1      -5.496 -19.406  31.983  1.00  0.00    -0.388 OA
ATOM     32  H4  UNL     1      -5.618 -19.016  31.125  1.00  0.00     0.210 HD
ENDBRANCH   8  31
BRANCH   7  33
HETATM   33  O3  UNL     1      -6.210 -18.783  34.370  1.00  0.00    -0.368 OA
ATOM     34  H3  UNL     1      -5.324 -18.724  34.034  1.00  0.00     0.212 HD
ENDBRANCH   7  33
TORSDOF 14
ENDMDL
MODEL 2
REMARK VINA RESULT: -6.213562416      3.198      6.077
REMARK  14 active torsions:
REMARK  status: ('A' for Active; 'I' for Inactive)
REMARK    1  A    between atoms: N1_1  and  C1_5 
REMARK    2  A    between atoms: C1_5  and  C2_6 
REMARK    3  A    between atoms: C2_6  and  C3_7 
REMARK    4  A    between atoms: C3_7  and  C4_8 
REMARK    5  A    between atoms: C4_8  and  C5_9 
REMARK    6  A    between atoms: C5_9  and  C6_10 
REMARK    7  A    between atoms: C6_10  and  N2_11 
REMARK    8  A    between atoms: C6_10  and  O1_15 
REMARK    9  A    between atoms: O1_15  and  C7_16 
REMARK   10  A    between atoms: C8_20  and  C9_21 
REMARK   11  A    between atoms: C10_24  and  O3_25 
REMARK   12  A    between atoms: C11_27  and  O4_28 
REMARK   13  A    between atoms: C12_30  and  C13_31 
REMARK   14  A    between atoms: C13_31  and  O5_32 
ROOT
HETATM    1  C7  UNL     1      -8.289 -21.540  32.236  1.00  0.00     0.474 C 
HETATM    2  N3  UNL     1      -9.248 -22.595  31.991  1.00  0.00     0.002 N 
ATOM      3  H31 UNL     1      -8.945 -23.464  32.431  1.00  0.00     0.286 HD
ATOM      4  H32 UNL     1      -9.226 -22.880  31.012  1.00  0.00     0.286 HD
HETATM    5  C8  UNL     1     -10.574 -22.271  32.387  1.00  0.00     0.339 C 
HETATM    6  O2  UNL     1     -10.693 -21.337  33.381  1.00  0.00    -0.325 OA
HETATM    7  C10 UNL     1     -10.310 -21.733  34.634  1.00  0.00     0.290 C 
HETATM    8  C11 UNL     1      -8.894 -21.271  34.896  1.00  0.00     0.204 C 
HETATM    9  C12 UNL     1      -7.953 -22.314  34.387  1.00  0.00     0.183 C 
HETATM   10  O6  UNL     1      -7.378 -21.884  33.202  1.00  0.00    -0.329 OA
ENDROOT
BRANCH   1  11
HETATM   11  O1  UNL     1      -7.604 -21.323  31.041  1.00  0.00    -0.305 OA
BRANCH  11  12
HETATM   12  C6  UNL     1      -6.219 -21.484  31.198  1.00  0.00     0.322 C 
BRANCH  12  13
HETATM   13  C5  UNL     1      -5.712 -22.123  29.949  1.00  0.00     0.061 C 
BRANCH  13  14
HETATM   14  C4  UNL     1      -6.686 -22.391  28.867  1.00  0.00     0.004 C 
BRANCH  14  15
HETATM   15  C3  UNL     1      -6.264 -23.276  27.754  1.00  0.00     0.002 C 
BRANCH  15  16
HETATM   16  C2  UNL     1      -5.322 -22.630  26.764  1.00  0.00     0.027 C 
BRANCH  16  17
HETATM   17  C1  UNL     1      -4.998 -23.613  25.650  1.00  0.00     0.229 C 
BRANCH  17  18
HETATM   18  N1  UNL     1      -6.213 -23.649  24.818  1.00  0.00    -0.079 N 
ATOM     19  H13 UNL     1      -6.032 -23.791  23.824  1.00  0.00     0.274 HD
ATOM     20  H12 UNL     1      -6.783 -24.483  24.951  1.00  0.00     0.274 HD
ATOM     21  H11 UNL     1      -6.698 -22.777  25.030  1.00  0.00     0.274 HD
ENDBRANCH  17  18
ENDBRANCH  16  17
ENDBRANCH  15  16
ENDBRANCH  14  15
ENDBRANCH  13  14
ENDBRANCH  12  13
BRANCH  12  22
HETATM   22  N2  UNL     1      -5.553 -20.278  31.511  1.00  0.00    -0.053 N 
ATOM     23  H23 UNL     1      -4.980 -19.965  30.728  1.00  0.00     0.277 HD
ATOM     24  H22 UNL     1      -6.211 -19.500  31.558  1.00  0.00     0.277 HD
ATOM     25  H21 UNL     1      -4.999 -20.338  32.365  1.00  0.00     0.277 HD
ENDBRANCH  12  22
ENDBRANCH  11  12
ENDBRANCH   1  11
BRANCH   5  26
HETATM   26  C9  UNL     1     -11.313 -23.560  32.694  1.00  0.00     0.147 C 
HETATM   27  S1  UNL     1     -13.090 -23.411  32.487  1.00  0.00    -0.093 SA
ENDBRANCH   5  26
BRANCH   9  28
HETATM   28  C13 UNL     1      -6.796 -22.542  35.365  1.00  0.00     0.199 C 
BRANCH  28  29
HETATM   29  O5  UNL     1      -5.637 -22.508  34.616  1.00  0.00    -0.398 OA
ATOM     30  H5  UNL     1      -5.334 -21.608  34.628  1.00  0.00     0.209 HD
ENDBRANCH  28  29
ENDBRANCH   9  28
BRANCH   8  31
HETATM   31  O4  UNL     1      -8.654 -21.139  36.279  1.00  0.00    -0.388 OA
ATOM     32  H4  UNL     1      -7.743 -21.313  36.484  1.00  0.00     0.210 HD
ENDBRANCH   8  31
BRANCH   7  33
HETATM   33  O3  UNL     1     -11.117 -21.034  35.560  1.00  0.00    -0.368 OA
ATOM     34  H3  UNL     1     -10.642 -21.003  36.382  1.00  0.00     0.212 HD
ENDBRANCH   7  33
TORSDOF 14
ENDMDL
MODEL 3
REMARK VINA RESULT: -6.195052243      2.718      5.538
REMARK  14 active torsions:
REMARK  status: ('A' for Active; 'I' for Inactive)
REMARK    1  A    between atoms: N1_1  and  C1_5 
REMARK    2  A    between atoms: C1_5  and  C2_6 
REMARK    3  A    between atoms: C2_6  and  C3_7 
REMARK    4  A    between atoms: C3_7  and  C4_8 
REMARK    5  A    between atoms: C4_8  and  C5_9 
REMARK    6  A    between atoms: C5_9  and  C6_10 
REMARK    7  A    between atoms: C6_10  and  N2_11 
REMARK    8  A    between atoms: C6_10  and  O1_15 
REMARK    9  A    between atoms: O1_15  and  C7_16 
REMARK   10  A    between atoms: C8_20  and  C9_21 
REMARK   11  A    between atoms: C10_24  and  O3_25 
REMARK   12  A    between atoms: C11_27  and  O4_28 
REMARK   13  A    between atoms: C12_30  and  C13_31 
REMARK   14  A    between atoms: C13_31  and  O5_32 
ROOT
HETATM    1  C7  UNL     1      -8.109 -21.596  32.202  1.00  0.00     0.474 C 
HETATM    2  N3  UNL     1      -9.030 -22.664  31.883  1.00  0.00     0.002 N 
ATOM      3  H31 UNL     1      -8.753 -23.527  32.351  1.00  0.00     0.286 HD
ATOM      4  H32 UNL     1      -8.921 -22.953  30.911  1.00  0.00     0.286 HD
HETATM    5  C8  UNL     1     -10.389 -22.356  32.164  1.00  0.00     0.339 C 
HETATM    6  O2  UNL     1     -10.603 -21.420  33.138  1.00  0.00    -0.325 OA
HETATM    7  C10 UNL     1     -10.322 -21.805  34.421  1.00  0.00     0.290 C 
HETATM    8  C11 UNL     1      -8.939 -21.323  34.800  1.00  0.00     0.204 C 
HETATM    9  C12 UNL     1      -7.945 -22.356  34.378  1.00  0.00     0.183 C 
HETATM   10  O6  UNL     1      -7.278 -21.924  33.243  1.00  0.00    -0.329 OA
ENDROOT
BRANCH   1  11
HETATM   11  O1  UNL     1      -7.327 -21.375  31.068  1.00  0.00    -0.305 OA
BRANCH  11  12
HETATM   12  C6  UNL     1      -5.988 -21.123  31.400  1.00  0.00     0.322 C 
BRANCH  12  13
HETATM   13  C5  UNL     1      -5.169 -21.500  30.210  1.00  0.00     0.061 C 
BRANCH  13  14
HETATM   14  C4  UNL     1      -5.560 -22.714  29.460  1.00  0.00     0.004 C 
BRANCH  14  15
HETATM   15  C3  UNL     1      -5.709 -22.606  27.988  1.00  0.00     0.002 C 
BRANCH  15  16
HETATM   16  C2  UNL     1      -6.884 -23.367  27.421  1.00  0.00     0.027 C 
BRANCH  16  17
HETATM   17  C1  UNL     1      -8.175 -22.846  28.033  1.00  0.00     0.229 C 
BRANCH  17  18
HETATM   18  N1  UNL     1      -8.937 -24.056  28.386  1.00  0.00    -0.079 N 
ATOM     19  H13 UNL     1      -8.533 -24.592  29.154  1.00  0.00     0.274 HD
ATOM     20  H12 UNL     1      -9.832 -23.867  28.837  1.00  0.00     0.274 HD
ATOM     21  H11 UNL     1      -9.015 -24.577  27.513  1.00  0.00     0.274 HD
ENDBRANCH  17  18
ENDBRANCH  16  17
ENDBRANCH  15  16
ENDBRANCH  14  15
ENDBRANCH  13  14
ENDBRANCH  12  13
BRANCH  12  22
HETATM   22  N2  UNL     1      -5.763 -19.795  31.827  1.00  0.00    -0.053 N 
ATOM     23  H23 UNL     1      -4.774 -19.555  31.762  1.00  0.00     0.277 HD
ATOM     24  H22 UNL     1      -6.141 -19.127  31.154  1.00  0.00     0.277 HD
ATOM     25  H21 UNL     1      -6.121 -19.612  32.764  1.00  0.00     0.277 HD
ENDBRANCH  12  22
ENDBRANCH  11  12
ENDBRANCH   1  11
BRANCH   5  26
HETATM   26  C9  UNL     1     -11.134 -23.653  32.414  1.00  0.00     0.147 C 
HETATM   27  S1  UNL     1     -12.914 -23.433  32.481  1.00  0.00    -0.093 SA
ENDBRANCH   5  26
BRANCH   9  28
HETATM   28  C13 UNL     1      -6.872 -22.564  35.452  1.00  0.00     0.199 C 
BRANCH  28  29
HETATM   29  O5  UNL     1      -5.657 -22.564  34.796  1.00  0.00    -0.398 OA
ATOM     30  H5  UNL     1      -5.309 -21.683  34.874  1.00  0.00     0.209 HD
ENDBRANCH  28  29
ENDBRANCH   9  28
BRANCH   8  31
HETATM   31  O4  UNL     1      -8.819 -21.182  36.197  1.00  0.00    -0.388 OA
ATOM     32  H4  UNL     1      -8.041 -20.685  36.423  1.00  0.00     0.210 HD
ENDBRANCH   8  31
BRANCH   7  33
HETATM   33  O3  UNL     1     -11.214 -21.112  35.272  1.00  0.00    -0.368 OA
ATOM     34  H3  UNL     1     -10.712 -20.804  36.017  1.00  0.00     0.212 HD
ENDBRANCH   7  33
TORSDOF 14
ENDMDL
MODEL 4
REMARK VINA RESULT: -6.172499485      2.563      5.034
REMARK  14 active torsions:
REMARK  status: ('A' for Active; 'I' for Inactive)
REMARK    1  A    between atoms: N1_1  and  C1_5 
REMARK    2  A    between atoms: C1_5  and  C2_6 
REMARK    3  A    between atoms: C2_6  and  C3_7 
REMARK    4  A    between atoms: C3_7  and  C4_8 
REMARK    5  A    between atoms: C4_8  and  C5_9 
REMARK    6  A    between atoms: C5_9  and  C6_10 
REMARK    7  A    between atoms: C6_10  and  N2_11 
REMARK    8  A    between atoms: C6_10  and  O1_15 
REMARK    9  A    between atoms: O1_15  and  C7_16 
REMARK   10  A    between atoms: C8_20  and  C9_21 
REMARK   11  A    between atoms: C10_24  and  O3_25 
REMARK   12  A    between atoms: C11_27  and  O4_28 
REMARK   13  A    between atoms: C12_30  and  C13_31 
REMARK   14  A    between atoms: C13_31  and  O5_32 
ROOT
HETATM    1  C7  UNL     1      -8.252 -21.825  33.310  1.00  0.00     0.474 C 
HETATM    2  N3  UNL     1      -9.286 -20.848  33.571  1.00  0.00     0.002 N 
ATOM      3  H31 UNL     1      -9.420 -20.244  32.761  1.00  0.00     0.286 HD
ATOM      4  H32 UNL     1      -8.963 -20.158  34.250  1.00  0.00     0.286 HD
HETATM    5  C8  UNL     1     -10.523 -21.415  33.984  1.00  0.00     0.339 C 
HETATM    6  O2  UNL     1     -10.761 -22.698  33.573  1.00  0.00    -0.325 OA
HETATM    7  C10 UNL     1     -11.014 -22.870  32.239  1.00  0.00     0.290 C 
HETATM    8  C11 UNL     1      -9.742 -23.291  31.537  1.00  0.00     0.204 C 
HETATM    9  C12 UNL     1      -8.994 -22.062  31.135  1.00  0.00     0.183 C 
HETATM   10  O6  UNL     1      -7.913 -21.876  31.982  1.00  0.00    -0.329 OA
ENDROOT
BRANCH   1  11
HETATM   11  O1  UNL     1      -7.127 -21.436  34.037  1.00  0.00    -0.305 OA
BRANCH  11  12
HETATM   12  C6  UNL     1      -6.730 -22.425  34.950  1.00  0.00     0.322 C 
BRANCH  12  13
HETATM   13  C5  UNL     1      -7.749 -22.441  36.041  1.00  0.00     0.061 C 
BRANCH  13  14
HETATM   14  C4  UNL     1      -7.303 -22.091  37.407  1.00  0.00     0.004 C 
BRANCH  14  15
HETATM   15  C3  UNL     1      -7.567 -20.715  37.896  1.00  0.00     0.002 C 
BRANCH  15  16
HETATM   16  C2  UNL     1      -8.551 -19.933  37.057  1.00  0.00     0.027 C 
BRANCH  16  17
HETATM   17  C1  UNL     1      -7.942 -18.593  36.671  1.00  0.00     0.229 C 
BRANCH  17  18
HETATM   18  N1  UNL     1      -6.961 -18.918  35.620  1.00  0.00    -0.079 N 
ATOM     19  H13 UNL     1      -6.440 -18.112  35.276  1.00  0.00     0.274 HD
ATOM     20  H12 UNL     1      -6.153 -19.443  35.954  1.00  0.00     0.274 HD
ATOM     21  H11 UNL     1      -7.501 -19.401  34.902  1.00  0.00     0.274 HD
ENDBRANCH  17  18
ENDBRANCH  16  17
ENDBRANCH  15  16
ENDBRANCH  14  15
ENDBRANCH  13  14
ENDBRANCH  12  13
BRANCH  12  22
HETATM   22  N2  UNL     1      -6.542 -23.690  34.352  1.00  0.00    -0.053 N 
ATOM     23  H23 UNL     1      -6.129 -24.348  35.012  1.00  0.00     0.277 HD
ATOM     24  H22 UNL     1      -7.437 -24.154  34.192  1.00  0.00     0.277 HD
ATOM     25  H21 UNL     1      -5.996 -23.647  33.491  1.00  0.00     0.277 HD
ENDBRANCH  12  22
ENDBRANCH  11  12
ENDBRANCH   1  11
BRANCH   5  26
HETATM   26  C9  UNL     1     -11.638 -20.456  33.612  1.00  0.00     0.147 C 
HETATM   27  S1  UNL     1     -13.193 -20.851  34.416  1.00  0.00    -0.093 SA
ENDBRANCH   5  26
BRANCH   9  28
HETATM   28  C13 UNL     1      -8.411 -22.204  29.725  1.00  0.00     0.199 C 
BRANCH  28  29
HETATM   29  O5  UNL     1      -9.254 -21.508  28.881  1.00  0.00    -0.398 OA
ATOM     30  H5  UNL     1      -8.765 -21.349  28.083  1.00  0.00     0.209 HD
ENDBRANCH  28  29
ENDBRANCH   9  28
BRANCH   8  31
HETATM   31  O4  UNL     1     -10.029 -24.004  30.355  1.00  0.00    -0.388 OA
ATOM     32  H4  UNL     1     -10.260 -23.412  29.649  1.00  0.00     0.210 HD
ENDBRANCH   8  31
BRANCH   7  33
HETATM   33  O3  UNL     1     -11.898 -23.968  32.118  1.00  0.00    -0.368 OA
ATOM     34  H3  UNL     1     -11.939 -24.196  31.197  1.00  0.00     0.212 HD
ENDBRANCH   7  33
TORSDOF 14
ENDMDL
MODEL 5
REMARK VINA RESULT: -6.138407832      1.491      1.728
REMARK  14 active torsions:
REMARK  status: ('A' for Active; 'I' for Inactive)
REMARK    1  A    between atoms: N1_1  and  C1_5 
REMARK    2  A    between atoms: C1_5  and  C2_6 
REMARK    3  A    between atoms: C2_6  and  C3_7 
REMARK    4  A    between atoms: C3_7  and  C4_8 
REMARK    5  A    between atoms: C4_8  and  C5_9 
REMARK    6  A    between atoms: C5_9  and  C6_10 
REMARK    7  A    between atoms: C6_10  and  N2_11 
REMARK    8  A    between atoms: C6_10  and  O1_15 
REMARK    9  A    between atoms: O1_15  and  C7_16 
REMARK   10  A    between atoms: C8_20  and  C9_21 
REMARK   11  A    between atoms: C10_24  and  O3_25 
REMARK   12  A    between atoms: C11_27  and  O4_28 
REMARK   13  A    between atoms: C12_30  and  C13_31 
REMARK   14  A    between atoms: C13_31  and  O5_32 
ROOT
HETATM    1  C7  UNL     1      -8.634 -21.975  31.212  1.00  0.00     0.474 C 
HETATM    2  N3  UNL     1      -8.276 -22.549  32.490  1.00  0.00     0.002 N 
ATOM      3  H31 UNL     1      -7.678 -23.365  32.361  1.00  0.00     0.286 HD
ATOM      4  H32 UNL     1      -9.086 -22.995  32.922  1.00  0.00     0.286 HD
HETATM    5  C8  UNL     1      -7.676 -21.626  33.388  1.00  0.00     0.339 C 
HETATM    6  O2  UNL     1      -7.034 -20.562  32.815  1.00  0.00    -0.325 OA
HETATM    7  C10 UNL     1      -5.863 -20.840  32.162  1.00  0.00     0.290 C 
HETATM    8  C11 UNL     1      -6.136 -20.981  30.681  1.00  0.00     0.204 C 
HETATM    9  C12 UNL     1      -6.512 -22.399  30.401  1.00  0.00     0.183 C 
HETATM   10  O6  UNL     1      -7.879 -22.484  30.186  1.00  0.00    -0.329 OA
ENDROOT
BRANCH   1  11
HETATM   11  O1  UNL     1      -9.970 -22.297  30.976  1.00  0.00    -0.305 OA
BRANCH  11  12
HETATM   12  C6  UNL     1     -10.195 -23.679  31.057  1.00  0.00     0.322 C 
BRANCH  12  13
HETATM   13  C5  UNL     1     -11.514 -23.866  31.728  1.00  0.00     0.061 C 
BRANCH  13  14
HETATM   14  C4  UNL     1     -11.646 -23.411  33.131  1.00  0.00     0.004 C 
BRANCH  14  15
HETATM   15  C3  UNL     1     -12.866 -22.655  33.507  1.00  0.00     0.002 C 
BRANCH  15  16
HETATM   16  C2  UNL     1     -12.603 -21.412  34.325  1.00  0.00     0.027 C 
BRANCH  16  17
HETATM   17  C1  UNL     1     -11.110 -21.272  34.578  1.00  0.00     0.229 C 
BRANCH  17  18
HETATM   18  N1  UNL     1     -10.979 -21.259  36.045  1.00  0.00    -0.079 N 
ATOM     19  H13 UNL     1     -10.981 -20.325  36.454  1.00  0.00     0.274 HD
ATOM     20  H12 UNL     1     -11.804 -21.601  36.539  1.00  0.00     0.274 HD
ATOM     21  H11 UNL     1     -10.132 -21.794  36.235  1.00  0.00     0.274 HD
ENDBRANCH  17  18
ENDBRANCH  16  17
ENDBRANCH  15  16
ENDBRANCH  14  15
ENDBRANCH  13  14
ENDBRANCH  12  13
BRANCH  12  22
HETATM   22  N2  UNL     1     -10.116 -24.329  29.805  1.00  0.00    -0.053 N 
ATOM     23  H23 UNL     1     -10.997 -24.788  29.577  1.00  0.00     0.277 HD
ATOM     24  H22 UNL     1     -10.080 -23.650  29.045  1.00  0.00     0.277 HD
ATOM     25  H21 UNL     1      -9.337 -24.985  29.745  1.00  0.00     0.277 HD
ENDBRANCH  12  22
ENDBRANCH  11  12
ENDBRANCH   1  11
BRANCH   5  26
HETATM   26  C9  UNL     1      -6.797 -22.398  34.355  1.00  0.00     0.147 C 
HETATM   27  S1  UNL     1      -7.315 -22.217  36.064  1.00  0.00    -0.093 SA
ENDBRANCH   5  26
BRANCH   9  28
HETATM   28  C13 UNL     1      -5.846 -22.907  29.119  1.00  0.00     0.199 C 
BRANCH  28  29
HETATM   29  O5  UNL     1      -6.606 -23.971  28.677  1.00  0.00    -0.398 OA
ATOM     30  H5  UNL     1      -5.997 -24.614  28.332  1.00  0.00     0.209 HD
ENDBRANCH  28  29
ENDBRANCH   9  28
BRANCH   8  31
HETATM   31  O4  UNL     1      -4.977 -20.706  29.926  1.00  0.00    -0.388 OA
ATOM     32  H4  UNL     1      -5.181 -20.644  29.001  1.00  0.00     0.210 HD
ENDBRANCH   8  31
BRANCH   7  33
HETATM   33  O3  UNL     1      -5.031 -19.704  32.291  1.00  0.00    -0.368 OA
ATOM     34  H3  UNL     1      -5.472 -18.981  31.861  1.00  0.00     0.212 HD
ENDBRANCH   7  33
TORSDOF 14
ENDMDL
