MODEL 1
REMARK VINA RESULT: -7.381430841      0.000      0.000
REMARK  14 active torsions:
REMARK  status: ('A' for Active; 'I' for Inactive)
REMARK    1  A    between atoms: C2_2  and  N1_4 
REMARK    2  A    between atoms: C5_10  and  N4_11 
REMARK    3  A    between atoms: C6_16  and  N6_17 
REMARK    4  A    between atoms: C8_23  and  N8_24 
REMARK    5  A    between atoms: N8_24  and  C9_25 
REMARK    6  A    between atoms: C9_25  and  C10_26 
REMARK    7  A    between atoms: C10_26  and  C11_27 
REMARK    8  A    between atoms: C11_27  and  C12_28 
REMARK    9  A    between atoms: C12_28  and  N9_29 
REMARK   10  A    between atoms: N9_29  and  N10_30 
REMARK   11  A    between atoms: N10_30  and  C13_31 
REMARK   12  A    between atoms: C13_31  and  N11_32 
REMARK   13  A    between atoms: C13_31  and  C14_36 
REMARK   14  A    between atoms: C14_36  and  N12_37 
ROOT
HETATM    1  N1  UNL     1      -8.940 -21.137  35.224  1.00  0.00    -0.245 N 
HETATM    2  N2  UNL     1     -10.149 -20.969  35.688  1.00  0.00    -0.237 N 
ATOM      3  H2  UNL     1     -10.271 -20.424  36.542  1.00  0.00     0.208 HD
HETATM    4  N3  UNL     1     -11.221 -21.472  35.102  1.00  0.00    -0.280 N 
ATOM      5  H3  UNL     1     -12.140 -21.306  35.514  1.00  0.00     0.188 HD
HETATM    6  C4  UNL     1     -11.124 -22.199  33.976  1.00  0.00     0.125 A 
HETATM    7  C5  UNL     1     -12.265 -22.708  33.393  1.00  0.00     0.145 A 
HETATM    8  N5  UNL     1     -12.109 -23.426  32.270  1.00  0.00    -0.175 N 
ATOM      9  H5  UNL     1     -12.934 -23.816  31.814  1.00  0.00     0.186 HD
HETATM   10  C6  UNL     1     -10.899 -23.647  31.726  1.00  0.00     0.678 A 
HETATM   11  N7  UNL     1      -9.769 -23.144  32.299  1.00  0.00    -0.185 N 
ATOM     12  H7  UNL     1      -8.855 -23.317  31.880  1.00  0.00     0.184 HD
HETATM   13  C7  UNL     1      -9.879 -22.407  33.443  1.00  0.00     0.140 A 
HETATM   14  C8  UNL     1      -8.774 -21.864  34.086  1.00  0.00     0.226 A 
ENDROOT
BRANCH  14  15
HETATM   15  N8  UNL     1      -7.656 -22.011  33.671  1.00  0.00    -0.400 NA
BRANCH  15  16
HETATM   16  C9  UNL     1      -6.573 -22.097  32.874  1.00  0.00     0.157 C 
BRANCH  16  17
HETATM   17  C10 UNL     1      -6.190 -20.879  32.068  1.00  0.00     0.061 C 
BRANCH  17  18
HETATM   18  C11 UNL     1      -5.417 -21.304  30.861  1.00  0.00     0.023 C 
BRANCH  18  19
HETATM   19  C12 UNL     1      -6.181 -22.057  29.822  1.00  0.00     0.131 C 
BRANCH  19  20
HETATM   20  N9  UNL     1      -5.433 -23.251  29.408  1.00  0.00    -0.146 NA
BRANCH  20  21
HETATM   21  N10 UNL     1      -6.146 -23.933  28.443  1.00  0.00    -0.114 NA
BRANCH  21  22
HETATM   22  C13 UNL     1      -6.421 -23.095  27.288  1.00  0.00     0.316 C 
BRANCH  22  23
HETATM   23  N11 UNL     1      -5.383 -23.243  26.286  1.00  0.00    -0.058 N 
ATOM     24 3H11 UNL     1      -5.410 -24.164  25.849  1.00  0.00     0.276 HD
ATOM     25 2H11 UNL     1      -5.572 -22.675  25.460  1.00  0.00     0.276 HD
ATOM     26 1H11 UNL     1      -4.466 -23.039  26.684  1.00  0.00     0.276 HD
ENDBRANCH  22  23
BRANCH  22  27
HETATM   27  C14 UNL     1      -7.759 -23.501  26.704  1.00  0.00     0.280 C 
BRANCH  27  28
HETATM   28  N12 UNL     1      -8.704 -23.826  27.730  1.00  0.00    -0.076 N 
ATOM     29 3H12 UNL     1      -8.837 -24.834  27.808  1.00  0.00     0.274 HD
ATOM     30 2H12 UNL     1      -8.324 -23.644  28.659  1.00  0.00     0.274 HD
ATOM     31 1H12 UNL     1      -9.591 -23.342  27.589  1.00  0.00     0.274 HD
ENDBRANCH  27  28
ENDBRANCH  22  27
ENDBRANCH  21  22
ENDBRANCH  20  21
ENDBRANCH  19  20
ENDBRANCH  18  19
ENDBRANCH  17  18
ENDBRANCH  16  17
ENDBRANCH  15  16
ENDBRANCH  14  15
BRANCH   1  32
HETATM   32  C2  UNL     1      -7.839 -20.548  35.936  1.00  0.00     0.104 C 
HETATM   33  C1  UNL     1      -8.026 -19.115  36.297  1.00  0.00     0.034 C 
HETATM   34  C3  UNL     1      -7.681 -21.329  37.231  1.00  0.00     0.034 C 
ENDBRANCH   1  32
BRANCH   7  35
HETATM   35  N4  UNL     1     -13.392 -22.465  33.958  1.00  0.00    -0.383 N 
ATOM     36  H42 UNL     1     -13.540 -22.412  34.966  1.00  0.00     0.157 HD
ATOM     37  H41 UNL     1     -14.205 -22.312  33.360  1.00  0.00     0.157 HD
ENDBRANCH   7  35
BRANCH  10  38
HETATM   38  N6  UNL     1     -10.740 -24.333  30.651  1.00  0.00    -0.234 N 
ATOM     39  H62 UNL     1     -11.079 -25.295  30.671  1.00  0.00     0.174 HD
ATOM     40  H61 UNL     1     -10.299 -23.948  29.815  1.00  0.00     0.174 HD
ENDBRANCH  10  38
TORSDOF 14
ENDMDL
MODEL 2
REMARK VINA RESULT: -7.274429063      1.004      1.128
REMARK  14 active torsions:
REMARK  status: ('A' for Active; 'I' for Inactive)
REMARK    1  A    between atoms: C2_2  and  N1_4 
REMARK    2  A    between atoms: C5_10  and  N4_11 
REMARK    3  A    between atoms: C6_16  and  N6_17 
REMARK    4  A    between atoms: C8_23  and  N8_24 
REMARK    5  A    between atoms: N8_24  and  C9_25 
REMARK    6  A    between atoms: C9_25  and  C10_26 
REMARK    7  A    between atoms: C10_26  and  C11_27 
REMARK    8  A    between atoms: C11_27  and  C12_28 
REMARK    9  A    between atoms: C12_28  and  N9_29 
REMARK   10  A    between atoms: N9_29  and  N10_30 
REMARK   11  A    between atoms: N10_30  and  C13_31 
REMARK   12  A    between atoms: C13_31  and  N11_32 
REMARK   13  A    between atoms: C13_31  and  C14_36 
REMARK   14  A    between atoms: C14_36  and  N12_37 
ROOT
HETATM    1  N1  UNL     1      -8.942 -21.144  35.170  1.00  0.00    -0.245 N 
HETATM    2  N2  UNL     1     -10.140 -20.997  35.666  1.00  0.00    -0.237 N 
ATOM      3  H2  UNL     1     -10.247 -20.463  36.529  1.00  0.00     0.208 HD
HETATM    4  N3  UNL     1     -11.221 -21.507  35.102  1.00  0.00    -0.280 N 
ATOM      5  H3  UNL     1     -12.131 -21.357  35.538  1.00  0.00     0.188 HD
HETATM    6  C4  UNL     1     -11.144 -22.220  33.965  1.00  0.00     0.125 A 
HETATM    7  C5  UNL     1     -12.292 -22.737  33.406  1.00  0.00     0.145 A 
HETATM    8  N5  UNL     1     -12.156 -23.441  32.271  1.00  0.00    -0.175 N 
ATOM      9  H5  UNL     1     -12.988 -23.837  31.832  1.00  0.00     0.186 HD
HETATM   10  C6  UNL     1     -10.957 -23.640  31.695  1.00  0.00     0.678 A 
HETATM   11  N7  UNL     1      -9.820 -23.130  32.244  1.00  0.00    -0.185 N 
ATOM     12  H7  UNL     1      -8.915 -23.286  31.800  1.00  0.00     0.184 HD
HETATM   13  C7  UNL     1      -9.909 -22.407  33.399  1.00  0.00     0.140 A 
HETATM   14  C8  UNL     1      -8.796 -21.856  34.020  1.00  0.00     0.226 A 
ENDROOT
BRANCH  14  15
HETATM   15  N8  UNL     1      -7.687 -21.984  33.575  1.00  0.00    -0.400 NA
BRANCH  15  16
HETATM   16  C9  UNL     1      -6.606 -21.965  32.772  1.00  0.00     0.157 C 
BRANCH  16  17
HETATM   17  C10 UNL     1      -6.211 -20.648  32.149  1.00  0.00     0.061 C 
BRANCH  17  18
HETATM   18  C11 UNL     1      -5.405 -20.902  30.915  1.00  0.00     0.023 C 
BRANCH  18  19
HETATM   19  C12 UNL     1      -5.875 -22.019  30.042  1.00  0.00     0.131 C 
BRANCH  19  20
HETATM   20  N9  UNL     1      -4.859 -22.332  29.029  1.00  0.00    -0.146 NA
BRANCH  20  21
HETATM   21  N10 UNL     1      -5.402 -23.162  28.069  1.00  0.00    -0.114 NA
BRANCH  21  22
HETATM   22  C13 UNL     1      -5.341 -22.562  26.746  1.00  0.00     0.316 C 
BRANCH  22  23
HETATM   23  N11 UNL     1      -4.277 -21.580  26.677  1.00  0.00    -0.058 N 
ATOM     24 3H11 UNL     1      -3.400 -21.995  26.362  1.00  0.00     0.276 HD
ATOM     25 2H11 UNL     1      -4.419 -20.922  25.910  1.00  0.00     0.276 HD
ATOM     26 1H11 UNL     1      -4.169 -21.100  27.571  1.00  0.00     0.276 HD
ENDBRANCH  22  23
BRANCH  22  27
HETATM   27  C14 UNL     1      -5.094 -23.658  25.730  1.00  0.00     0.280 C 
BRANCH  27  28
HETATM   28  N12 UNL     1      -6.090 -23.656  24.701  1.00  0.00    -0.076 N 
ATOM     29 3H12 UNL     1      -6.708 -24.464  24.779  1.00  0.00     0.274 HD
ATOM     30 2H12 UNL     1      -6.778 -22.917  24.848  1.00  0.00     0.274 HD
ATOM     31 1H12 UNL     1      -5.671 -23.595  23.773  1.00  0.00     0.274 HD
ENDBRANCH  27  28
ENDBRANCH  22  27
ENDBRANCH  21  22
ENDBRANCH  20  21
ENDBRANCH  19  20
ENDBRANCH  18  19
ENDBRANCH  17  18
ENDBRANCH  16  17
ENDBRANCH  15  16
ENDBRANCH  14  15
BRANCH   1  32
HETATM   32  C2  UNL     1      -7.831 -20.549  35.860  1.00  0.00     0.104 C 
HETATM   33  C1  UNL     1      -8.035 -19.129  36.262  1.00  0.00     0.034 C 
HETATM   34  C3  UNL     1      -7.615 -21.357  37.130  1.00  0.00     0.034 C 
ENDBRANCH   1  32
BRANCH   7  35
HETATM   35  N4  UNL     1     -13.408 -22.515  34.001  1.00  0.00    -0.383 N 
ATOM     36  H42 UNL     1     -13.696 -21.613  34.381  1.00  0.00     0.157 HD
ATOM     37  H41 UNL     1     -14.060 -23.292  34.105  1.00  0.00     0.157 HD
ENDBRANCH   7  35
BRANCH  10  38
HETATM   38  N6  UNL     1     -10.817 -24.312  30.608  1.00  0.00    -0.234 N 
ATOM     39  H62 UNL     1     -11.578 -24.247  29.931  1.00  0.00     0.174 HD
ATOM     40  H61 UNL     1      -9.995 -24.886  30.420  1.00  0.00     0.174 HD
ENDBRANCH  10  38
TORSDOF 14
ENDMDL
MODEL 3
REMARK VINA RESULT: -7.013411958      0.823      1.128
REMARK  14 active torsions:
REMARK  status: ('A' for Active; 'I' for Inactive)
REMARK    1  A    between atoms: C2_2  and  N1_4 
REMARK    2  A    between atoms: C5_10  and  N4_11 
REMARK    3  A    between atoms: C6_16  and  N6_17 
REMARK    4  A    between atoms: C8_23  and  N8_24 
REMARK    5  A    between atoms: N8_24  and  C9_25 
REMARK    6  A    between atoms: C9_25  and  C10_26 
REMARK    7  A    between atoms: C10_26  and  C11_27 
REMARK    8  A    between atoms: C11_27  and  C12_28 
REMARK    9  A    between atoms: C12_28  and  N9_29 
REMARK   10  A    between atoms: N9_29  and  N10_30 
REMARK   11  A    between atoms: N10_30  and  C13_31 
REMARK   12  A    between atoms: C13_31  and  N11_32 
REMARK   13  A    between atoms: C13_31  and  C14_36 
REMARK   14  A    between atoms: C14_36  and  N12_37 
ROOT
HETATM    1  N1  UNL     1      -8.913 -21.165  34.873  1.00  0.00    -0.245 N 
HETATM    2  N2  UNL     1     -10.120 -21.052  35.360  1.00  0.00    -0.237 N 
ATOM      3  H2  UNL     1     -10.251 -20.511  36.215  1.00  0.00     0.208 HD
HETATM    4  N3  UNL     1     -11.179 -21.606  34.796  1.00  0.00    -0.280 N 
ATOM      5  H3  UNL     1     -12.096 -21.482  35.224  1.00  0.00     0.188 HD
HETATM    6  C4  UNL     1     -11.069 -22.331  33.669  1.00  0.00     0.125 A 
HETATM    7  C5  UNL     1     -12.196 -22.894  33.110  1.00  0.00     0.145 A 
HETATM    8  N5  UNL     1     -12.028 -23.608  31.985  1.00  0.00    -0.175 N 
ATOM      9  H5  UNL     1     -12.843 -24.037  31.546  1.00  0.00     0.186 HD
HETATM   10  C6  UNL     1     -10.820 -23.773  31.418  1.00  0.00     0.678 A 
HETATM   11  N7  UNL     1      -9.704 -23.217  31.969  1.00  0.00    -0.185 N 
ATOM     12  H7  UNL     1      -8.791 -23.348  31.532  1.00  0.00     0.184 HD
HETATM   13  C7  UNL     1      -9.826 -22.483  33.113  1.00  0.00     0.140 A 
HETATM   14  C8  UNL     1      -8.736 -21.886  33.733  1.00  0.00     0.226 A 
ENDROOT
BRANCH  14  15
HETATM   15  N8  UNL     1      -7.621 -21.982  33.297  1.00  0.00    -0.400 NA
BRANCH  15  16
HETATM   16  C9  UNL     1      -6.468 -21.767  32.633  1.00  0.00     0.157 C 
BRANCH  16  17
HETATM   17  C10 UNL     1      -6.530 -21.658  31.129  1.00  0.00     0.061 C 
BRANCH  17  18
HETATM   18  C11 UNL     1      -5.272 -22.212  30.537  1.00  0.00     0.023 C 
BRANCH  18  19
HETATM   19  C12 UNL     1      -5.160 -22.146  29.050  1.00  0.00     0.131 C 
BRANCH  19  20
HETATM   20  N9  UNL     1      -5.791 -23.324  28.441  1.00  0.00    -0.146 NA
BRANCH  20  21
HETATM   21  N10 UNL     1      -6.652 -22.923  27.440  1.00  0.00    -0.114 NA
BRANCH  21  22
HETATM   22  C13 UNL     1      -8.035 -23.226  27.769  1.00  0.00     0.316 C 
BRANCH  22  23
HETATM   23  N11 UNL     1      -8.666 -22.098  28.426  1.00  0.00    -0.058 N 
ATOM     24 3H11 UNL     1      -9.174 -21.511  27.763  1.00  0.00     0.276 HD
ATOM     25 2H11 UNL     1      -9.452 -22.390  29.007  1.00  0.00     0.276 HD
ATOM     26 1H11 UNL     1      -7.981 -21.560  28.958  1.00  0.00     0.276 HD
ENDBRANCH  22  23
BRANCH  22  27
HETATM   27  C14 UNL     1      -8.776 -23.554  26.489  1.00  0.00     0.280 C 
BRANCH  27  28
HETATM   28  N12 UNL     1      -9.673 -24.656  26.667  1.00  0.00    -0.076 N 
ATOM     29 3H12 UNL     1     -10.592 -24.342  26.979  1.00  0.00     0.274 HD
ATOM     30 2H12 UNL     1      -9.941 -25.066  25.773  1.00  0.00     0.274 HD
ATOM     31 1H12 UNL     1      -9.285 -25.357  27.297  1.00  0.00     0.274 HD
ENDBRANCH  27  28
ENDBRANCH  22  27
ENDBRANCH  21  22
ENDBRANCH  20  21
ENDBRANCH  19  20
ENDBRANCH  18  19
ENDBRANCH  17  18
ENDBRANCH  16  17
ENDBRANCH  15  16
ENDBRANCH  14  15
BRANCH   1  32
HETATM   32  C2  UNL     1      -7.828 -20.523  35.563  1.00  0.00     0.104 C 
HETATM   33  C1  UNL     1      -8.072 -19.098  35.920  1.00  0.00     0.034 C 
HETATM   34  C3  UNL     1      -7.612 -21.290  36.858  1.00  0.00     0.034 C 
ENDBRANCH   1  32
BRANCH   7  35
HETATM   35  N4  UNL     1     -13.322 -22.702  33.695  1.00  0.00    -0.383 N 
ATOM     36  H42 UNL     1     -13.470 -22.070  34.482  1.00  0.00     0.157 HD
ATOM     37  H41 UNL     1     -14.135 -23.216  33.353  1.00  0.00     0.157 HD
ENDBRANCH   7  35
BRANCH  10  38
HETATM   38  N6  UNL     1     -10.650 -24.454  30.341  1.00  0.00    -0.234 N 
ATOM     39  H62 UNL     1     -10.772 -25.464  30.418  1.00  0.00     0.174 HD
ATOM     40  H61 UNL     1     -10.404 -24.020  29.451  1.00  0.00     0.174 HD
ENDBRANCH  10  38
TORSDOF 14
ENDMDL
MODEL 4
REMARK VINA RESULT: -6.921695283      1.865      4.547
REMARK  14 active torsions:
REMARK  status: ('A' for Active; 'I' for Inactive)
REMARK    1  A    between atoms: C2_2  and  N1_4 
REMARK    2  A    between atoms: C5_10  and  N4_11 
REMARK    3  A    between atoms: C6_16  and  N6_17 
REMARK    4  A    between atoms: C8_23  and  N8_24 
REMARK    5  A    between atoms: N8_24  and  C9_25 
REMARK    6  A    between atoms: C9_25  and  C10_26 
REMARK    7  A    between atoms: C10_26  and  C11_27 
REMARK    8  A    between atoms: C11_27  and  C12_28 
REMARK    9  A    between atoms: C12_28  and  N9_29 
REMARK   10  A    between atoms: N9_29  and  N10_30 
REMARK   11  A    between atoms: N10_30  and  C13_31 
REMARK   12  A    between atoms: C13_31  and  N11_32 
REMARK   13  A    between atoms: C13_31  and  C14_36 
REMARK   14  A    between atoms: C14_36  and  N12_37 
ROOT
HETATM    1  N1  UNL     1     -10.555 -21.765  33.460  1.00  0.00    -0.245 N 
HETATM    2  N2  UNL     1     -10.519 -21.378  34.707  1.00  0.00    -0.237 N 
ATOM      3  H2  UNL     1     -11.285 -21.650  35.323  1.00  0.00     0.208 HD
HETATM    4  N3  UNL     1      -9.537 -20.648  35.206  1.00  0.00    -0.280 N 
ATOM      5  H3  UNL     1      -9.565 -20.376  36.189  1.00  0.00     0.188 HD
HETATM    6  C4  UNL     1      -8.502 -20.257  34.443  1.00  0.00     0.125 A 
HETATM    7  C5  UNL     1      -7.495 -19.496  34.999  1.00  0.00     0.145 A 
HETATM    8  N5  UNL     1      -6.486 -19.134  34.191  1.00  0.00    -0.175 N 
ATOM      9  H5  UNL     1      -5.726 -18.571  34.572  1.00  0.00     0.186 HD
HETATM   10  C6  UNL     1      -6.447 -19.490  32.894  1.00  0.00     0.678 A 
HETATM   11  N7  UNL     1      -7.440 -20.243  32.342  1.00  0.00    -0.185 N 
ATOM     12  H7  UNL     1      -7.402 -20.509  31.358  1.00  0.00     0.184 HD
HETATM   13  C7  UNL     1      -8.487 -20.635  33.126  1.00  0.00     0.140 A 
HETATM   14  C8  UNL     1      -9.536 -21.401  32.636  1.00  0.00     0.226 A 
ENDROOT
BRANCH  14  15
HETATM   15  N8  UNL     1      -9.582 -21.764  31.491  1.00  0.00    -0.400 NA
BRANCH  15  16
HETATM   16  C9  UNL     1      -9.257 -22.124  30.234  1.00  0.00     0.157 C 
BRANCH  16  17
HETATM   17  C10 UNL     1      -9.495 -23.558  29.826  1.00  0.00     0.061 C 
BRANCH  17  18
HETATM   18  C11 UNL     1      -9.005 -23.765  28.427  1.00  0.00     0.023 C 
BRANCH  18  19
HETATM   19  C12 UNL     1      -7.876 -22.891  27.990  1.00  0.00     0.131 C 
BRANCH  19  20
HETATM   20  N9  UNL     1      -6.685 -23.703  27.712  1.00  0.00    -0.146 NA
BRANCH  20  21
HETATM   21  N10 UNL     1      -5.861 -23.712  28.819  1.00  0.00    -0.114 NA
BRANCH  21  22
HETATM   22  C13 UNL     1      -5.684 -22.377  29.365  1.00  0.00     0.316 C 
BRANCH  22  23
HETATM   23  N11 UNL     1      -5.507 -22.429  30.803  1.00  0.00    -0.058 N 
ATOM     24 3H11 UNL     1      -5.395 -23.387  31.135  1.00  0.00     0.276 HD
ATOM     25 2H11 UNL     1      -4.599 -22.061  31.086  1.00  0.00     0.276 HD
ATOM     26 1H11 UNL     1      -6.274 -21.952  31.279  1.00  0.00     0.276 HD
ENDBRANCH  22  23
BRANCH  22  27
HETATM   27  C14 UNL     1      -4.464 -21.750  28.722  1.00  0.00     0.280 C 
BRANCH  27  28
HETATM   28  N12 UNL     1      -4.546 -21.783  27.292  1.00  0.00    -0.076 N 
ATOM     29 3H12 UNL     1      -4.527 -22.741  26.940  1.00  0.00     0.274 HD
ATOM     30 2H12 UNL     1      -5.474 -21.514  26.966  1.00  0.00     0.274 HD
ATOM     31 1H12 UNL     1      -3.820 -21.212  26.861  1.00  0.00     0.274 HD
ENDBRANCH  27  28
ENDBRANCH  22  27
ENDBRANCH  21  22
ENDBRANCH  20  21
ENDBRANCH  19  20
ENDBRANCH  18  19
ENDBRANCH  17  18
ENDBRANCH  16  17
ENDBRANCH  15  16
ENDBRANCH  14  15
BRANCH   1  32
HETATM   32  C2  UNL     1     -11.669 -22.557  33.016  1.00  0.00     0.104 C 
HETATM   33  C1  UNL     1     -11.366 -24.001  32.815  1.00  0.00     0.034 C 
HETATM   34  C3  UNL     1     -12.739 -22.458  34.092  1.00  0.00     0.034 C 
ENDBRANCH   1  32
BRANCH   7  35
HETATM   35  N4  UNL     1      -7.587 -19.186  36.241  1.00  0.00    -0.383 N 
ATOM     36  H42 UNL     1      -8.287 -18.557  36.635  1.00  0.00     0.157 HD
ATOM     37  H41 UNL     1      -6.914 -19.596  36.889  1.00  0.00     0.157 HD
ENDBRANCH   7  35
BRANCH  10  38
HETATM   38  N6  UNL     1      -5.485 -19.148  32.114  1.00  0.00    -0.234 N 
ATOM     39  H62 UNL     1      -4.561 -19.516  32.342  1.00  0.00     0.174 HD
ATOM     40  H61 UNL     1      -5.624 -18.541  31.306  1.00  0.00     0.174 HD
ENDBRANCH  10  38
TORSDOF 14
ENDMDL
MODEL 5
REMARK VINA RESULT: -6.836201812      2.608      4.999
REMARK  14 active torsions:
REMARK  status: ('A' for Active; 'I' for Inactive)
REMARK    1  A    between atoms: C2_2  and  N1_4 
REMARK    2  A    between atoms: C5_10  and  N4_11 
REMARK    3  A    between atoms: C6_16  and  N6_17 
REMARK    4  A    between atoms: C8_23  and  N8_24 
REMARK    5  A    between atoms: N8_24  and  C9_25 
REMARK    6  A    between atoms: C9_25  and  C10_26 
REMARK    7  A    between atoms: C10_26  and  C11_27 
REMARK    8  A    between atoms: C11_27  and  C12_28 
REMARK    9  A    between atoms: C12_28  and  N9_29 
REMARK   10  A    between atoms: N9_29  and  N10_30 
REMARK   11  A    between atoms: N10_30  and  C13_31 
REMARK   12  A    between atoms: C13_31  and  N11_32 
REMARK   13  A    between atoms: C13_31  and  C14_36 
REMARK   14  A    between atoms: C14_36  and  N12_37 
ROOT
HETATM    1  N1  UNL     1     -10.462 -21.789  33.303  1.00  0.00    -0.245 N 
HETATM    2  N2  UNL     1     -10.430 -21.293  34.511  1.00  0.00    -0.237 N 
ATOM      3  H2  UNL     1     -11.207 -21.494  35.140  1.00  0.00     0.208 HD
HETATM    4  N3  UNL     1      -9.436 -20.544  34.955  1.00  0.00    -0.280 N 
ATOM      5  H3  UNL     1      -9.467 -20.185  35.909  1.00  0.00     0.188 HD
HETATM    6  C4  UNL     1      -8.385 -20.245  34.173  1.00  0.00     0.125 A 
HETATM    7  C5  UNL     1      -7.367 -19.460  34.670  1.00  0.00     0.145 A 
HETATM    8  N5  UNL     1      -6.342 -19.192  33.845  1.00  0.00    -0.175 N 
ATOM      9  H5  UNL     1      -5.573 -18.614  34.183  1.00  0.00     0.186 HD
HETATM   10  C6  UNL     1      -6.298 -19.663  32.585  1.00  0.00     0.678 A 
HETATM   11  N7  UNL     1      -7.303 -20.440  32.091  1.00  0.00    -0.185 N 
ATOM     12  H7  UNL     1      -7.261 -20.793  31.134  1.00  0.00     0.184 HD
HETATM   13  C7  UNL     1      -8.366 -20.738  32.894  1.00  0.00     0.140 A 
HETATM   14  C8  UNL     1      -9.427 -21.522  32.462  1.00  0.00     0.226 A 
ENDROOT
BRANCH  14  15
HETATM   15  N8  UNL     1      -9.471 -21.984  31.353  1.00  0.00    -0.400 NA
BRANCH  15  16
HETATM   16  C9  UNL     1      -9.264 -22.742  30.259  1.00  0.00     0.157 C 
BRANCH  16  17
HETATM   17  C10 UNL     1      -8.524 -22.122  29.099  1.00  0.00     0.061 C 
BRANCH  17  18
HETATM   18  C11 UNL     1      -7.981 -23.202  28.219  1.00  0.00     0.023 C 
BRANCH  18  19
HETATM   19  C12 UNL     1      -8.786 -23.526  27.003  1.00  0.00     0.131 C 
BRANCH  19  20
HETATM   20  N9  UNL     1      -9.812 -24.525  27.325  1.00  0.00    -0.146 NA
BRANCH  20  21
HETATM   21  N10 UNL     1     -10.543 -24.821  26.192  1.00  0.00    -0.114 NA
BRANCH  21  22
HETATM   22  C13 UNL     1     -10.897 -26.230  26.137  1.00  0.00     0.316 C 
BRANCH  22  23
HETATM   23  N11 UNL     1     -10.728 -26.854  27.435  1.00  0.00    -0.058 N 
ATOM     24 3H11 UNL     1     -10.627 -27.866  27.357  1.00  0.00     0.276 HD
ATOM     25 2H11 UNL     1      -9.817 -26.639  27.841  1.00  0.00     0.276 HD
ATOM     26 1H11 UNL     1     -11.491 -26.597  28.062  1.00  0.00     0.276 HD
ENDBRANCH  22  23
BRANCH  22  27
HETATM   27  C14 UNL     1     -12.342 -26.347  25.697  1.00  0.00     0.280 C 
BRANCH  27  28
HETATM   28  N12 UNL     1     -13.048 -27.331  26.462  1.00  0.00    -0.076 N 
ATOM     29 3H12 UNL     1     -12.437 -27.781  27.144  1.00  0.00     0.274 HD
ATOM     30 2H12 UNL     1     -13.711 -26.898  27.104  1.00  0.00     0.274 HD
ATOM     31 1H12 UNL     1     -13.504 -28.016  25.861  1.00  0.00     0.274 HD
ENDBRANCH  27  28
ENDBRANCH  22  27
ENDBRANCH  21  22
ENDBRANCH  20  21
ENDBRANCH  19  20
ENDBRANCH  18  19
ENDBRANCH  17  18
ENDBRANCH  16  17
ENDBRANCH  15  16
ENDBRANCH  14  15
BRANCH   1  32
HETATM   32  C2  UNL     1     -11.590 -22.593  32.918  1.00  0.00     0.104 C 
HETATM   33  C1  UNL     1     -11.307 -24.051  32.809  1.00  0.00     0.034 C 
HETATM   34  C3  UNL     1     -12.651 -22.411  33.992  1.00  0.00     0.034 C 
ENDBRANCH   1  32
BRANCH   7  35
HETATM   35  N4  UNL     1      -7.464 -19.039  35.879  1.00  0.00    -0.383 N 
ATOM     36  H42 UNL     1      -8.099 -19.420  36.580  1.00  0.00     0.157 HD
ATOM     37  H41 UNL     1      -6.863 -18.266  36.167  1.00  0.00     0.157 HD
ENDBRANCH   7  35
BRANCH  10  38
HETATM   38  N6  UNL     1      -5.321 -19.413  31.788  1.00  0.00    -0.234 N 
ATOM     39  H62 UNL     1      -5.353 -19.865  30.874  1.00  0.00     0.174 HD
ATOM     40  H61 UNL     1      -4.548 -18.798  32.045  1.00  0.00     0.174 HD
ENDBRANCH  10  38
TORSDOF 14
ENDMDL
