MODEL 1
REMARK VINA RESULT: -5.991227537      0.000      0.000
REMARK  10 active torsions:
REMARK  status: ('A' for Active; 'I' for Inactive)
REMARK    1  A    between atoms: N1_2  and  C4_5 
REMARK    2  A    between atoms: C4_5  and  C5_6 
REMARK    3  A    between atoms: C5_6  and  C6_7 
REMARK    4  A    between atoms: C6_7  and  N2_8 
REMARK    5  A    between atoms: N2_8  and  C7_11 
REMARK    6  A    between atoms: C7_11  and  C8_12 
REMARK    7  A    between atoms: C8_12  and  O1_13 
REMARK    8  A    between atoms: O1_13  and  C9_14 
REMARK    9  A    between atoms: C9_14  and  C10_15 
REMARK   10  A    between atoms: C10_15  and  C11_16 
ROOT
HETATM    1  C9  UNL     1       9.266  37.069  -4.265  1.00  0.00     0.226 C 
ENDROOT
BRANCH   1   2
HETATM    2  O1  UNL     1       9.054  35.735  -4.257  1.00  0.00    -0.385 OA
BRANCH   2   3
HETATM    3  C8  UNL     1       9.099  35.076  -5.434  1.00  0.00     0.195 C 
BRANCH   3   4
HETATM    4  C7  UNL     1       9.929  35.699  -6.511  1.00  0.00     0.258 C 
BRANCH   4   5
HETATM    5  N2  UNL     1       9.649  35.354  -7.852  1.00  0.00    -0.073 N 
ATOM      6  H22 UNL     1      10.474  34.966  -8.310  1.00  0.00     0.277 HD
ATOM      7  H21 UNL     1       9.520  36.188  -8.426  1.00  0.00     0.277 HD
BRANCH   5   8
HETATM    8  C6  UNL     1       8.511  34.454  -7.975  1.00  0.00     0.234 C 
BRANCH   8   9
HETATM    9  C5  UNL     1       7.833  34.805  -9.317  1.00  0.00     0.055 C 
BRANCH   9  10
HETATM   10  C4  UNL     1       6.746  33.746  -9.444  1.00  0.00     0.237 C 
BRANCH  10  11
HETATM   11  N1  UNL     1       6.014  33.783 -10.654  1.00  0.00    -0.079 N 
HETATM   12  C1  UNL     1       5.143  34.979 -10.642  1.00  0.00     0.271 C 
HETATM   13  C2  UNL     1       5.257  32.607 -10.939  1.00  0.00     0.271 C 
HETATM   14  C3  UNL     1       6.985  33.969 -11.748  1.00  0.00     0.271 C 
ENDBRANCH  10  11
ENDBRANCH   9  10
ENDBRANCH   8   9
ENDBRANCH   5   8
ENDBRANCH   4   5
ENDBRANCH   3   4
ENDBRANCH   2   3
ENDBRANCH   1   2
BRANCH   1  15
HETATM   15  C10 UNL     1       8.336  37.933  -3.497  1.00  0.00     0.202 C 
HETATM   16  N5  UNL     1       8.031  39.179  -4.175  1.00  0.00    -0.095 NA
HETATM   17  N6  UNL     1       6.943  39.676  -3.454  1.00  0.00    -0.253 N 
HETATM   18  C12 UNL     1       6.210  38.550  -2.999  1.00  0.00     0.333 C 
ATOM     19  H6  UNL     1       6.720  40.658  -3.288  1.00  0.00     0.187 HD
HETATM   20  O2  UNL     1       5.042  38.539  -2.495  1.00  0.00    -0.246 OA
HETATM   21  N7  UNL     1       7.033  37.392  -3.211  1.00  0.00    -0.309 N 
ATOM     22  H7  UNL     1       6.758  36.411  -3.169  1.00  0.00     0.167 HD
BRANCH  15  23
HETATM   23  C11 UNL     1       8.999  38.313  -2.186  1.00  0.00     0.136 C 
HETATM   24  N3  UNL     1       8.776  37.608  -1.160  1.00  0.00    -0.388 N 
ATOM     25  H32 UNL     1       8.155  36.799  -1.194  1.00  0.00     0.157 HD
ATOM     26  H31 UNL     1       9.222  37.863  -0.278  1.00  0.00     0.157 HD
HETATM   27  N4  UNL     1       9.851  39.422  -2.139  1.00  0.00    -0.084 NA
ENDBRANCH  15  23
ENDBRANCH   1  15
TORSDOF 10
ENDMDL
MODEL 2
REMARK VINA RESULT: -5.985457695      1.364      2.243
REMARK  10 active torsions:
REMARK  status: ('A' for Active; 'I' for Inactive)
REMARK    1  A    between atoms: N1_2  and  C4_5 
REMARK    2  A    between atoms: C4_5  and  C5_6 
REMARK    3  A    between atoms: C5_6  and  C6_7 
REMARK    4  A    between atoms: C6_7  and  N2_8 
REMARK    5  A    between atoms: N2_8  and  C7_11 
REMARK    6  A    between atoms: C7_11  and  C8_12 
REMARK    7  A    between atoms: C8_12  and  O1_13 
REMARK    8  A    between atoms: O1_13  and  C9_14 
REMARK    9  A    between atoms: C9_14  and  C10_15 
REMARK   10  A    between atoms: C10_15  and  C11_16 
ROOT
HETATM    1  C9  UNL     1       8.301  36.338  -3.588  1.00  0.00     0.226 C 
ENDROOT
BRANCH   1   2
HETATM    2  O1  UNL     1       9.268  35.606  -4.183  1.00  0.00    -0.385 OA
BRANCH   2   3
HETATM    3  C8  UNL     1       9.028  35.118  -5.418  1.00  0.00     0.195 C 
BRANCH   3   4
HETATM    4  C7  UNL     1       9.999  35.511  -6.486  1.00  0.00     0.258 C 
BRANCH   4   5
HETATM    5  N2  UNL     1       9.602  35.366  -7.834  1.00  0.00    -0.073 N 
ATOM      6  H22 UNL     1      10.401  35.142  -8.429  1.00  0.00     0.277 HD
ATOM      7  H21 UNL     1       9.343  36.266  -8.239  1.00  0.00     0.277 HD
BRANCH   5   8
HETATM    8  C6  UNL     1       8.534  34.389  -8.003  1.00  0.00     0.234 C 
BRANCH   8   9
HETATM    9  C5  UNL     1       7.794  34.788  -9.298  1.00  0.00     0.055 C 
BRANCH   9  10
HETATM   10  C4  UNL     1       6.779  33.667  -9.476  1.00  0.00     0.237 C 
BRANCH  10  11
HETATM   11  N1  UNL     1       5.999  33.749 -10.653  1.00  0.00    -0.079 N 
HETATM   12  C1  UNL     1       5.154  34.961 -10.577  1.00  0.00     0.271 C 
HETATM   13  C2  UNL     1       5.206  32.597 -10.935  1.00  0.00     0.271 C 
HETATM   14  C3  UNL     1       6.928  33.943 -11.782  1.00  0.00     0.271 C 
ENDBRANCH  10  11
ENDBRANCH   9  10
ENDBRANCH   8   9
ENDBRANCH   5   8
ENDBRANCH   4   5
ENDBRANCH   3   4
ENDBRANCH   2   3
ENDBRANCH   1   2
BRANCH   1  15
HETATM   15  C10 UNL     1       8.635  37.712  -3.139  1.00  0.00     0.202 C 
HETATM   16  N5  UNL     1       9.194  37.749  -1.800  1.00  0.00    -0.095 NA
HETATM   17  N6  UNL     1       9.704  39.045  -1.703  1.00  0.00    -0.253 N 
HETATM   18  C12 UNL     1      10.136  39.409  -3.006  1.00  0.00     0.333 C 
ATOM     19  H6  UNL     1       9.756  39.618  -0.861  1.00  0.00     0.187 HD
HETATM   20  O2  UNL     1      10.855  40.406  -3.332  1.00  0.00    -0.246 OA
HETATM   21  N7  UNL     1       9.609  38.431  -3.917  1.00  0.00    -0.309 N 
ATOM     22  H7  UNL     1       9.867  38.280  -4.892  1.00  0.00     0.167 HD
BRANCH  15  23
HETATM   23  C11 UNL     1       7.358  38.529  -3.090  1.00  0.00     0.136 C 
HETATM   24  N3  UNL     1       6.462  38.216  -2.253  1.00  0.00    -0.388 N 
ATOM     25  H32 UNL     1       6.578  37.424  -1.620  1.00  0.00     0.157 HD
ATOM     26  H31 UNL     1       5.603  38.765  -2.220  1.00  0.00     0.157 HD
HETATM   27  N4  UNL     1       7.198  39.614  -3.959  1.00  0.00    -0.084 NA
ENDBRANCH  15  23
ENDBRANCH   1  15
TORSDOF 10
ENDMDL
MODEL 3
REMARK VINA RESULT: -5.841618306      3.253      4.756
REMARK  10 active torsions:
REMARK  status: ('A' for Active; 'I' for Inactive)
REMARK    1  A    between atoms: N1_2  and  C4_5 
REMARK    2  A    between atoms: C4_5  and  C5_6 
REMARK    3  A    between atoms: C5_6  and  C6_7 
REMARK    4  A    between atoms: C6_7  and  N2_8 
REMARK    5  A    between atoms: N2_8  and  C7_11 
REMARK    6  A    between atoms: C7_11  and  C8_12 
REMARK    7  A    between atoms: C8_12  and  O1_13 
REMARK    8  A    between atoms: O1_13  and  C9_14 
REMARK    9  A    between atoms: C9_14  and  C10_15 
REMARK   10  A    between atoms: C10_15  and  C11_16 
ROOT
HETATM    1  C9  UNL     1       9.253  37.229  -4.402  1.00  0.00     0.226 C 
ENDROOT
BRANCH   1   2
HETATM    2  O1  UNL     1       9.554  35.988  -3.961  1.00  0.00    -0.385 OA
BRANCH   2   3
HETATM    3  C8  UNL     1       9.868  35.047  -4.876  1.00  0.00     0.195 C 
BRANCH   3   4
HETATM    4  C7  UNL     1       9.907  35.496  -6.302  1.00  0.00     0.258 C 
BRANCH   4   5
HETATM    5  N2  UNL     1      11.103  35.301  -7.029  1.00  0.00    -0.073 N 
ATOM      6  H22 UNL     1      11.519  36.194  -7.295  1.00  0.00     0.277 HD
ATOM      7  H21 UNL     1      10.909  34.928  -7.959  1.00  0.00     0.277 HD
BRANCH   5   8
HETATM    8  C6  UNL     1      12.062  34.466  -6.320  1.00  0.00     0.234 C 
BRANCH   8   9
HETATM    9  C5  UNL     1      12.085  33.115  -7.066  1.00  0.00     0.055 C 
BRANCH   9  10
HETATM   10  C4  UNL     1      12.508  32.129  -5.986  1.00  0.00     0.237 C 
BRANCH  10  11
HETATM   11  N1  UNL     1      13.493  31.195  -6.383  1.00  0.00    -0.079 N 
HETATM   12  C1  UNL     1      14.713  31.424  -5.577  1.00  0.00     0.271 C 
HETATM   13  C2  UNL     1      13.800  31.196  -7.777  1.00  0.00     0.271 C 
HETATM   14  C3  UNL     1      12.992  29.854  -6.033  1.00  0.00     0.271 C 
ENDBRANCH  10  11
ENDBRANCH   9  10
ENDBRANCH   8   9
ENDBRANCH   5   8
ENDBRANCH   4   5
ENDBRANCH   3   4
ENDBRANCH   2   3
ENDBRANCH   1   2
BRANCH   1  15
HETATM   15  C10 UNL     1       8.332  38.060  -3.587  1.00  0.00     0.202 C 
HETATM   16  N5  UNL     1       7.956  39.298  -4.245  1.00  0.00    -0.095 NA
HETATM   17  N6  UNL     1       6.888  39.758  -3.473  1.00  0.00    -0.253 N 
HETATM   18  C12 UNL     1       6.213  38.607  -2.989  1.00  0.00     0.333 C 
ATOM     19  H6  UNL     1       6.642  40.731  -3.292  1.00  0.00     0.187 HD
HETATM   20  O2  UNL     1       5.070  38.557  -2.432  1.00  0.00    -0.246 OA
HETATM   21  N7  UNL     1       7.062  37.477  -3.244  1.00  0.00    -0.309 N 
ATOM     22  H7  UNL     1       6.821  36.487  -3.194  1.00  0.00     0.167 HD
BRANCH  15  23
HETATM   23  C11 UNL     1       9.043  38.457  -2.307  1.00  0.00     0.136 C 
HETATM   24  N3  UNL     1       8.927  37.717  -1.288  1.00  0.00    -0.388 N 
ATOM     25  H32 UNL     1       8.361  36.869  -1.307  1.00  0.00     0.157 HD
ATOM     26  H31 UNL     1       9.406  37.984  -0.427  1.00  0.00     0.157 HD
HETATM   27  N4  UNL     1       9.819  39.621  -2.281  1.00  0.00    -0.084 NA
ENDBRANCH  15  23
ENDBRANCH   1  15
TORSDOF 10
ENDMDL
MODEL 4
REMARK VINA RESULT: -5.841165653      1.985      2.975
REMARK  10 active torsions:
REMARK  status: ('A' for Active; 'I' for Inactive)
REMARK    1  A    between atoms: N1_2  and  C4_5 
REMARK    2  A    between atoms: C4_5  and  C5_6 
REMARK    3  A    between atoms: C5_6  and  C6_7 
REMARK    4  A    between atoms: C6_7  and  N2_8 
REMARK    5  A    between atoms: N2_8  and  C7_11 
REMARK    6  A    between atoms: C7_11  and  C8_12 
REMARK    7  A    between atoms: C8_12  and  O1_13 
REMARK    8  A    between atoms: O1_13  and  C9_14 
REMARK    9  A    between atoms: C9_14  and  C10_15 
REMARK   10  A    between atoms: C10_15  and  C11_16 
ROOT
HETATM    1  C9  UNL     1       9.431  37.015  -4.221  1.00  0.00     0.226 C 
ENDROOT
BRANCH   1   2
HETATM    2  O1  UNL     1       8.969  35.848  -4.719  1.00  0.00    -0.385 OA
BRANCH   2   3
HETATM    3  C8  UNL     1       9.724  35.202  -5.632  1.00  0.00     0.195 C 
BRANCH   3   4
HETATM    4  C7  UNL     1       9.789  35.817  -6.994  1.00  0.00     0.258 C 
BRANCH   4   5
HETATM    5  N2  UNL     1       9.260  35.087  -8.082  1.00  0.00    -0.073 N 
ATOM      6  H22 UNL     1       9.982  34.519  -8.527  1.00  0.00     0.277 HD
ATOM      7  H21 UNL     1       9.033  35.704  -8.862  1.00  0.00     0.277 HD
BRANCH   5   8
HETATM    8  C6  UNL     1       8.112  34.273  -7.707  1.00  0.00     0.234 C 
BRANCH   8   9
HETATM    9  C5  UNL     1       8.353  32.882  -8.332  1.00  0.00     0.055 C 
BRANCH   9  10
HETATM   10  C4  UNL     1       8.089  31.931  -7.173  1.00  0.00     0.237 C 
BRANCH  10  11
HETATM   11  N1  UNL     1       9.148  31.041  -6.878  1.00  0.00    -0.079 N 
HETATM   12  C1  UNL     1      10.155  31.130  -7.959  1.00  0.00     0.271 C 
HETATM   13  C2  UNL     1       8.757  29.685  -6.663  1.00  0.00     0.271 C 
HETATM   14  C3  UNL     1       9.797  31.523  -5.645  1.00  0.00     0.271 C 
ENDBRANCH  10  11
ENDBRANCH   9  10
ENDBRANCH   8   9
ENDBRANCH   5   8
ENDBRANCH   4   5
ENDBRANCH   3   4
ENDBRANCH   2   3
ENDBRANCH   1   2
BRANCH   1  15
HETATM   15  C10 UNL     1       8.482  37.894  -3.494  1.00  0.00     0.202 C 
HETATM   16  N5  UNL     1       8.224  39.144  -4.185  1.00  0.00    -0.095 NA
HETATM   17  N6  UNL     1       7.115  39.658  -3.511  1.00  0.00    -0.253 N 
HETATM   18  C12 UNL     1       6.346  38.543  -3.087  1.00  0.00     0.333 C 
ATOM     19  H6  UNL     1       6.900  40.643  -3.355  1.00  0.00     0.187 HD
HETATM   20  O2  UNL     1       5.158  38.550  -2.633  1.00  0.00    -0.246 OA
HETATM   21  N7  UNL     1       7.160  37.373  -3.263  1.00  0.00    -0.309 N 
ATOM     22  H7  UNL     1       6.869  36.396  -3.232  1.00  0.00     0.167 HD
BRANCH  15  23
HETATM   23  C11 UNL     1       9.095  38.265  -2.156  1.00  0.00     0.136 C 
HETATM   24  N3  UNL     1       8.830  37.556  -1.143  1.00  0.00    -0.388 N 
ATOM     25  H32 UNL     1       8.209  36.749  -1.205  1.00  0.00     0.157 HD
ATOM     26  H31 UNL     1       9.242  37.806  -0.244  1.00  0.00     0.157 HD
HETATM   27  N4  UNL     1       9.947  39.372  -2.071  1.00  0.00    -0.084 NA
ENDBRANCH  15  23
ENDBRANCH   1  15
TORSDOF 10
ENDMDL
MODEL 5
REMARK VINA RESULT: -5.795928856      2.524      3.862
REMARK  10 active torsions:
REMARK  status: ('A' for Active; 'I' for Inactive)
REMARK    1  A    between atoms: N1_2  and  C4_5 
REMARK    2  A    between atoms: C4_5  and  C5_6 
REMARK    3  A    between atoms: C5_6  and  C6_7 
REMARK    4  A    between atoms: C6_7  and  N2_8 
REMARK    5  A    between atoms: N2_8  and  C7_11 
REMARK    6  A    between atoms: C7_11  and  C8_12 
REMARK    7  A    between atoms: C8_12  and  O1_13 
REMARK    8  A    between atoms: O1_13  and  C9_14 
REMARK    9  A    between atoms: C9_14  and  C10_15 
REMARK   10  A    between atoms: C10_15  and  C11_16 
ROOT
HETATM    1  C9  UNL     1       7.959  36.222  -3.588  1.00  0.00     0.226 C 
ENDROOT
BRANCH   1   2
HETATM    2  O1  UNL     1       6.666  35.833  -3.594  1.00  0.00    -0.385 OA
BRANCH   2   3
HETATM    3  C8  UNL     1       6.357  34.641  -3.040  1.00  0.00     0.195 C 
BRANCH   3   4
HETATM    4  C7  UNL     1       5.222  33.894  -3.666  1.00  0.00     0.258 C 
BRANCH   4   5
HETATM    5  N2  UNL     1       5.515  32.704  -4.369  1.00  0.00    -0.073 N 
ATOM      6  H22 UNL     1       4.974  32.645  -5.232  1.00  0.00     0.277 HD
ATOM      7  H21 UNL     1       5.137  31.890  -3.883  1.00  0.00     0.277 HD
BRANCH   5   8
HETATM    8  C6  UNL     1       6.938  32.542  -4.631  1.00  0.00     0.234 C 
BRANCH   8   9
HETATM    9  C5  UNL     1       7.087  32.508  -6.168  1.00  0.00     0.055 C 
BRANCH   9  10
HETATM   10  C4  UNL     1       7.599  33.903  -6.497  1.00  0.00     0.237 C 
BRANCH  10  11
HETATM   11  N1  UNL     1       8.563  33.956  -7.531  1.00  0.00    -0.079 N 
HETATM   12  C1  UNL     1       7.884  34.329  -8.791  1.00  0.00     0.271 C 
HETATM   13  C2  UNL     1       9.331  32.765  -7.704  1.00  0.00     0.271 C 
HETATM   14  C3  UNL     1       9.497  35.050  -7.205  1.00  0.00     0.271 C 
ENDBRANCH  10  11
ENDBRANCH   9  10
ENDBRANCH   8   9
ENDBRANCH   5   8
ENDBRANCH   4   5
ENDBRANCH   3   4
ENDBRANCH   2   3
ENDBRANCH   1   2
BRANCH   1  15
HETATM   15  C10 UNL     1       8.269  37.627  -3.224  1.00  0.00     0.202 C 
HETATM   16  N5  UNL     1       8.953  37.744  -1.950  1.00  0.00    -0.095 NA
HETATM   17  N6  UNL     1       9.407  39.064  -1.952  1.00  0.00    -0.253 N 
HETATM   18  C12 UNL     1       9.691  39.393  -3.303  1.00  0.00     0.333 C 
ATOM     19  H6  UNL     1       9.513  39.673  -1.140  1.00  0.00     0.187 HD
HETATM   20  O2  UNL     1      10.325  40.407  -3.736  1.00  0.00    -0.246 OA
HETATM   21  N7  UNL     1       9.126  38.356  -4.121  1.00  0.00    -0.309 N 
ATOM     22  H7  UNL     1       9.294  38.177  -5.111  1.00  0.00     0.167 HD
BRANCH  15  23
HETATM   23  C11 UNL     1       6.964  38.388  -3.078  1.00  0.00     0.136 C 
HETATM   24  N3  UNL     1       6.249  38.186  -2.054  1.00  0.00    -0.388 N 
ATOM     25  H32 UNL     1       6.527  37.520  -1.333  1.00  0.00     0.157 HD
ATOM     26  H31 UNL     1       5.372  38.697  -1.956  1.00  0.00     0.157 HD
HETATM   27  N4  UNL     1       6.582  39.301  -4.068  1.00  0.00    -0.084 NA
ENDBRANCH  15  23
ENDBRANCH   1  15
TORSDOF 10
ENDMDL
