MODEL 1
REMARK VINA RESULT: -6.602855369      0.000      0.000
REMARK  10 active torsions:
REMARK  status: ('A' for Active; 'I' for Inactive)
REMARK    1  A    between atoms: N1_1  and  C1_4 
REMARK    2  A    between atoms: C3_8  and  C4_9 
REMARK    3  A    between atoms: C4_9  and  N3_10 
REMARK    4  A    between atoms: N3_10  and  C5_11 
REMARK    5  A    between atoms: N3_10  and  C10_20 
REMARK    6  A    between atoms: C5_11  and  C6_12 
REMARK    7  A    between atoms: C6_12  and  C7_13 
REMARK    8  A    between atoms: C7_13  and  C8_14 
REMARK    9  A    between atoms: C8_14  and  N4_15 
REMARK   10  A    between atoms: C10_20  and  C11_21 
ROOT
HETATM    1  N3  UNL     1       7.743  36.380  -2.776  1.00  0.00    -0.381 N 
ENDROOT
BRANCH   1   2
HETATM    2  C4  UNL     1       7.754  37.768  -2.670  1.00  0.00     0.104 C 
BRANCH   2   3
HETATM    3  C3  UNL     1       9.067  38.401  -2.429  1.00  0.00     0.064 A 
HETATM    4  C2  UNL     1       9.857  38.226  -1.326  1.00  0.00     0.124 A 
HETATM    5  N2  UNL     1      11.032  38.876  -1.179  1.00  0.00    -0.201 N 
HETATM    6  C1  UNL     1      11.479  39.727  -2.105  1.00  0.00     0.678 A 
ATOM      7  H2  UNL     1      11.590  38.714  -0.340  1.00  0.00     0.183 HD
HETATM    8  N8  UNL     1      10.739  39.935  -3.206  1.00  0.00    -0.156 N 
HETATM    9  C12 UNL     1       9.580  39.305  -3.373  1.00  0.00     0.272 A 
ATOM     10  H8  UNL     1      11.070  40.583  -3.922  1.00  0.00     0.187 HD
HETATM   11  O2  UNL     1       8.868  39.488  -4.406  1.00  0.00    -0.267 OA
BRANCH   6  12
HETATM   12  N1  UNL     1      12.616  40.353  -1.955  1.00  0.00    -0.234 N 
ATOM     13  H12 UNL     1      13.148  40.243  -1.091  1.00  0.00     0.174 HD
ATOM     14  H11 UNL     1      12.987  40.956  -2.689  1.00  0.00     0.174 HD
ENDBRANCH   6  12
ENDBRANCH   2   3
ENDBRANCH   1   2
BRANCH   1  15
HETATM   15  C5  UNL     1       7.950  35.764  -4.033  1.00  0.00     0.123 C 
BRANCH  15  16
HETATM   16  C6  UNL     1       9.424  35.574  -4.370  1.00  0.00     0.021 C 
BRANCH  16  17
HETATM   17  C7  UNL     1       9.616  35.860  -5.818  1.00  0.00     0.021 C 
BRANCH  17  18
HETATM   18  C8  UNL     1       9.607  34.684  -6.729  1.00  0.00     0.122 C 
BRANCH  18  19
HETATM   19  N4  UNL     1       9.242  35.155  -8.075  1.00  0.00    -0.367 N 
HETATM   20  C9  UNL     1       8.177  34.701  -8.630  1.00  0.00     0.196 C 
HETATM   21  N5  UNL     1       7.752  35.104  -9.925  1.00  0.00    -0.067 NA
HETATM   22  N6  UNL     1       7.365  33.758  -7.956  1.00  0.00    -0.067 NA
ATOM     23  H4  UNL     1       9.827  35.835  -8.561  1.00  0.00     0.161 HD
ENDBRANCH  18  19
ENDBRANCH  17  18
ENDBRANCH  16  17
ENDBRANCH  15  16
ENDBRANCH   1  15
BRANCH   1  24
HETATM   24  C10 UNL     1       6.900  35.602  -1.958  1.00  0.00     0.221 C 
BRANCH  24  25
HETATM   25  C11 UNL     1       5.548  35.378  -2.441  1.00  0.00     0.248 C 
HETATM   26  N7  UNL     1       4.623  36.443  -2.450  1.00  0.00    -0.061 NA
HETATM   27  O1  UNL     1       5.175  34.267  -2.853  1.00  0.00    -0.275 OA
ENDBRANCH  24  25
ENDBRANCH   1  24
TORSDOF 10
ENDMDL
MODEL 2
REMARK VINA RESULT: -6.600413008      2.662      6.429
REMARK  10 active torsions:
REMARK  status: ('A' for Active; 'I' for Inactive)
REMARK    1  A    between atoms: N1_1  and  C1_4 
REMARK    2  A    between atoms: C3_8  and  C4_9 
REMARK    3  A    between atoms: C4_9  and  N3_10 
REMARK    4  A    between atoms: N3_10  and  C5_11 
REMARK    5  A    between atoms: N3_10  and  C10_20 
REMARK    6  A    between atoms: C5_11  and  C6_12 
REMARK    7  A    between atoms: C6_12  and  C7_13 
REMARK    8  A    between atoms: C7_13  and  C8_14 
REMARK    9  A    between atoms: C8_14  and  N4_15 
REMARK   10  A    between atoms: C10_20  and  C11_21 
ROOT
HETATM    1  N3  UNL     1       8.454  35.556  -4.305  1.00  0.00    -0.381 N 
ENDROOT
BRANCH   1   2
HETATM    2  C4  UNL     1       9.077  34.613  -5.116  1.00  0.00     0.104 C 
BRANCH   2   3
HETATM    3  C3  UNL     1       8.566  34.491  -6.498  1.00  0.00     0.064 A 
HETATM    4  C2  UNL     1       7.514  33.717  -6.904  1.00  0.00     0.124 A 
HETATM    5  N2  UNL     1       7.140  33.644  -8.200  1.00  0.00    -0.201 N 
HETATM    6  C1  UNL     1       7.784  34.325  -9.151  1.00  0.00     0.678 A 
ATOM      7  H2  UNL     1       6.348  33.056  -8.458  1.00  0.00     0.183 HD
HETATM    8  N8  UNL     1       8.826  35.099  -8.804  1.00  0.00    -0.156 N 
HETATM    9  C12 UNL     1       9.210  35.187  -7.534  1.00  0.00     0.272 A 
ATOM     10  H8  UNL     1       9.326  35.624  -9.521  1.00  0.00     0.187 HD
HETATM   11  O2  UNL     1      10.191  35.912  -7.187  1.00  0.00    -0.267 OA
BRANCH   6  12
HETATM   12  N1  UNL     1       7.417  34.248 -10.403  1.00  0.00    -0.234 N 
ATOM     13  H12 UNL     1       6.905  33.430 -10.735  1.00  0.00     0.174 HD
ATOM     14  H11 UNL     1       7.633  34.995 -11.062  1.00  0.00     0.174 HD
ENDBRANCH   6  12
ENDBRANCH   2   3
ENDBRANCH   1   2
BRANCH   1  15
HETATM   15  C5  UNL     1       9.107  36.775  -4.005  1.00  0.00     0.123 C 
BRANCH  15  16
HETATM   16  C6  UNL     1       8.628  37.405  -2.703  1.00  0.00     0.021 C 
BRANCH  16  17
HETATM   17  C7  UNL     1       8.441  38.864  -2.926  1.00  0.00     0.021 C 
BRANCH  17  18
HETATM   18  C8  UNL     1       7.285  39.259  -3.776  1.00  0.00     0.122 C 
BRANCH  18  19
HETATM   19  N4  UNL     1       6.052  38.964  -3.029  1.00  0.00    -0.367 N 
HETATM   20  C9  UNL     1       5.173  39.888  -2.881  1.00  0.00     0.196 C 
HETATM   21  N5  UNL     1       3.956  39.686  -2.176  1.00  0.00    -0.067 NA
HETATM   22  N6  UNL     1       5.388  41.175  -3.428  1.00  0.00    -0.067 NA
ATOM     23  H4  UNL     1       5.897  38.036  -2.635  1.00  0.00     0.161 HD
ENDBRANCH  18  19
ENDBRANCH  17  18
ENDBRANCH  16  17
ENDBRANCH  15  16
ENDBRANCH   1  15
BRANCH   1  24
HETATM   24  C10 UNL     1       7.613  35.153  -3.247  1.00  0.00     0.221 C 
BRANCH  24  25
HETATM   25  C11 UNL     1       6.184  35.163  -3.512  1.00  0.00     0.248 C 
HETATM   26  N7  UNL     1       5.358  36.103  -2.862  1.00  0.00    -0.061 NA
HETATM   27  O1  UNL     1       5.659  34.362  -4.303  1.00  0.00    -0.275 OA
ENDBRANCH  24  25
ENDBRANCH   1  24
TORSDOF 10
ENDMDL
MODEL 3
REMARK VINA RESULT: -6.551747731      2.147      2.738
REMARK  10 active torsions:
REMARK  status: ('A' for Active; 'I' for Inactive)
REMARK    1  A    between atoms: N1_1  and  C1_4 
REMARK    2  A    between atoms: C3_8  and  C4_9 
REMARK    3  A    between atoms: C4_9  and  N3_10 
REMARK    4  A    between atoms: N3_10  and  C5_11 
REMARK    5  A    between atoms: N3_10  and  C10_20 
REMARK    6  A    between atoms: C5_11  and  C6_12 
REMARK    7  A    between atoms: C6_12  and  C7_13 
REMARK    8  A    between atoms: C7_13  and  C8_14 
REMARK    9  A    between atoms: C8_14  and  N4_15 
REMARK   10  A    between atoms: C10_20  and  C11_21 
ROOT
HETATM    1  N3  UNL     1       7.661  36.472  -2.814  1.00  0.00    -0.381 N 
ENDROOT
BRANCH   1   2
HETATM    2  C4  UNL     1       7.702  37.861  -2.732  1.00  0.00     0.104 C 
BRANCH   2   3
HETATM    3  C3  UNL     1       9.028  38.469  -2.497  1.00  0.00     0.064 A 
HETATM    4  C2  UNL     1       9.806  38.302  -1.385  1.00  0.00     0.124 A 
HETATM    5  N2  UNL     1      10.995  38.929  -1.245  1.00  0.00    -0.201 N 
HETATM    6  C1  UNL     1      11.467  39.747  -2.188  1.00  0.00     0.678 A 
ATOM      7  H2  UNL     1      11.543  38.774  -0.399  1.00  0.00     0.183 HD
HETATM    8  N8  UNL     1      10.739  39.946  -3.299  1.00  0.00    -0.156 N 
HETATM    9  C12 UNL     1       9.567  39.338  -3.459  1.00  0.00     0.272 A 
ATOM     10  H8  UNL     1      11.089  40.569  -4.027  1.00  0.00     0.187 HD
HETATM   11  O2  UNL     1       8.866  39.513  -4.501  1.00  0.00    -0.267 OA
BRANCH   6  12
HETATM   12  N1  UNL     1      12.617  40.351  -2.045  1.00  0.00    -0.234 N 
ATOM     13  H12 UNL     1      13.406  39.852  -1.632  1.00  0.00     0.174 HD
ATOM     14  H11 UNL     1      12.744  41.319  -2.339  1.00  0.00     0.174 HD
ENDBRANCH   6  12
ENDBRANCH   2   3
ENDBRANCH   1   2
BRANCH   1  15
HETATM   15  C5  UNL     1       7.976  35.824  -4.032  1.00  0.00     0.123 C 
BRANCH  15  16
HETATM   16  C6  UNL     1       9.476  35.691  -4.267  1.00  0.00     0.021 C 
BRANCH  16  17
HETATM   17  C7  UNL     1       9.710  35.509  -5.725  1.00  0.00     0.021 C 
BRANCH  17  18
HETATM   18  C8  UNL     1      10.673  34.444  -6.112  1.00  0.00     0.122 C 
BRANCH  18  19
HETATM   19  N4  UNL     1      12.021  34.885  -5.719  1.00  0.00    -0.367 N 
HETATM   20  C9  UNL     1      12.770  34.090  -5.046  1.00  0.00     0.196 C 
HETATM   21  N5  UNL     1      14.083  34.438  -4.628  1.00  0.00    -0.067 NA
HETATM   22  N6  UNL     1      12.305  32.802  -4.685  1.00  0.00    -0.067 NA
ATOM     23  H4  UNL     1      12.356  35.814  -5.979  1.00  0.00     0.161 HD
ENDBRANCH  18  19
ENDBRANCH  17  18
ENDBRANCH  16  17
ENDBRANCH  15  16
ENDBRANCH   1  15
BRANCH   1  24
HETATM   24  C10 UNL     1       6.716  35.734  -2.072  1.00  0.00     0.221 C 
BRANCH  24  25
HETATM   25  C11 UNL     1       5.362  35.694  -2.597  1.00  0.00     0.248 C 
HETATM   26  N7  UNL     1       4.894  34.530  -3.241  1.00  0.00    -0.061 NA
HETATM   27  O1  UNL     1       4.592  36.664  -2.495  1.00  0.00    -0.275 OA
ENDBRANCH  24  25
ENDBRANCH   1  24
TORSDOF 10
ENDMDL
MODEL 4
REMARK VINA RESULT: -6.474225914      2.610      6.468
REMARK  10 active torsions:
REMARK  status: ('A' for Active; 'I' for Inactive)
REMARK    1  A    between atoms: N1_1  and  C1_4 
REMARK    2  A    between atoms: C3_8  and  C4_9 
REMARK    3  A    between atoms: C4_9  and  N3_10 
REMARK    4  A    between atoms: N3_10  and  C5_11 
REMARK    5  A    between atoms: N3_10  and  C10_20 
REMARK    6  A    between atoms: C5_11  and  C6_12 
REMARK    7  A    between atoms: C6_12  and  C7_13 
REMARK    8  A    between atoms: C7_13  and  C8_14 
REMARK    9  A    between atoms: C8_14  and  N4_15 
REMARK   10  A    between atoms: C10_20  and  C11_21 
ROOT
HETATM    1  N3  UNL     1       8.035  34.551  -4.572  1.00  0.00    -0.381 N 
ENDROOT
BRANCH   1   2
HETATM    2  C4  UNL     1       8.945  34.268  -5.586  1.00  0.00     0.104 C 
BRANCH   2   3
HETATM    3  C3  UNL     1       8.397  34.168  -6.955  1.00  0.00     0.064 A 
HETATM    4  C2  UNL     1       7.459  33.271  -7.384  1.00  0.00     0.124 A 
HETATM    5  N2  UNL     1       7.042  33.234  -8.669  1.00  0.00    -0.201 N 
HETATM    6  C1  UNL     1       7.530  34.073  -9.585  1.00  0.00     0.678 A 
ATOM      7  H2  UNL     1       6.338  32.549  -8.945  1.00  0.00     0.183 HD
HETATM    8  N8  UNL     1       8.456  34.973  -9.214  1.00  0.00    -0.156 N 
HETATM    9  C12 UNL     1       8.879  35.028  -7.954  1.00  0.00     0.272 A 
ATOM     10  H8  UNL     1       8.836  35.619  -9.904  1.00  0.00     0.187 HD
HETATM   11  O2  UNL     1       9.752  35.870  -7.585  1.00  0.00    -0.267 OA
BRANCH   6  12
HETATM   12  N1  UNL     1       7.123  34.030 -10.826  1.00  0.00    -0.234 N 
ATOM     13  H12 UNL     1       6.230  33.592 -11.054  1.00  0.00     0.174 HD
ATOM     14  H11 UNL     1       7.684  34.428 -11.579  1.00  0.00     0.174 HD
ENDBRANCH   6  12
ENDBRANCH   2   3
ENDBRANCH   1   2
BRANCH   1  15
HETATM   15  C5  UNL     1       8.215  35.692  -3.754  1.00  0.00     0.123 C 
BRANCH  15  16
HETATM   16  C6  UNL     1       9.314  36.620  -4.259  1.00  0.00     0.021 C 
BRANCH  16  17
HETATM   17  C7  UNL     1       8.959  38.016  -3.886  1.00  0.00     0.021 C 
BRANCH  17  18
HETATM   18  C8  UNL     1       7.936  38.174  -2.817  1.00  0.00     0.122 C 
BRANCH  18  19
HETATM   19  N4  UNL     1       7.001  39.230  -3.236  1.00  0.00    -0.367 N 
HETATM   20  C9  UNL     1       5.738  39.009  -3.175  1.00  0.00     0.196 C 
HETATM   21  N5  UNL     1       4.768  39.973  -3.559  1.00  0.00    -0.067 NA
HETATM   22  N6  UNL     1       5.251  37.763  -2.710  1.00  0.00    -0.067 NA
ATOM     23  H4  UNL     1       7.352  40.127  -3.571  1.00  0.00     0.161 HD
ENDBRANCH  18  19
ENDBRANCH  17  18
ENDBRANCH  16  17
ENDBRANCH  15  16
ENDBRANCH   1  15
BRANCH   1  24
HETATM   24  C10 UNL     1       7.399  33.510  -3.863  1.00  0.00     0.221 C 
BRANCH  24  25
HETATM   25  C11 UNL     1       5.967  33.366  -4.063  1.00  0.00     0.248 C 
HETATM   26  N7  UNL     1       5.365  32.099  -3.920  1.00  0.00    -0.061 NA
HETATM   27  O1  UNL     1       5.246  34.334  -4.357  1.00  0.00    -0.275 OA
ENDBRANCH  24  25
ENDBRANCH   1  24
TORSDOF 10
ENDMDL
MODEL 5
REMARK VINA RESULT: -6.469254076      2.051      6.665
REMARK  10 active torsions:
REMARK  status: ('A' for Active; 'I' for Inactive)
REMARK    1  A    between atoms: N1_1  and  C1_4 
REMARK    2  A    between atoms: C3_8  and  C4_9 
REMARK    3  A    between atoms: C4_9  and  N3_10 
REMARK    4  A    between atoms: N3_10  and  C5_11 
REMARK    5  A    between atoms: N3_10  and  C10_20 
REMARK    6  A    between atoms: C5_11  and  C6_12 
REMARK    7  A    between atoms: C6_12  and  C7_13 
REMARK    8  A    between atoms: C7_13  and  C8_14 
REMARK    9  A    between atoms: C8_14  and  N4_15 
REMARK   10  A    between atoms: C10_20  and  C11_21 
ROOT
HETATM    1  N3  UNL     1       9.264  36.337  -3.733  1.00  0.00    -0.381 N 
ENDROOT
BRANCH   1   2
HETATM    2  C4  UNL     1       9.764  35.241  -4.429  1.00  0.00     0.104 C 
BRANCH   2   3
HETATM    3  C3  UNL     1       9.401  35.145  -5.859  1.00  0.00     0.064 A 
HETATM    4  C2  UNL     1       9.927  35.894  -6.876  1.00  0.00     0.124 A 
HETATM    5  N2  UNL     1       9.506  35.758  -8.153  1.00  0.00    -0.201 N 
HETATM    6  C1  UNL     1       8.552  34.886  -8.483  1.00  0.00     0.678 A 
ATOM      7  H2  UNL     1       9.927  36.336  -8.880  1.00  0.00     0.183 HD
HETATM    8  N8  UNL     1       8.003  34.128  -7.520  1.00  0.00    -0.156 N 
HETATM    9  C12 UNL     1       8.402  34.243  -6.257  1.00  0.00     0.272 A 
ATOM     10  H8  UNL     1       7.272  33.457  -7.761  1.00  0.00     0.187 HD
HETATM   11  O2  UNL     1       7.896  33.536  -5.335  1.00  0.00    -0.267 OA
BRANCH   6  12
HETATM   12  N1  UNL     1       8.149  34.761  -9.721  1.00  0.00    -0.234 N 
ATOM     13  H12 UNL     1       7.174  34.537  -9.919  1.00  0.00     0.174 HD
ATOM     14  H11 UNL     1       8.796  34.885 -10.500  1.00  0.00     0.174 HD
ENDBRANCH   6  12
ENDBRANCH   2   3
ENDBRANCH   1   2
BRANCH   1  15
HETATM   15  C5  UNL     1       7.876  36.611  -3.743  1.00  0.00     0.123 C 
BRANCH  15  16
HETATM   16  C6  UNL     1       7.090  35.751  -2.761  1.00  0.00     0.021 C 
BRANCH  16  17
HETATM   17  C7  UNL     1       5.921  36.535  -2.280  1.00  0.00     0.021 C 
BRANCH  17  18
HETATM   18  C8  UNL     1       5.824  37.939  -2.762  1.00  0.00     0.122 C 
BRANCH  18  19
HETATM   19  N4  UNL     1       4.845  38.642  -1.918  1.00  0.00    -0.367 N 
HETATM   20  C9  UNL     1       4.318  39.732  -2.344  1.00  0.00     0.196 C 
HETATM   21  N5  UNL     1       3.365  40.472  -1.593  1.00  0.00    -0.067 NA
HETATM   22  N6  UNL     1       4.674  40.251  -3.612  1.00  0.00    -0.067 NA
ATOM     23  H4  UNL     1       4.589  38.268  -1.003  1.00  0.00     0.161 HD
ENDBRANCH  18  19
ENDBRANCH  17  18
ENDBRANCH  16  17
ENDBRANCH  15  16
ENDBRANCH   1  15
BRANCH   1  24
HETATM   24  C10 UNL     1      10.018  37.523  -3.620  1.00  0.00     0.221 C 
BRANCH  24  25
HETATM   25  C11 UNL     1       9.466  38.568  -2.775  1.00  0.00     0.248 C 
HETATM   26  N7  UNL     1       9.457  38.405  -1.375  1.00  0.00    -0.061 NA
HETATM   27  O1  UNL     1       8.997  39.616  -3.251  1.00  0.00    -0.275 OA
ENDBRANCH  24  25
ENDBRANCH   1  24
TORSDOF 10
ENDMDL
