MODEL 1
REMARK VINA RESULT: -6.877321908      0.000      0.000
REMARK  11 active torsions:
REMARK  status: ('A' for Active; 'I' for Inactive)
REMARK    1  A    between atoms: C2_2  and  C3_3 
REMARK    2  A    between atoms: C2_2  and  C4_8 
REMARK    3  A    between atoms: C3_3  and  N1_4 
REMARK    4  A    between atoms: C4_8  and  C5_9 
REMARK    5  A    between atoms: C5_9  and  N2_10 
REMARK    6  A    between atoms: C5_9  and  N3_14 
REMARK    7  A    between atoms: N3_14  and  C6_16 
REMARK    8  A    between atoms: C6_16  and  C7_17 
REMARK    9  A    between atoms: C6_16  and  C9_22 
REMARK   10  A    between atoms: C7_17  and  C8_18 
REMARK   11  A    between atoms: C9_22  and  N5_23 
REMARK       I    between atoms: C10_25  and  N7_27 
REMARK       I    between atoms: N7_27  and  C11_28 
REMARK       I    between atoms: C11_28  and  N9_30 
ROOT
HETATM    1  C6  UNL     1       9.183  33.908  -5.717  1.00  0.00     0.006 C 
ENDROOT
BRANCH   1   2
HETATM    2  N3  UNL     1       8.707  32.759  -6.390  1.00  0.00    -0.368 N 
ATOM      3  H3  UNL     1       8.393  31.950  -5.854  1.00  0.00     0.161 HD
BRANCH   2   4
HETATM    4  C5  UNL     1       8.666  32.729  -7.797  1.00  0.00     0.282 C 
BRANCH   4   5
HETATM    5  C4  UNL     1       7.252  32.515  -8.289  1.00  0.00     0.060 C 
BRANCH   5   6
HETATM    6  C2  UNL     1       6.742  33.704  -9.112  1.00  0.00     0.010 C 
HETATM    7  C1  UNL     1       7.882  34.689  -9.327  1.00  0.00     0.011 C 
BRANCH   6   8
HETATM    8  C3  UNL     1       6.216  33.203 -10.449  1.00  0.00     0.234 C 
BRANCH   8   9
HETATM    9  N1  UNL     1       7.251  32.723 -11.297  1.00  0.00    -0.079 N 
ATOM     10  H13 UNL     1       8.092  33.294 -11.208  1.00  0.00     0.274 HD
ATOM     11  H12 UNL     1       7.620  31.835 -10.958  1.00  0.00     0.274 HD
ATOM     12  H11 UNL     1       6.957  32.652 -12.270  1.00  0.00     0.274 HD
ENDBRANCH   8   9
ENDBRANCH   6   8
ENDBRANCH   5   6
ENDBRANCH   4   5
BRANCH   4  13
HETATM   13  N2  UNL     1       9.486  31.724  -8.441  1.00  0.00    -0.058 N 
ATOM     14  H23 UNL     1       8.964  30.891  -8.712  1.00  0.00     0.276 HD
ATOM     15  H22 UNL     1       9.793  31.993  -9.376  1.00  0.00     0.276 HD
ATOM     16  H21 UNL     1      10.260  31.525  -7.805  1.00  0.00     0.276 HD
ENDBRANCH   4  13
ENDBRANCH   2   4
ENDBRANCH   1   2
BRANCH   1  17
HETATM   17  C7  UNL     1      10.660  34.098  -5.652  1.00  0.00     0.098 C 
BRANCH  17  18
HETATM   18  C8  UNL     1      11.070  34.878  -6.826  1.00  0.00     0.058 C 
HETATM   19  N4  UNL     1      10.535  35.922  -7.277  1.00  0.00    -0.411 N 
ATOM     20  H42 UNL     1       9.724  36.251  -6.755  1.00  0.00     0.155 HD
ATOM     21  H41 UNL     1      10.819  36.464  -8.093  1.00  0.00     0.155 HD
ENDBRANCH  17  18
ENDBRANCH   1  17
BRANCH   1  22
HETATM   22  C9  UNL     1       8.534  34.319  -4.440  1.00  0.00     0.175 C 
BRANCH  22  23
HETATM   23  N5  UNL     1       9.027  35.617  -4.068  1.00  0.00    -0.348 N 
HETATM   24  C10 UNL     1       8.402  36.604  -3.556  1.00  0.00     0.266 C 
HETATM   25  N6  UNL     1       7.001  36.412  -3.305  1.00  0.00    -0.049 NA
HETATM   26  N7  UNL     1       8.992  37.746  -3.241  1.00  0.00    -0.341 NA
HETATM   27  C11 UNL     1       9.493  38.789  -3.023  1.00  0.00     0.268 C 
HETATM   28  N8  UNL     1       9.401  39.930  -3.892  1.00  0.00    -0.049 NA
HETATM   29  N9  UNL     1      10.263  39.016  -1.829  1.00  0.00    -0.341 N 
HETATM   30  C12 UNL     1      10.540  38.624  -0.400  1.00  0.00     0.146 A 
HETATM   31  C13 UNL     1      11.270  39.668  -1.037  1.00  0.00     0.146 A 
ATOM     32  H5  UNL     1      10.021  35.771  -4.238  1.00  0.00     0.163 HD
ENDBRANCH  22  23
ENDBRANCH   1  22
TORSDOF 11
ENDMDL
MODEL 2
REMARK VINA RESULT: -6.828409079      1.195      1.461
REMARK  11 active torsions:
REMARK  status: ('A' for Active; 'I' for Inactive)
REMARK    1  A    between atoms: C2_2  and  C3_3 
REMARK    2  A    between atoms: C2_2  and  C4_8 
REMARK    3  A    between atoms: C3_3  and  N1_4 
REMARK    4  A    between atoms: C4_8  and  C5_9 
REMARK    5  A    between atoms: C5_9  and  N2_10 
REMARK    6  A    between atoms: C5_9  and  N3_14 
REMARK    7  A    between atoms: N3_14  and  C6_16 
REMARK    8  A    between atoms: C6_16  and  C7_17 
REMARK    9  A    between atoms: C6_16  and  C9_22 
REMARK   10  A    between atoms: C7_17  and  C8_18 
REMARK   11  A    between atoms: C9_22  and  N5_23 
REMARK       I    between atoms: C10_25  and  N7_27 
REMARK       I    between atoms: N7_27  and  C11_28 
REMARK       I    between atoms: C11_28  and  N9_30 
ROOT
HETATM    1  C6  UNL     1       9.634  33.935  -6.179  1.00  0.00     0.006 C 
ENDROOT
BRANCH   1   2
HETATM    2  N3  UNL     1       8.837  33.460  -7.245  1.00  0.00    -0.368 N 
ATOM      3  H3  UNL     1       8.818  32.463  -7.461  1.00  0.00     0.161 HD
BRANCH   2   4
HETATM    4  C5  UNL     1       8.068  34.359  -8.010  1.00  0.00     0.282 C 
BRANCH   4   5
HETATM    5  C4  UNL     1       6.936  33.639  -8.708  1.00  0.00     0.060 C 
BRANCH   5   6
HETATM    6  C2  UNL     1       6.814  34.047 -10.181  1.00  0.00     0.010 C 
HETATM    7  C1  UNL     1       6.584  32.803 -11.026  1.00  0.00     0.011 C 
BRANCH   6   8
HETATM    8  C3  UNL     1       5.653  35.018 -10.341  1.00  0.00     0.234 C 
BRANCH   8   9
HETATM    9  N1  UNL     1       5.147  35.048 -11.669  1.00  0.00    -0.079 N 
ATOM     10  H13 UNL     1       5.741  35.614 -12.275  1.00  0.00     0.274 HD
ATOM     11  H12 UNL     1       5.262  34.143 -12.126  1.00  0.00     0.274 HD
ATOM     12  H11 UNL     1       4.177  35.359 -11.710  1.00  0.00     0.274 HD
ENDBRANCH   8   9
ENDBRANCH   6   8
ENDBRANCH   5   6
ENDBRANCH   4   5
BRANCH   4  13
HETATM   13  N2  UNL     1       8.778  35.103  -9.029  1.00  0.00    -0.058 N 
ATOM     14  H23 UNL     1       9.700  35.420  -8.728  1.00  0.00     0.276 HD
ATOM     15  H22 UNL     1       9.091  34.523  -9.808  1.00  0.00     0.276 HD
ATOM     16  H21 UNL     1       8.164  35.866  -9.316  1.00  0.00     0.276 HD
ENDBRANCH   4  13
ENDBRANCH   2   4
ENDBRANCH   1   2
BRANCH   1  17
HETATM   17  C7  UNL     1      10.991  33.337  -6.022  1.00  0.00     0.098 C 
BRANCH  17  18
HETATM   18  C8  UNL     1      11.961  34.241  -6.652  1.00  0.00     0.058 C 
HETATM   19  N4  UNL     1      11.739  35.370  -7.158  1.00  0.00    -0.411 N 
ATOM     20  H42 UNL     1      10.768  35.678  -7.119  1.00  0.00     0.155 HD
ATOM     21  H41 UNL     1      12.413  35.998  -7.597  1.00  0.00     0.155 HD
ENDBRANCH  17  18
ENDBRANCH   1  17
BRANCH   1  22
HETATM   22  C9  UNL     1       8.999  34.175  -4.852  1.00  0.00     0.175 C 
BRANCH  22  23
HETATM   23  N5  UNL     1       9.312  35.512  -4.426  1.00  0.00    -0.348 N 
HETATM   24  C10 UNL     1       8.570  36.369  -3.841  1.00  0.00     0.266 C 
HETATM   25  N6  UNL     1       7.223  35.960  -3.557  1.00  0.00    -0.049 NA
HETATM   26  N7  UNL     1       8.999  37.569  -3.484  1.00  0.00    -0.341 NA
HETATM   27  C11 UNL     1       9.351  38.662  -3.226  1.00  0.00     0.268 C 
HETATM   28  N8  UNL     1       9.059  39.819  -4.027  1.00  0.00    -0.049 NA
HETATM   29  N9  UNL     1      10.125  38.942  -2.046  1.00  0.00    -0.341 N 
HETATM   30  C12 UNL     1      10.513  38.525  -0.650  1.00  0.00     0.146 A 
HETATM   31  C13 UNL     1      11.057  39.696  -1.252  1.00  0.00     0.146 A 
ATOM     32  H5  UNL     1      10.265  35.819  -4.619  1.00  0.00     0.163 HD
ENDBRANCH  22  23
ENDBRANCH   1  22
TORSDOF 11
ENDMDL
MODEL 3
REMARK VINA RESULT: -6.759808525      1.526      2.042
REMARK  11 active torsions:
REMARK  status: ('A' for Active; 'I' for Inactive)
REMARK    1  A    between atoms: C2_2  and  C3_3 
REMARK    2  A    between atoms: C2_2  and  C4_8 
REMARK    3  A    between atoms: C3_3  and  N1_4 
REMARK    4  A    between atoms: C4_8  and  C5_9 
REMARK    5  A    between atoms: C5_9  and  N2_10 
REMARK    6  A    between atoms: C5_9  and  N3_14 
REMARK    7  A    between atoms: N3_14  and  C6_16 
REMARK    8  A    between atoms: C6_16  and  C7_17 
REMARK    9  A    between atoms: C6_16  and  C9_22 
REMARK   10  A    between atoms: C7_17  and  C8_18 
REMARK   11  A    between atoms: C9_22  and  N5_23 
REMARK       I    between atoms: C10_25  and  N7_27 
REMARK       I    between atoms: N7_27  and  C11_28 
REMARK       I    between atoms: C11_28  and  N9_30 
ROOT
HETATM    1  C6  UNL     1      10.840  34.270  -6.332  1.00  0.00     0.006 C 
ENDROOT
BRANCH   1   2
HETATM    2  N3  UNL     1      10.000  33.957  -7.424  1.00  0.00    -0.368 N 
ATOM      3  H3  UNL     1      10.219  33.161  -8.023  1.00  0.00     0.161 HD
BRANCH   2   4
HETATM    4  C5  UNL     1       8.861  34.742  -7.690  1.00  0.00     0.282 C 
BRANCH   4   5
HETATM    5  C4  UNL     1       7.596  33.930  -7.518  1.00  0.00     0.060 C 
BRANCH   5   6
HETATM    6  C2  UNL     1       7.682  32.571  -8.223  1.00  0.00     0.010 C 
HETATM    7  C1  UNL     1       7.407  31.466  -7.214  1.00  0.00     0.011 C 
BRANCH   6   8
HETATM    8  C3  UNL     1       6.663  32.524  -9.352  1.00  0.00     0.234 C 
BRANCH   8   9
HETATM    9  N1  UNL     1       7.260  32.686 -10.632  1.00  0.00    -0.079 N 
ATOM     10  H13 UNL     1       7.545  33.654 -10.784  1.00  0.00     0.274 HD
ATOM     11  H12 UNL     1       8.176  32.238 -10.669  1.00  0.00     0.274 HD
ATOM     12  H11 UNL     1       6.660  32.357 -11.387  1.00  0.00     0.274 HD
ENDBRANCH   8   9
ENDBRANCH   6   8
ENDBRANCH   5   6
ENDBRANCH   4   5
BRANCH   4  13
HETATM   13  N2  UNL     1       8.791  35.346  -9.004  1.00  0.00    -0.058 N 
ATOM     14  H23 UNL     1       8.029  34.980  -9.576  1.00  0.00     0.276 HD
ATOM     15  H22 UNL     1       8.480  36.318  -8.985  1.00  0.00     0.276 HD
ATOM     16  H21 UNL     1       9.709  35.225  -9.432  1.00  0.00     0.276 HD
ENDBRANCH   4  13
ENDBRANCH   2   4
ENDBRANCH   1   2
BRANCH   1  17
HETATM   17  C7  UNL     1      12.209  33.680  -6.332  1.00  0.00     0.098 C 
BRANCH  17  18
HETATM   18  C8  UNL     1      12.212  32.542  -7.259  1.00  0.00     0.058 C 
HETATM   19  N4  UNL     1      13.151  31.737  -7.479  1.00  0.00    -0.411 N 
ATOM     20  H42 UNL     1      14.001  31.908  -6.943  1.00  0.00     0.155 HD
ATOM     21  H41 UNL     1      13.154  30.946  -8.124  1.00  0.00     0.155 HD
ENDBRANCH  17  18
ENDBRANCH   1  17
BRANCH   1  22
HETATM   22  C9  UNL     1      10.264  34.285  -4.957  1.00  0.00     0.175 C 
BRANCH  22  23
HETATM   23  N5  UNL     1      10.304  35.630  -4.453  1.00  0.00    -0.348 N 
HETATM   24  C10 UNL     1       9.381  36.315  -3.901  1.00  0.00     0.266 C 
HETATM   25  N6  UNL     1       8.108  35.668  -3.750  1.00  0.00    -0.049 NA
HETATM   26  N7  UNL     1       9.565  37.550  -3.461  1.00  0.00    -0.341 NA
HETATM   27  C11 UNL     1       9.699  38.672  -3.130  1.00  0.00     0.268 C 
HETATM   28  N8  UNL     1       9.273  39.804  -3.908  1.00  0.00    -0.049 NA
HETATM   29  N9  UNL     1      10.320  39.016  -1.878  1.00  0.00    -0.341 N 
HETATM   30  C12 UNL     1      10.664  38.597  -0.472  1.00  0.00     0.146 A 
HETATM   31  C13 UNL     1      11.041  39.874  -0.979  1.00  0.00     0.146 A 
ATOM     32  H5  UNL     1      11.201  36.106  -4.552  1.00  0.00     0.163 HD
ENDBRANCH  22  23
ENDBRANCH   1  22
TORSDOF 11
ENDMDL
MODEL 4
REMARK VINA RESULT: -6.725281724      1.428      1.856
REMARK  11 active torsions:
REMARK  status: ('A' for Active; 'I' for Inactive)
REMARK    1  A    between atoms: C2_2  and  C3_3 
REMARK    2  A    between atoms: C2_2  and  C4_8 
REMARK    3  A    between atoms: C3_3  and  N1_4 
REMARK    4  A    between atoms: C4_8  and  C5_9 
REMARK    5  A    between atoms: C5_9  and  N2_10 
REMARK    6  A    between atoms: C5_9  and  N3_14 
REMARK    7  A    between atoms: N3_14  and  C6_16 
REMARK    8  A    between atoms: C6_16  and  C7_17 
REMARK    9  A    between atoms: C6_16  and  C9_22 
REMARK   10  A    between atoms: C7_17  and  C8_18 
REMARK   11  A    between atoms: C9_22  and  N5_23 
REMARK       I    between atoms: C10_25  and  N7_27 
REMARK       I    between atoms: N7_27  and  C11_28 
REMARK       I    between atoms: C11_28  and  N9_30 
ROOT
HETATM    1  C6  UNL     1      10.442  34.420  -6.659  1.00  0.00     0.006 C 
ENDROOT
BRANCH   1   2
HETATM    2  N3  UNL     1       9.516  34.938  -7.591  1.00  0.00    -0.368 N 
ATOM      3  H3  UNL     1       9.621  35.893  -7.936  1.00  0.00     0.161 HD
BRANCH   2   4
HETATM    4  C5  UNL     1       8.447  34.142  -8.046  1.00  0.00     0.282 C 
BRANCH   4   5
HETATM    5  C4  UNL     1       7.864  34.704  -9.324  1.00  0.00     0.060 C 
BRANCH   5   6
HETATM    6  C2  UNL     1       6.448  34.181  -9.590  1.00  0.00     0.010 C 
HETATM    7  C1  UNL     1       5.729  35.141 -10.527  1.00  0.00     0.011 C 
BRANCH   6   8
HETATM    8  C3  UNL     1       6.530  32.795 -10.214  1.00  0.00     0.234 C 
BRANCH   8   9
HETATM    9  N1  UNL     1       7.309  32.778 -11.403  1.00  0.00    -0.079 N 
ATOM     10  H13 UNL     1       7.615  33.719 -11.655  1.00  0.00     0.274 HD
ATOM     11  H12 UNL     1       8.220  32.349 -11.238  1.00  0.00     0.274 HD
ATOM     12  H11 UNL     1       6.826  32.328 -12.179  1.00  0.00     0.274 HD
ENDBRANCH   8   9
ENDBRANCH   6   8
ENDBRANCH   5   6
ENDBRANCH   4   5
BRANCH   4  13
HETATM   13  N2  UNL     1       7.342  33.965  -7.128  1.00  0.00    -0.058 N 
ATOM     14  H23 UNL     1       6.613  33.350  -7.489  1.00  0.00     0.276 HD
ATOM     15  H22 UNL     1       7.585  33.409  -6.308  1.00  0.00     0.276 HD
ATOM     16  H21 UNL     1       7.002  34.899  -6.895  1.00  0.00     0.276 HD
ENDBRANCH   4  13
ENDBRANCH   2   4
ENDBRANCH   1   2
BRANCH   1  17
HETATM   17  C7  UNL     1      11.212  33.208  -7.062  1.00  0.00     0.098 C 
BRANCH  17  18
HETATM   18  C8  UNL     1      12.339  33.057  -6.134  1.00  0.00     0.058 C 
HETATM   19  N4  UNL     1      13.154  32.103  -6.067  1.00  0.00    -0.411 N 
ATOM     20  H42 UNL     1      13.000  31.356  -6.743  1.00  0.00     0.155 HD
ATOM     21  H41 UNL     1      13.937  31.997  -5.422  1.00  0.00     0.155 HD
ENDBRANCH  17  18
ENDBRANCH   1  17
BRANCH   1  22
HETATM   22  C9  UNL     1      10.061  34.356  -5.219  1.00  0.00     0.175 C 
BRANCH  22  23
HETATM   23  N5  UNL     1      10.134  35.679  -4.663  1.00  0.00    -0.348 N 
HETATM   24  C10 UNL     1       9.228  36.363  -4.080  1.00  0.00     0.266 C 
HETATM   25  N6  UNL     1       7.941  35.738  -3.950  1.00  0.00    -0.049 NA
HETATM   26  N7  UNL     1       9.441  37.575  -3.593  1.00  0.00    -0.341 NA
HETATM   27  C11 UNL     1       9.602  38.680  -3.220  1.00  0.00     0.268 C 
HETATM   28  N8  UNL     1       9.199  39.850  -3.950  1.00  0.00    -0.049 NA
HETATM   29  N9  UNL     1      10.233  38.960  -1.957  1.00  0.00    -0.341 N 
HETATM   30  C12 UNL     1      10.573  38.479  -0.570  1.00  0.00     0.146 A 
HETATM   31  C13 UNL     1      10.976  39.765  -1.028  1.00  0.00     0.146 A 
ATOM     32  H5  UNL     1      11.041  36.138  -4.746  1.00  0.00     0.163 HD
ENDBRANCH  22  23
ENDBRANCH   1  22
TORSDOF 11
ENDMDL
MODEL 5
REMARK VINA RESULT: -6.695673824      1.767      3.263
REMARK  11 active torsions:
REMARK  status: ('A' for Active; 'I' for Inactive)
REMARK    1  A    between atoms: C2_2  and  C3_3 
REMARK    2  A    between atoms: C2_2  and  C4_8 
REMARK    3  A    between atoms: C3_3  and  N1_4 
REMARK    4  A    between atoms: C4_8  and  C5_9 
REMARK    5  A    between atoms: C5_9  and  N2_10 
REMARK    6  A    between atoms: C5_9  and  N3_14 
REMARK    7  A    between atoms: N3_14  and  C6_16 
REMARK    8  A    between atoms: C6_16  and  C7_17 
REMARK    9  A    between atoms: C6_16  and  C9_22 
REMARK   10  A    between atoms: C7_17  and  C8_18 
REMARK   11  A    between atoms: C9_22  and  N5_23 
REMARK       I    between atoms: C10_25  and  N7_27 
REMARK       I    between atoms: N7_27  and  C11_28 
REMARK       I    between atoms: C11_28  and  N9_30 
ROOT
HETATM    1  C6  UNL     1       9.555  34.377  -5.894  1.00  0.00     0.006 C 
ENDROOT
BRANCH   1   2
HETATM    2  N3  UNL     1      10.743  35.023  -6.304  1.00  0.00    -0.368 N 
ATOM      3  H3  UNL     1      10.706  35.978  -6.660  1.00  0.00     0.161 HD
BRANCH   2   4
HETATM    4  C5  UNL     1      11.979  34.352  -6.222  1.00  0.00     0.282 C 
BRANCH   4   5
HETATM    5  C4  UNL     1      11.772  32.859  -6.096  1.00  0.00     0.060 C 
BRANCH   5   6
HETATM    6  C2  UNL     1      11.932  32.139  -7.440  1.00  0.00     0.010 C 
HETATM    7  C1  UNL     1      13.323  31.526  -7.516  1.00  0.00     0.011 C 
BRANCH   6   8
HETATM    8  C3  UNL     1      10.869  31.056  -7.563  1.00  0.00     0.234 C 
BRANCH   8   9
HETATM    9  N1  UNL     1       9.825  31.417  -8.457  1.00  0.00    -0.079 N 
ATOM     10  H13 UNL     1       9.045  30.764  -8.394  1.00  0.00     0.274 HD
ATOM     11  H12 UNL     1       9.354  32.267  -8.147  1.00  0.00     0.274 HD
ATOM     12  H11 UNL     1      10.150  31.508  -9.420  1.00  0.00     0.274 HD
ENDBRANCH   8   9
ENDBRANCH   6   8
ENDBRANCH   5   6
ENDBRANCH   4   5
BRANCH   4  13
HETATM   13  N2  UNL     1      12.852  34.743  -5.135  1.00  0.00    -0.058 N 
ATOM     14  H23 UNL     1      12.361  34.868  -4.250  1.00  0.00     0.276 HD
ATOM     15  H22 UNL     1      13.476  33.997  -4.831  1.00  0.00     0.276 HD
ATOM     16  H21 UNL     1      13.345  35.582  -5.444  1.00  0.00     0.276 HD
ENDBRANCH   4  13
ENDBRANCH   2   4
ENDBRANCH   1   2
BRANCH   1  17
HETATM   17  C7  UNL     1       8.481  34.211  -6.914  1.00  0.00     0.098 C 
BRANCH  17  18
HETATM   18  C8  UNL     1       8.832  35.031  -8.080  1.00  0.00     0.058 C 
HETATM   19  N4  UNL     1       8.420  34.901  -9.260  1.00  0.00    -0.411 N 
ATOM     20  H42 UNL     1       7.766  34.133  -9.407  1.00  0.00     0.155 HD
ATOM     21  H41 UNL     1       8.664  35.471 -10.071  1.00  0.00     0.155 HD
ENDBRANCH  17  18
ENDBRANCH   1  17
BRANCH   1  22
HETATM   22  C9  UNL     1       8.978  34.703  -4.559  1.00  0.00     0.175 C 
BRANCH  22  23
HETATM   23  N5  UNL     1       9.488  35.978  -4.134  1.00  0.00    -0.348 N 
HETATM   24  C10 UNL     1       8.868  36.965  -3.617  1.00  0.00     0.266 C 
HETATM   25  N6  UNL     1       7.455  36.801  -3.422  1.00  0.00    -0.049 NA
HETATM   26  N7  UNL     1       9.473  38.084  -3.250  1.00  0.00    -0.341 NA
HETATM   27  C11 UNL     1       9.990  39.108  -2.986  1.00  0.00     0.268 C 
HETATM   28  N8  UNL     1       9.956  40.274  -3.825  1.00  0.00    -0.049 NA
HETATM   29  N9  UNL     1      10.721  39.284  -1.759  1.00  0.00    -0.341 N 
HETATM   30  C12 UNL     1      10.937  38.848  -0.333  1.00  0.00     0.146 A 
HETATM   31  C13 UNL     1      11.714  39.890  -0.915  1.00  0.00     0.146 A 
ATOM     32  H5  UNL     1      10.491  36.112  -4.264  1.00  0.00     0.163 HD
ENDBRANCH  22  23
ENDBRANCH   1  22
TORSDOF 11
ENDMDL
