MODEL 1
REMARK VINA RESULT: -5.188059282      0.000      0.000
REMARK  4 active torsions:
REMARK  status: ('A' for Active; 'I' for Inactive)
REMARK       I    between atoms: C1_4  and  N3_6 
REMARK    1  A    between atoms: N3_6  and  C2_8 
REMARK    2  A    between atoms: C2_8  and  C3_9 
REMARK    3  A    between atoms: C3_9  and  O1_10 
REMARK    4  A    between atoms: O1_10  and  C4_11 
ROOT
HETATM    1  C3  UNL     1      -0.801  60.250  43.064  1.00  0.00     0.197 C 
ENDROOT
BRANCH   1   2
HETATM    2  C2  UNL     1       0.289  59.311  43.529  1.00  0.00     0.149 C 
BRANCH   2   3
HETATM    3  N3  UNL     1       0.858  59.717  44.785  1.00  0.00    -0.363 N 
HETATM    4  C1  UNL     1       0.450  59.096  45.979  1.00  0.00     0.181 C 
HETATM    5  N1  UNL     1       1.188  59.032  47.042  1.00  0.00    -0.374 N 
HETATM    6  N2  UNL     1      -0.839  58.492  46.073  1.00  0.00    -0.064 NA
ATOM      7  H12 UNL     1       0.892  58.581  47.908  1.00  0.00     0.158 HD
ATOM      8  H11 UNL     1       2.110  59.464  46.974  1.00  0.00     0.158 HD
ATOM      9  H3  UNL     1       1.561  60.456  44.810  1.00  0.00     0.162 HD
ENDBRANCH   2   3
ENDBRANCH   1   2
BRANCH   1  10
HETATM   10  O1  UNL     1      -1.858  59.571  42.432  1.00  0.00    -0.333 OA
BRANCH  10  11
HETATM   11  C4  UNL     1      -2.760  58.900  43.247  1.00  0.00     0.158 A 
HETATM   12  C5  UNL     1      -3.171  57.588  43.085  1.00  0.00     0.145 A 
HETATM   13  N4  UNL     1      -4.058  57.289  44.079  1.00  0.00    -0.358 N 
HETATM   14  C6  UNL     1      -4.195  58.385  44.838  1.00  0.00     0.182 A 
ATOM     15  H4  UNL     1      -4.530  56.396  44.217  1.00  0.00     0.166 HD
HETATM   16  N5  UNL     1      -3.420  59.343  44.341  1.00  0.00    -0.332 N 
ATOM     17  H5  UNL     1      -3.335  60.283  44.730  1.00  0.00     0.168 HD
ENDBRANCH  10  11
ENDBRANCH   1  10
TORSDOF 4
ENDMDL
MODEL 2
REMARK VINA RESULT: -5.185603141      2.179      2.725
REMARK  4 active torsions:
REMARK  status: ('A' for Active; 'I' for Inactive)
REMARK       I    between atoms: C1_4  and  N3_6 
REMARK    1  A    between atoms: N3_6  and  C2_8 
REMARK    2  A    between atoms: C2_8  and  C3_9 
REMARK    3  A    between atoms: C3_9  and  O1_10 
REMARK    4  A    between atoms: O1_10  and  C4_11 
ROOT
HETATM    1  C3  UNL     1      -2.775  57.665  43.581  1.00  0.00     0.197 C 
ENDROOT
BRANCH   1   2
HETATM    2  C2  UNL     1      -2.357  58.672  44.627  1.00  0.00     0.149 C 
BRANCH   2   3
HETATM    3  N3  UNL     1      -1.085  58.352  45.216  1.00  0.00    -0.363 N 
HETATM    4  C1  UNL     1      -0.249  59.376  45.693  1.00  0.00     0.181 C 
HETATM    5  N1  UNL     1       0.637  59.204  46.623  1.00  0.00    -0.374 N 
HETATM    6  N2  UNL     1      -0.344  60.694  45.155  1.00  0.00    -0.064 NA
ATOM      7  H12 UNL     1       1.244  59.947  46.969  1.00  0.00     0.158 HD
ATOM      8  H11 UNL     1       0.705  58.261  47.007  1.00  0.00     0.158 HD
ATOM      9  H3  UNL     1      -0.789  57.378  45.287  1.00  0.00     0.162 HD
ENDBRANCH   2   3
ENDBRANCH   1   2
BRANCH   1  10
HETATM   10  O1  UNL     1      -3.281  58.277  42.420  1.00  0.00    -0.333 OA
BRANCH  10  11
HETATM   11  C4  UNL     1      -4.597  57.999  42.076  1.00  0.00     0.158 A 
HETATM   12  C5  UNL     1      -5.023  57.496  40.859  1.00  0.00     0.145 A 
HETATM   13  N4  UNL     1      -6.380  57.358  40.902  1.00  0.00    -0.358 N 
HETATM   14  C6  UNL     1      -6.788  57.762  42.113  1.00  0.00     0.182 A 
ATOM     15  H4  UNL     1      -6.975  57.010  40.150  1.00  0.00     0.166 HD
HETATM   16  N5  UNL     1      -5.723  58.144  42.811  1.00  0.00    -0.332 N 
ATOM     17  H5  UNL     1      -5.751  58.496  43.769  1.00  0.00     0.168 HD
ENDBRANCH  10  11
ENDBRANCH   1  10
TORSDOF 4
ENDMDL
MODEL 3
REMARK VINA RESULT: -5.179055357      1.342      1.635
REMARK  4 active torsions:
REMARK  status: ('A' for Active; 'I' for Inactive)
REMARK       I    between atoms: C1_4  and  N3_6 
REMARK    1  A    between atoms: N3_6  and  C2_8 
REMARK    2  A    between atoms: C2_8  and  C3_9 
REMARK    3  A    between atoms: C3_9  and  O1_10 
REMARK    4  A    between atoms: O1_10  and  C4_11 
ROOT
HETATM    1  C3  UNL     1      -1.056  59.684  44.244  1.00  0.00     0.197 C 
ENDROOT
BRANCH   1   2
HETATM    2  C2  UNL     1      -0.222  59.504  45.492  1.00  0.00     0.149 C 
BRANCH   2   3
HETATM    3  N3  UNL     1       1.152  59.207  45.191  1.00  0.00    -0.363 N 
HETATM    4  C1  UNL     1       1.906  58.396  46.058  1.00  0.00     0.181 C 
HETATM    5  N1  UNL     1       2.932  57.701  45.678  1.00  0.00    -0.374 N 
HETATM    6  N2  UNL     1       1.562  58.301  47.438  1.00  0.00    -0.064 NA
ATOM      7  H12 UNL     1       3.479  57.111  46.306  1.00  0.00     0.158 HD
ATOM      8  H11 UNL     1       3.178  57.769  44.690  1.00  0.00     0.158 HD
ATOM      9  H3  UNL     1       1.582  59.587  44.347  1.00  0.00     0.162 HD
ENDBRANCH   2   3
ENDBRANCH   1   2
BRANCH   1  10
HETATM   10  O1  UNL     1      -1.501  58.459  43.716  1.00  0.00    -0.333 OA
BRANCH  10  11
HETATM   11  C4  UNL     1      -2.851  58.165  43.844  1.00  0.00     0.158 A 
HETATM   12  C5  UNL     1      -3.715  57.872  42.803  1.00  0.00     0.145 A 
HETATM   13  N4  UNL     1      -4.955  57.640  43.324  1.00  0.00    -0.358 N 
HETATM   14  C6  UNL     1      -4.866  57.784  44.654  1.00  0.00     0.182 A 
ATOM     15  H4  UNL     1      -5.795  57.401  42.798  1.00  0.00     0.166 HD
HETATM   16  N5  UNL     1      -3.611  58.097  44.961  1.00  0.00    -0.332 N 
ATOM     17  H5  UNL     1      -3.268  58.261  45.908  1.00  0.00     0.168 HD
ENDBRANCH  10  11
ENDBRANCH   1  10
TORSDOF 4
ENDMDL
MODEL 4
REMARK VINA RESULT: -5.176448913      2.144      5.285
REMARK  4 active torsions:
REMARK  status: ('A' for Active; 'I' for Inactive)
REMARK       I    between atoms: C1_4  and  N3_6 
REMARK    1  A    between atoms: N3_6  and  C2_8 
REMARK    2  A    between atoms: C2_8  and  C3_9 
REMARK    3  A    between atoms: C3_9  and  O1_10 
REMARK    4  A    between atoms: O1_10  and  C4_11 
ROOT
HETATM    1  C3  UNL     1      -0.860  59.814  45.503  1.00  0.00     0.197 C 
ENDROOT
BRANCH   1   2
HETATM    2  C2  UNL     1      -1.666  58.729  44.828  1.00  0.00     0.149 C 
BRANCH   2   3
HETATM    3  N3  UNL     1      -2.907  58.469  45.506  1.00  0.00    -0.363 N 
HETATM    4  C1  UNL     1      -4.094  58.304  44.770  1.00  0.00     0.181 C 
HETATM    5  N1  UNL     1      -5.113  57.627  45.196  1.00  0.00    -0.374 N 
HETATM    6  N2  UNL     1      -4.230  58.896  43.479  1.00  0.00    -0.064 NA
ATOM      7  H12 UNL     1      -5.974  57.507  44.661  1.00  0.00     0.158 HD
ATOM      8  H11 UNL     1      -5.015  57.204  46.119  1.00  0.00     0.158 HD
ATOM      9  H3  UNL     1      -2.927  58.404  46.524  1.00  0.00     0.162 HD
ENDBRANCH   2   3
ENDBRANCH   1   2
BRANCH   1  10
HETATM   10  O1  UNL     1      -0.066  59.317  46.552  1.00  0.00    -0.333 OA
BRANCH  10  11
HETATM   11  C4  UNL     1       1.156  58.753  46.211  1.00  0.00     0.158 A 
HETATM   12  C5  UNL     1       1.817  57.769  46.925  1.00  0.00     0.145 A 
HETATM   13  N4  UNL     1       2.982  57.475  46.278  1.00  0.00    -0.358 N 
HETATM   14  C6  UNL     1       3.045  58.255  45.189  1.00  0.00     0.182 A 
ATOM     15  H4  UNL     1       3.678  56.788  46.569  1.00  0.00     0.166 HD
HETATM   16  N5  UNL     1       1.955  59.015  45.151  1.00  0.00    -0.332 N 
ATOM     17  H5  UNL     1       1.749  59.701  44.424  1.00  0.00     0.168 HD
ENDBRANCH  10  11
ENDBRANCH   1  10
TORSDOF 4
ENDMDL
MODEL 5
REMARK VINA RESULT: -5.170719651      2.417      3.077
REMARK  4 active torsions:
REMARK  status: ('A' for Active; 'I' for Inactive)
REMARK       I    between atoms: C1_4  and  N3_6 
REMARK    1  A    between atoms: N3_6  and  C2_8 
REMARK    2  A    between atoms: C2_8  and  C3_9 
REMARK    3  A    between atoms: C3_9  and  O1_10 
REMARK    4  A    between atoms: O1_10  and  C4_11 
ROOT
HETATM    1  C3  UNL     1      -3.320  58.826  43.904  1.00  0.00     0.197 C 
ENDROOT
BRANCH   1   2
HETATM    2  C2  UNL     1      -2.716  58.904  45.287  1.00  0.00     0.149 C 
BRANCH   2   3
HETATM    3  N3  UNL     1      -1.364  58.416  45.320  1.00  0.00    -0.363 N 
HETATM    4  C1  UNL     1      -0.298  59.305  45.546  1.00  0.00     0.181 C 
HETATM    5  N1  UNL     1       0.840  58.946  46.052  1.00  0.00    -0.374 N 
HETATM    6  N2  UNL     1      -0.428  60.686  45.215  1.00  0.00    -0.064 NA
ATOM      7  H12 UNL     1       1.613  59.591  46.216  1.00  0.00     0.158 HD
ATOM      8  H11 UNL     1       0.933  57.958  46.289  1.00  0.00     0.158 HD
ATOM      9  H3  UNL     1      -1.177  57.423  45.179  1.00  0.00     0.162 HD
ENDBRANCH   2   3
ENDBRANCH   1   2
BRANCH   1  10
HETATM   10  O1  UNL     1      -4.632  58.319  43.920  1.00  0.00    -0.333 OA
BRANCH  10  11
HETATM   11  C4  UNL     1      -5.179  57.934  42.704  1.00  0.00     0.158 A 
HETATM   12  C5  UNL     1      -6.503  57.593  42.487  1.00  0.00     0.145 A 
HETATM   13  N4  UNL     1      -6.655  57.273  41.169  1.00  0.00    -0.358 N 
HETATM   14  C6  UNL     1      -5.459  57.411  40.581  1.00  0.00     0.182 A 
ATOM     15  H4  UNL     1      -7.521  56.982  40.715  1.00  0.00     0.166 HD
HETATM   16  N5  UNL     1      -4.581  57.806  41.497  1.00  0.00    -0.332 N 
ATOM     17  H5  UNL     1      -3.593  57.987  41.316  1.00  0.00     0.168 HD
ENDBRANCH  10  11
ENDBRANCH   1  10
TORSDOF 4
ENDMDL
