MODEL 1
REMARK VINA RESULT: -5.448441920      0.000      0.000
REMARK  3 active torsions:
REMARK  status: ('A' for Active; 'I' for Inactive)
REMARK    1  A    between atoms: N1_1  and  N2_4 
REMARK       I    between atoms: N2_4  and  C1_6 
REMARK    2  A    between atoms: C1_6  and  C2_8 
REMARK    3  A    between atoms: C2_8  and  N3_9 
REMARK       I    between atoms: N3_9  and  C3_11 
ROOT
HETATM    1  C2  UNL     1       2.998  60.166  43.149  1.00  0.00     0.116 C 
HETATM    2  C4  UNL     1       2.701  61.589  43.476  1.00  0.00     0.041 C 
HETATM    3  C5  UNL     1       4.165  61.855  43.558  1.00  0.00     0.006 C 
HETATM    4  C6  UNL     1       4.432  60.485  43.038  1.00  0.00     0.041 C 
ENDROOT
BRANCH   1   5
HETATM    5  C1  UNL     1       2.619  59.267  44.285  1.00  0.00     0.264 C 
HETATM    6  N2  UNL     1       1.410  59.493  44.968  1.00  0.00    -0.275 N 
ATOM      7  H2  UNL     1       0.796  60.260  44.695  1.00  0.00     0.189 HD
HETATM    8  O1  UNL     1       3.367  58.341  44.613  1.00  0.00    -0.269 OA
BRANCH   6   9
HETATM    9  N1  UNL     1       1.072  58.661  46.008  1.00  0.00    -0.343 N 
ATOM     10  H12 UNL     1       0.249  58.063  45.929  1.00  0.00     0.176 HD
ATOM     11  H11 UNL     1       1.654  58.659  46.846  1.00  0.00     0.176 HD
ENDBRANCH   6   9
ENDBRANCH   1   5
BRANCH   1  12
HETATM   12  N3  UNL     1       2.354  59.748  41.912  1.00  0.00    -0.327 N 
HETATM   13  C3  UNL     1       2.871  58.708  41.131  1.00  0.00     0.329 C 
HETATM   14  N4  UNL     1       2.168  58.363  39.923  1.00  0.00    -0.040 NA
HETATM   15  O2  UNL     1       3.883  58.052  41.384  1.00  0.00    -0.251 OA
ATOM     16  H3  UNL     1       1.505  60.225  41.607  1.00  0.00     0.165 HD
ENDBRANCH   1  12
TORSDOF 3
ENDMDL
MODEL 2
REMARK VINA RESULT: -5.422391013      1.129      1.131
REMARK  3 active torsions:
REMARK  status: ('A' for Active; 'I' for Inactive)
REMARK    1  A    between atoms: N1_1  and  N2_4 
REMARK       I    between atoms: N2_4  and  C1_6 
REMARK    2  A    between atoms: C1_6  and  C2_8 
REMARK    3  A    between atoms: C2_8  and  N3_9 
REMARK       I    between atoms: N3_9  and  C3_11 
ROOT
HETATM    1  C2  UNL     1       3.228  60.470  43.020  1.00  0.00     0.116 C 
HETATM    2  C4  UNL     1       2.439  61.732  43.097  1.00  0.00     0.041 C 
HETATM    3  C5  UNL     1       3.665  62.447  43.554  1.00  0.00     0.006 C 
HETATM    4  C6  UNL     1       4.468  61.224  43.278  1.00  0.00     0.041 C 
ENDROOT
BRANCH   1   5
HETATM    5  C1  UNL     1       2.814  59.515  44.096  1.00  0.00     0.264 C 
HETATM    6  N2  UNL     1       1.625  59.753  44.808  1.00  0.00    -0.275 N 
ATOM      7  H2  UNL     1       1.048  60.568  44.597  1.00  0.00     0.189 HD
HETATM    8  O1  UNL     1       3.516  58.530  44.349  1.00  0.00    -0.269 OA
BRANCH   6   9
HETATM    9  N1  UNL     1       1.253  58.869  45.792  1.00  0.00    -0.343 N 
ATOM     10  H12 UNL     1       1.500  57.883  45.704  1.00  0.00     0.176 HD
ATOM     11  H11 UNL     1       0.735  59.219  46.598  1.00  0.00     0.176 HD
ENDBRANCH   6   9
ENDBRANCH   1   5
BRANCH   1  12
HETATM   12  N3  UNL     1       3.135  59.853  41.705  1.00  0.00    -0.327 N 
HETATM   13  C3  UNL     1       1.928  59.336  41.221  1.00  0.00     0.329 C 
HETATM   14  N4  UNL     1       1.929  58.745  39.909  1.00  0.00    -0.040 NA
HETATM   15  O2  UNL     1       0.850  59.341  41.819  1.00  0.00    -0.251 OA
ATOM     16  H3  UNL     1       3.970  59.796  41.122  1.00  0.00     0.165 HD
ENDBRANCH   1  12
TORSDOF 3
ENDMDL
MODEL 3
REMARK VINA RESULT: -5.394041884      3.274      4.594
REMARK  3 active torsions:
REMARK  status: ('A' for Active; 'I' for Inactive)
REMARK    1  A    between atoms: N1_1  and  N2_4 
REMARK       I    between atoms: N2_4  and  C1_6 
REMARK    2  A    between atoms: C1_6  and  C2_8 
REMARK    3  A    between atoms: C2_8  and  N3_9 
REMARK       I    between atoms: N3_9  and  C3_11 
ROOT
HETATM    1  C2  UNL     1       0.452  59.618  43.785  1.00  0.00     0.116 C 
HETATM    2  C4  UNL     1       1.264  59.664  42.537  1.00  0.00     0.041 C 
HETATM    3  C5  UNL     1       1.175  61.151  42.557  1.00  0.00     0.006 C 
HETATM    4  C6  UNL     1       0.541  61.084  43.903  1.00  0.00     0.041 C 
ENDROOT
BRANCH   1   5
HETATM    5  C1  UNL     1      -0.915  59.070  43.514  1.00  0.00     0.264 C 
HETATM    6  N2  UNL     1      -1.458  58.111  44.387  1.00  0.00    -0.275 N 
ATOM      7  H2  UNL     1      -0.930  57.789  45.198  1.00  0.00     0.189 HD
HETATM    8  O1  UNL     1      -1.551  59.462  42.530  1.00  0.00    -0.269 OA
BRANCH   6   9
HETATM    9  N1  UNL     1      -2.714  57.616  44.129  1.00  0.00    -0.343 N 
ATOM     10  H12 UNL     1      -2.815  56.694  43.704  1.00  0.00     0.176 HD
ATOM     11  H11 UNL     1      -3.526  58.184  44.370  1.00  0.00     0.176 HD
ENDBRANCH   6   9
ENDBRANCH   1   5
BRANCH   1  12
HETATM   12  N3  UNL     1       1.119  58.866  44.839  1.00  0.00    -0.327 N 
HETATM   13  C3  UNL     1       0.699  58.941  46.172  1.00  0.00     0.329 C 
HETATM   14  N4  UNL     1       1.418  58.163  47.146  1.00  0.00    -0.040 NA
HETATM   15  O2  UNL     1      -0.241  59.618  46.595  1.00  0.00    -0.251 OA
ATOM     16  H3  UNL     1       1.912  58.271  44.599  1.00  0.00     0.165 HD
ENDBRANCH   1  12
TORSDOF 3
ENDMDL
MODEL 4
REMARK VINA RESULT: -5.343470877      2.881      4.399
REMARK  3 active torsions:
REMARK  status: ('A' for Active; 'I' for Inactive)
REMARK    1  A    between atoms: N1_1  and  N2_4 
REMARK       I    between atoms: N2_4  and  C1_6 
REMARK    2  A    between atoms: C1_6  and  C2_8 
REMARK    3  A    between atoms: C2_8  and  N3_9 
REMARK       I    between atoms: N3_9  and  C3_11 
ROOT
HETATM    1  C2  UNL     1       1.297  59.721  43.260  1.00  0.00     0.116 C 
HETATM    2  C4  UNL     1       2.047  58.848  42.313  1.00  0.00     0.041 C 
HETATM    3  C5  UNL     1       3.324  59.391  42.856  1.00  0.00     0.006 C 
HETATM    4  C6  UNL     1       2.559  60.098  43.920  1.00  0.00     0.041 C 
ENDROOT
BRANCH   1   5
HETATM    5  C1  UNL     1       0.592  60.821  42.528  1.00  0.00     0.264 C 
HETATM    6  N2  UNL     1       0.826  62.156  42.903  1.00  0.00    -0.275 N 
ATOM      7  H2  UNL     1       1.467  62.377  43.665  1.00  0.00     0.189 HD
HETATM    8  O1  UNL     1      -0.185  60.548  41.608  1.00  0.00    -0.269 OA
BRANCH   6   9
HETATM    9  N1  UNL     1       0.174  63.158  42.225  1.00  0.00    -0.343 N 
ATOM     10  H12 UNL     1      -0.758  62.989  41.848  1.00  0.00     0.176 HD
ATOM     11  H11 UNL     1       0.640  64.058  42.111  1.00  0.00     0.176 HD
ENDBRANCH   6   9
ENDBRANCH   1   5
BRANCH   1  12
HETATM   12  N3  UNL     1       0.368  58.956  44.081  1.00  0.00    -0.327 N 
HETATM   13  C3  UNL     1      -0.417  59.569  45.064  1.00  0.00     0.329 C 
HETATM   14  N4  UNL     1      -1.308  58.736  45.827  1.00  0.00    -0.040 NA
HETATM   15  O2  UNL     1      -0.418  60.771  45.340  1.00  0.00    -0.251 OA
ATOM     16  H3  UNL     1       0.288  57.950  43.935  1.00  0.00     0.165 HD
ENDBRANCH   1  12
TORSDOF 3
ENDMDL
MODEL 5
REMARK VINA RESULT: -5.319919075      6.522      7.607
REMARK  3 active torsions:
REMARK  status: ('A' for Active; 'I' for Inactive)
REMARK    1  A    between atoms: N1_1  and  N2_4 
REMARK       I    between atoms: N2_4  and  C1_6 
REMARK    2  A    between atoms: C1_6  and  C2_8 
REMARK    3  A    between atoms: C2_8  and  N3_9 
REMARK       I    between atoms: N3_9  and  C3_11 
ROOT
HETATM    1  C2  UNL     1      -3.813  58.273  43.609  1.00  0.00     0.116 C 
HETATM    2  C4  UNL     1      -3.811  57.846  42.181  1.00  0.00     0.041 C 
HETATM    3  C5  UNL     1      -4.215  59.226  41.790  1.00  0.00     0.006 C 
HETATM    4  C6  UNL     1      -4.016  59.673  43.197  1.00  0.00     0.041 C 
ENDROOT
BRANCH   1   5
HETATM    5  C1  UNL     1      -4.950  57.644  44.353  1.00  0.00     0.264 C 
HETATM    6  N2  UNL     1      -5.300  58.139  45.622  1.00  0.00    -0.275 N 
ATOM      7  H2  UNL     1      -4.786  58.917  46.035  1.00  0.00     0.189 HD
HETATM    8  O1  UNL     1      -5.567  56.700  43.850  1.00  0.00    -0.269 OA
BRANCH   6   9
HETATM    9  N1  UNL     1      -6.345  57.555  46.296  1.00  0.00    -0.343 N 
ATOM     10  H12 UNL     1      -7.046  57.024  45.777  1.00  0.00     0.176 HD
ATOM     11  H11 UNL     1      -6.400  57.664  47.308  1.00  0.00     0.176 HD
ENDBRANCH   6   9
ENDBRANCH   1   5
BRANCH   1  12
HETATM   12  N3  UNL     1      -2.540  57.993  44.260  1.00  0.00    -0.327 N 
HETATM   13  C3  UNL     1      -2.106  58.728  45.368  1.00  0.00     0.329 C 
HETATM   14  N4  UNL     1      -0.835  58.381  45.947  1.00  0.00    -0.040 NA
HETATM   15  O2  UNL     1      -2.718  59.656  45.902  1.00  0.00    -0.251 OA
ATOM     16  H3  UNL     1      -1.952  57.242  43.899  1.00  0.00     0.165 HD
ENDBRANCH   1  12
TORSDOF 3
ENDMDL
