MODEL 1
REMARK VINA RESULT: -5.974880575      0.000      0.000
REMARK  4 active torsions:
REMARK  status: ('A' for Active; 'I' for Inactive)
REMARK       I    between atoms: C1_4  and  N2_5 
REMARK       I    between atoms: C1_4  and  N4_10 
REMARK    1  A    between atoms: N2_5  and  N3_7 
REMARK    2  A    between atoms: N4_10  and  O1_12 
REMARK    3  A    between atoms: O1_12  and  C2_13 
REMARK    4  A    between atoms: C2_13  and  C3_14 
ROOT
HETATM    1  N1  UNL     1       1.216  58.840  46.433  1.00  0.00    -0.232 N 
ATOM      2  H11 UNL     1       1.124  57.938  46.900  1.00  0.00     0.174 HD
ATOM      3  H12 UNL     1       2.059  59.393  46.590  1.00  0.00     0.174 HD
HETATM    4  C1  UNL     1       0.290  59.262  45.669  1.00  0.00     0.709 C 
HETATM    5  N2  UNL     1       0.419  60.517  45.020  1.00  0.00    -0.137 N 
ATOM      6  H2  UNL     1      -0.261  61.252  45.215  1.00  0.00     0.205 HD
HETATM    7  N4  UNL     1      -0.870  58.501  45.452  1.00  0.00    -0.095 N 
ATOM      8  H4  UNL     1      -0.794  57.645  44.903  1.00  0.00     0.213 HD
ENDROOT
BRANCH   7   9
HETATM    9  O1  UNL     1      -2.066  58.843  45.930  1.00  0.00    -0.264 OA
BRANCH   9  10
HETATM   10  C2  UNL     1      -2.880  59.404  44.944  1.00  0.00     0.234 C 
BRANCH  10  11
HETATM   11  C3  UNL     1      -3.624  58.325  44.210  1.00  0.00     0.212 C 
HETATM   12  C4  UNL     1      -4.452  58.855  43.069  1.00  0.00     0.037 C 
HETATM   13  C5  UNL     1      -5.386  57.665  42.873  1.00  0.00     0.029 C 
HETATM   14  C6  UNL     1      -5.771  57.437  44.341  1.00  0.00     0.233 C 
HETATM   15  N5  UNL     1      -4.570  57.689  45.090  1.00  0.00    -0.069 N 
ATOM     16  H52 UNL     1      -4.196  56.849  45.532  1.00  0.00     0.277 HD
ATOM     17  H51 UNL     1      -4.741  58.225  45.941  1.00  0.00     0.277 HD
ENDBRANCH  10  11
ENDBRANCH   9  10
ENDBRANCH   7   9
BRANCH   5  18
HETATM   18  N3  UNL     1       1.460  60.769  44.117  1.00  0.00    -0.331 N 
ATOM     19  H32 UNL     1       2.175  61.448  44.380  1.00  0.00     0.177 HD
ATOM     20  H31 UNL     1       1.512  60.291  43.217  1.00  0.00     0.177 HD
ENDBRANCH   5  18
TORSDOF 4
ENDMDL
MODEL 2
REMARK VINA RESULT: -5.799176672      1.134      1.773
REMARK  4 active torsions:
REMARK  status: ('A' for Active; 'I' for Inactive)
REMARK       I    between atoms: C1_4  and  N2_5 
REMARK       I    between atoms: C1_4  and  N4_10 
REMARK    1  A    between atoms: N2_5  and  N3_7 
REMARK    2  A    between atoms: N4_10  and  O1_12 
REMARK    3  A    between atoms: O1_12  and  C2_13 
REMARK    4  A    between atoms: C2_13  and  C3_14 
ROOT
HETATM    1  N1  UNL     1       0.499  60.789  44.753  1.00  0.00    -0.232 N 
ATOM      2  H11 UNL     1      -0.065  61.459  44.230  1.00  0.00     0.174 HD
ATOM      3  H12 UNL     1       1.459  61.034  44.994  1.00  0.00     0.174 HD
HETATM    4  C1  UNL     1       0.005  59.667  45.093  1.00  0.00     0.709 C 
HETATM    5  N2  UNL     1       0.790  58.735  45.821  1.00  0.00    -0.137 N 
ATOM      6  H2  UNL     1       0.984  57.820  45.413  1.00  0.00     0.205 HD
HETATM    7  N4  UNL     1      -1.317  59.329  44.761  1.00  0.00    -0.095 N 
ATOM      8  H4  UNL     1      -2.077  59.818  45.234  1.00  0.00     0.213 HD
ENDROOT
BRANCH   7   9
HETATM    9  O1  UNL     1      -1.626  58.401  43.856  1.00  0.00    -0.264 OA
BRANCH   9  10
HETATM   10  C2  UNL     1      -2.829  58.688  43.205  1.00  0.00     0.234 C 
BRANCH  10  11
HETATM   11  C3  UNL     1      -3.863  57.654  43.547  1.00  0.00     0.212 C 
HETATM   12  C4  UNL     1      -5.116  57.782  42.720  1.00  0.00     0.037 C 
HETATM   13  C5  UNL     1      -6.067  56.970  43.594  1.00  0.00     0.029 C 
HETATM   14  C6  UNL     1      -5.719  57.598  44.950  1.00  0.00     0.233 C 
HETATM   15  N5  UNL     1      -4.300  57.823  44.909  1.00  0.00    -0.069 N 
ATOM     16  H52 UNL     1      -3.787  57.232  45.564  1.00  0.00     0.277 HD
ATOM     17  H51 UNL     1      -4.031  58.725  45.302  1.00  0.00     0.277 HD
ENDBRANCH  10  11
ENDBRANCH   9  10
ENDBRANCH   7   9
BRANCH   5  18
HETATM   18  N3  UNL     1       1.303  59.043  47.087  1.00  0.00    -0.331 N 
ATOM     19  H32 UNL     1       1.668  58.281  47.659  1.00  0.00     0.177 HD
ATOM     20  H31 UNL     1       1.316  60.001  47.438  1.00  0.00     0.177 HD
ENDBRANCH   5  18
TORSDOF 4
ENDMDL
MODEL 3
REMARK VINA RESULT: -5.730926220      1.121      1.153
REMARK  4 active torsions:
REMARK  status: ('A' for Active; 'I' for Inactive)
REMARK       I    between atoms: C1_4  and  N2_5 
REMARK       I    between atoms: C1_4  and  N4_10 
REMARK    1  A    between atoms: N2_5  and  N3_7 
REMARK    2  A    between atoms: N4_10  and  O1_12 
REMARK    3  A    between atoms: O1_12  and  C2_13 
REMARK    4  A    between atoms: C2_13  and  C3_14 
ROOT
HETATM    1  N1  UNL     1       1.354  59.051  45.437  1.00  0.00    -0.232 N 
ATOM      2  H11 UNL     1       1.375  58.040  45.568  1.00  0.00     0.174 HD
ATOM      3  H12 UNL     1       2.048  59.625  45.916  1.00  0.00     0.174 HD
HETATM    4  C1  UNL     1       0.471  59.581  44.689  1.00  0.00     0.709 C 
HETATM    5  N2  UNL     1       0.442  60.988  44.508  1.00  0.00    -0.137 N 
ATOM      6  H2  UNL     1      -0.384  61.511  44.796  1.00  0.00     0.205 HD
HETATM    7  N4  UNL     1      -0.485  58.790  44.031  1.00  0.00    -0.095 N 
ATOM      8  H4  UNL     1      -0.177  58.195  43.262  1.00  0.00     0.213 HD
ENDROOT
BRANCH   7   9
HETATM    9  O1  UNL     1      -1.775  58.781  44.362  1.00  0.00    -0.264 OA
BRANCH   9  10
HETATM   10  C2  UNL     1      -2.599  58.609  43.246  1.00  0.00     0.234 C 
BRANCH  10  11
HETATM   11  C3  UNL     1      -3.700  57.637  43.561  1.00  0.00     0.212 C 
HETATM   12  C4  UNL     1      -4.940  57.869  42.737  1.00  0.00     0.037 C 
HETATM   13  C5  UNL     1      -5.945  57.099  43.589  1.00  0.00     0.029 C 
HETATM   14  C6  UNL     1      -5.559  57.667  44.961  1.00  0.00     0.233 C 
HETATM   15  N5  UNL     1      -4.128  57.798  44.927  1.00  0.00    -0.069 N 
ATOM     16  H52 UNL     1      -3.657  57.158  45.566  1.00  0.00     0.277 HD
ATOM     17  H51 UNL     1      -3.801  58.671  45.343  1.00  0.00     0.277 HD
ENDBRANCH  10  11
ENDBRANCH   9  10
ENDBRANCH   7   9
BRANCH   5  18
HETATM   18  N3  UNL     1       1.525  61.674  43.942  1.00  0.00    -0.331 N 
ATOM     19  H32 UNL     1       2.219  62.082  44.567  1.00  0.00     0.177 HD
ATOM     20  H31 UNL     1       1.625  61.768  42.931  1.00  0.00     0.177 HD
ENDBRANCH   5  18
TORSDOF 4
ENDMDL
MODEL 4
REMARK VINA RESULT: -5.674581460      1.161      1.425
REMARK  4 active torsions:
REMARK  status: ('A' for Active; 'I' for Inactive)
REMARK       I    between atoms: C1_4  and  N2_5 
REMARK       I    between atoms: C1_4  and  N4_10 
REMARK    1  A    between atoms: N2_5  and  N3_7 
REMARK    2  A    between atoms: N4_10  and  O1_12 
REMARK    3  A    between atoms: O1_12  and  C2_13 
REMARK    4  A    between atoms: C2_13  and  C3_14 
ROOT
HETATM    1  N1  UNL     1       0.540  60.885  44.557  1.00  0.00    -0.232 N 
ATOM      2  H11 UNL     1       0.308  61.495  45.340  1.00  0.00     0.174 HD
ATOM      3  H12 UNL     1       0.892  61.300  43.695  1.00  0.00     0.174 HD
HETATM    4  C1  UNL     1       0.388  59.625  44.662  1.00  0.00     0.709 C 
HETATM    5  N2  UNL     1       0.710  58.776  43.572  1.00  0.00    -0.137 N 
ATOM      6  H2  UNL     1      -0.021  58.201  43.153  1.00  0.00     0.205 HD
HETATM    7  N4  UNL     1      -0.098  59.054  45.849  1.00  0.00    -0.095 N 
ATOM      8  H4  UNL     1       0.504  59.058  46.672  1.00  0.00     0.213 HD
ENDROOT
BRANCH   7   9
HETATM    9  O1  UNL     1      -1.307  58.504  45.951  1.00  0.00    -0.264 OA
BRANCH   9  10
HETATM   10  C2  UNL     1      -2.290  59.289  45.342  1.00  0.00     0.234 C 
BRANCH  10  11
HETATM   11  C3  UNL     1      -3.138  58.444  44.434  1.00  0.00     0.212 C 
HETATM   12  C4  UNL     1      -3.900  59.256  43.419  1.00  0.00     0.037 C 
HETATM   13  C5  UNL     1      -4.952  58.225  43.023  1.00  0.00     0.029 C 
HETATM   14  C6  UNL     1      -5.367  57.775  44.430  1.00  0.00     0.233 C 
HETATM   15  N5  UNL     1      -4.151  57.760  45.197  1.00  0.00    -0.069 N 
ATOM     16  H52 UNL     1      -3.869  56.820  45.473  1.00  0.00     0.277 HD
ATOM     17  H51 UNL     1      -4.270  58.148  46.133  1.00  0.00     0.277 HD
ENDBRANCH  10  11
ENDBRANCH   9  10
ENDBRANCH   7   9
BRANCH   5  18
HETATM   18  N3  UNL     1       2.012  58.710  43.058  1.00  0.00    -0.331 N 
ATOM     19  H32 UNL     1       2.793  58.799  43.707  1.00  0.00     0.177 HD
ATOM     20  H31 UNL     1       2.184  58.575  42.061  1.00  0.00     0.177 HD
ENDBRANCH   5  18
TORSDOF 4
ENDMDL
MODEL 5
REMARK VINA RESULT: -5.669532183      1.760      2.693
REMARK  4 active torsions:
REMARK  status: ('A' for Active; 'I' for Inactive)
REMARK       I    between atoms: C1_4  and  N2_5 
REMARK       I    between atoms: C1_4  and  N4_10 
REMARK    1  A    between atoms: N2_5  and  N3_7 
REMARK    2  A    between atoms: N4_10  and  O1_12 
REMARK    3  A    between atoms: O1_12  and  C2_13 
REMARK    4  A    between atoms: C2_13  and  C3_14 
ROOT
HETATM    1  N1  UNL     1       2.559  58.830  44.768  1.00  0.00    -0.232 N 
ATOM      2  H11 UNL     1       2.344  59.725  44.329  1.00  0.00     0.174 HD
ATOM      3  H12 UNL     1       3.215  58.200  44.307  1.00  0.00     0.174 HD
HETATM    4  C1  UNL     1       2.014  58.513  45.873  1.00  0.00     0.709 C 
HETATM    5  N2  UNL     1       2.314  57.268  46.483  1.00  0.00    -0.137 N 
ATOM      6  H2  UNL     1       1.564  56.593  46.635  1.00  0.00     0.205 HD
HETATM    7  N4  UNL     1       1.111  59.381  46.508  1.00  0.00    -0.095 N 
ATOM      8  H4  UNL     1       1.473  60.240  46.923  1.00  0.00     0.213 HD
ENDROOT
BRANCH   7   9
HETATM    9  O1  UNL     1      -0.196  59.137  46.595  1.00  0.00    -0.264 OA
BRANCH   9  10
HETATM   10  C2  UNL     1      -0.888  59.595  45.471  1.00  0.00     0.234 C 
BRANCH  10  11
HETATM   11  C3  UNL     1      -1.768  58.507  44.925  1.00  0.00     0.212 C 
HETATM   12  C4  UNL     1      -2.057  58.668  43.455  1.00  0.00     0.037 C 
HETATM   13  C5  UNL     1      -3.277  57.759  43.346  1.00  0.00     0.029 C 
HETATM   14  C6  UNL     1      -4.056  58.282  44.561  1.00  0.00     0.233 C 
HETATM   15  N5  UNL     1      -3.060  58.549  45.562  1.00  0.00    -0.069 N 
ATOM     16  H52 UNL     1      -3.126  57.921  46.363  1.00  0.00     0.277 HD
ATOM     17  H51 UNL     1      -3.227  59.424  46.061  1.00  0.00     0.277 HD
ENDBRANCH  10  11
ENDBRANCH   9  10
ENDBRANCH   7   9
BRANCH   5  18
HETATM   18  N3  UNL     1       3.618  56.945  46.882  1.00  0.00    -0.331 N 
ATOM     19  H32 UNL     1       3.858  55.960  46.996  1.00  0.00     0.177 HD
ATOM     20  H31 UNL     1       4.315  57.668  47.056  1.00  0.00     0.177 HD
ENDBRANCH   5  18
TORSDOF 4
ENDMDL
