MODEL 1
REMARK VINA RESULT: -8.730949721      0.000      0.000
REMARK  14 active torsions:
REMARK  status: ('A' for Active; 'I' for Inactive)
REMARK       I    between atoms: C2_2  and  N1_4 
REMARK    1  A    between atoms: N1_4  and  C3_6 
REMARK    2  A    between atoms: C3_6  and  C4_7 
REMARK    3  A    between atoms: C4_7  and  C5_8 
REMARK    4  A    between atoms: C5_8  and  C6_9 
REMARK    5  A    between atoms: C6_9  and  C7_10 
REMARK    6  A    between atoms: C7_10  and  N2_11 
REMARK    7  A    between atoms: C7_10  and  C13_20 
REMARK       I    between atoms: N2_11  and  C8_13 
REMARK    8  A    between atoms: C8_13  and  C9_15 
REMARK       I    between atoms: C13_20  and  N3_22 
REMARK    9  A    between atoms: N3_22  and  C14_24 
REMARK   10  A    between atoms: C14_24  and  C15_25 
REMARK   11  A    between atoms: C14_24  and  C22_32 
REMARK   12  A    between atoms: C15_25  and  C16_26 
REMARK   13  A    between atoms: C22_32  and  C23_33 
REMARK   14  A    between atoms: C30_40  and  O5_41 
ROOT
HETATM    1  C13 UNL     1      31.043  32.759  13.468  1.00  0.00     0.264 C 
HETATM    2  O4  UNL     1      31.511  32.475  14.615  1.00  0.00    -0.266 OA
HETATM    3  N3  UNL     1      30.964  34.130  13.130  1.00  0.00    -0.351 N 
ATOM      4  H3  UNL     1      30.583  34.413  12.227  1.00  0.00     0.163 HD
ENDROOT
BRANCH   1   5
HETATM    5  C7  UNL     1      30.635  31.665  12.625  1.00  0.00     0.080 C 
BRANCH   5   6
HETATM    6  C6  UNL     1      29.400  30.918  13.029  1.00  0.00     0.063 C 
BRANCH   6   7
HETATM    7  C5  UNL     1      28.192  31.575  12.405  1.00  0.00     0.008 C 
BRANCH   7   8
HETATM    8  C4  UNL     1      28.465  32.019  10.972  1.00  0.00     0.020 C 
BRANCH   8   9
HETATM    9  C3  UNL     1      27.984  30.952  10.042  1.00  0.00     0.122 C 
BRANCH   9  10
HETATM   10  N1  UNL     1      29.075  30.190   9.495  1.00  0.00    -0.361 N 
HETATM   11  C2  UNL     1      29.299  28.832   9.914  1.00  0.00     0.213 C 
HETATM   12  C1  UNL     1      30.417  28.026   9.361  1.00  0.00     0.117 C 
HETATM   13  O1  UNL     1      28.519  28.356  10.760  1.00  0.00    -0.274 OA
ATOM     14  H1  UNL     1      29.693  30.616   8.806  1.00  0.00     0.162 HD
ENDBRANCH   9  10
ENDBRANCH   8   9
ENDBRANCH   7   8
ENDBRANCH   6   7
ENDBRANCH   5   6
BRANCH   5  15
HETATM   15  N2  UNL     1      31.696  30.892  12.065  1.00  0.00    -0.324 N 
HETATM   16  C8  UNL     1      32.293  30.940  10.807  1.00  0.00     0.251 C 
HETATM   17  O2  UNL     1      31.944  31.724   9.910  1.00  0.00    -0.270 OA
ATOM     18  H2  UNL     1      32.082  30.186  12.692  1.00  0.00     0.169 HD
BRANCH  16  19
HETATM   19  C9  UNL     1      33.427  30.003  10.480  1.00  0.00     0.213 C 
HETATM   20  C10 UNL     1      33.642  30.025   8.986  1.00  0.00     0.044 C 
HETATM   21  C11 UNL     1      34.755  31.028   8.863  1.00  0.00     0.029 C 
HETATM   22  C12 UNL     1      35.420  31.016  10.221  1.00  0.00     0.168 C 
HETATM   23  O3  UNL     1      34.591  30.368  11.101  1.00  0.00    -0.376 OA
ENDBRANCH  16  19
ENDBRANCH   5  15
ENDBRANCH   1   5
BRANCH   3  24
HETATM   24  C14 UNL     1      31.434  35.145  14.086  1.00  0.00     0.085 C 
BRANCH  24  25
HETATM   25  C15 UNL     1      32.741  35.698  13.849  1.00  0.00     0.029 C 
BRANCH  25  26
HETATM   26  C16 UNL     1      34.023  35.091  14.158  1.00  0.00    -0.013 C 
HETATM   27  C17 UNL     1      34.270  34.361  15.410  1.00  0.00     0.005 C 
HETATM   28  C18 UNL     1      35.753  33.945  15.451  1.00  0.00     0.000 C 
HETATM   29  C19 UNL     1      36.707  35.069  15.347  1.00  0.00     0.000 C 
HETATM   30  C20 UNL     1      36.428  35.816  14.042  1.00  0.00     0.000 C 
HETATM   31  C21 UNL     1      35.022  36.289  14.139  1.00  0.00     0.005 C 
ENDBRANCH  25  26
ENDBRANCH  24  25
BRANCH  24  32
HETATM   32  C22 UNL     1      30.283  36.121  14.205  1.00  0.00     0.032 C 
BRANCH  32  33
HETATM   33  C23 UNL     1      30.665  37.534  14.471  1.00  0.00     0.016 C 
HETATM   34  C24 UNL     1      29.646  38.508  13.920  1.00  0.00     0.007 C 
HETATM   35  C25 UNL     1      28.229  38.264  14.187  1.00  0.00     0.000 C 
HETATM   36  C26 UNL     1      27.608  39.053  15.297  1.00  0.00     0.000 C 
HETATM   37  C27 UNL     1      28.449  40.124  15.890  1.00  0.00     0.000 C 
HETATM   38  C28 UNL     1      29.557  39.691  16.792  1.00  0.00     0.002 C 
HETATM   39  C29 UNL     1      29.862  38.235  16.780  1.00  0.00     0.032 C 
HETATM   40  C30 UNL     1      31.010  37.852  15.902  1.00  0.00     0.122 C 
BRANCH  40  41
HETATM   41  O5  UNL     1      31.951  38.910  15.955  1.00  0.00    -0.395 OA
ATOM     42  H5  UNL     1      32.823  38.567  16.109  1.00  0.00     0.210 HD
ENDBRANCH  40  41
ENDBRANCH  32  33
ENDBRANCH  24  32
ENDBRANCH   3  24
TORSDOF 14
ENDMDL
MODEL 2
REMARK VINA RESULT: -8.442930537      2.569      6.441
REMARK  14 active torsions:
REMARK  status: ('A' for Active; 'I' for Inactive)
REMARK       I    between atoms: C2_2  and  N1_4 
REMARK    1  A    between atoms: N1_4  and  C3_6 
REMARK    2  A    between atoms: C3_6  and  C4_7 
REMARK    3  A    between atoms: C4_7  and  C5_8 
REMARK    4  A    between atoms: C5_8  and  C6_9 
REMARK    5  A    between atoms: C6_9  and  C7_10 
REMARK    6  A    between atoms: C7_10  and  N2_11 
REMARK    7  A    between atoms: C7_10  and  C13_20 
REMARK       I    between atoms: N2_11  and  C8_13 
REMARK    8  A    between atoms: C8_13  and  C9_15 
REMARK       I    between atoms: C13_20  and  N3_22 
REMARK    9  A    between atoms: N3_22  and  C14_24 
REMARK   10  A    between atoms: C14_24  and  C15_25 
REMARK   11  A    between atoms: C14_24  and  C22_32 
REMARK   12  A    between atoms: C15_25  and  C16_26 
REMARK   13  A    between atoms: C22_32  and  C23_33 
REMARK   14  A    between atoms: C30_40  and  O5_41 
ROOT
HETATM    1  C13 UNL     1      32.408  31.010  10.821  1.00  0.00     0.264 C 
HETATM    2  O4  UNL     1      32.001  31.915  10.027  1.00  0.00    -0.266 OA
HETATM    3  N3  UNL     1      31.894  31.036  12.138  1.00  0.00    -0.351 N 
ATOM      4  H3  UNL     1      32.198  30.341  12.820  1.00  0.00     0.163 HD
ENDROOT
BRANCH   1   5
HETATM    5  C7  UNL     1      33.353  30.050  10.311  1.00  0.00     0.080 C 
BRANCH   5   6
HETATM    6  C6  UNL     1      34.494  30.584   9.497  1.00  0.00     0.063 C 
BRANCH   6   7
HETATM    7  C5  UNL     1      35.760  30.533  10.317  1.00  0.00     0.008 C 
BRANCH   7   8
HETATM    8  C4  UNL     1      36.994  30.327   9.444  1.00  0.00     0.020 C 
BRANCH   8   9
HETATM    9  C3  UNL     1      37.218  28.859   9.275  1.00  0.00     0.122 C 
BRANCH   9  10
HETATM   10  N1  UNL     1      36.617  28.363   8.066  1.00  0.00    -0.361 N 
HETATM   11  C2  UNL     1      35.613  27.333   8.118  1.00  0.00     0.213 C 
HETATM   12  C1  UNL     1      34.978  26.808   6.883  1.00  0.00     0.117 C 
HETATM   13  O1  UNL     1      35.297  26.896   9.240  1.00  0.00    -0.274 OA
ATOM     14  H1  UNL     1      36.904  28.745   7.165  1.00  0.00     0.162 HD
ENDBRANCH   9  10
ENDBRANCH   8   9
ENDBRANCH   7   8
ENDBRANCH   6   7
ENDBRANCH   5   6
BRANCH   5  15
HETATM   15  N2  UNL     1      32.799  28.804   9.895  1.00  0.00    -0.324 N 
HETATM   16  C8  UNL     1      32.070  28.464   8.756  1.00  0.00     0.251 C 
HETATM   17  O2  UNL     1      31.761  29.278   7.871  1.00  0.00    -0.270 OA
ATOM     18  H2  UNL     1      32.963  28.030  10.539  1.00  0.00     0.169 HD
BRANCH  16  19
HETATM   19  C9  UNL     1      31.614  27.042   8.555  1.00  0.00     0.213 C 
HETATM   20  C10 UNL     1      31.335  26.439   9.910  1.00  0.00     0.044 C 
HETATM   21  C11 UNL     1      29.850  26.645  10.024  1.00  0.00     0.029 C 
HETATM   22  C12 UNL     1      29.380  26.772   8.593  1.00  0.00     0.168 C 
HETATM   23  O3  UNL     1      30.479  26.968   7.795  1.00  0.00    -0.376 OA
ENDBRANCH  16  19
ENDBRANCH   5  15
ENDBRANCH   1   5
BRANCH   3  24
HETATM   24  C14 UNL     1      30.918  32.069  12.520  1.00  0.00     0.085 C 
BRANCH  24  25
HETATM   25  C15 UNL     1      29.625  31.607  12.950  1.00  0.00     0.029 C 
BRANCH  25  26
HETATM   26  C16 UNL     1      28.556  31.081  12.120  1.00  0.00    -0.013 C 
HETATM   27  C17 UNL     1      28.497  29.671  11.708  1.00  0.00     0.005 C 
HETATM   28  C18 UNL     1      27.299  29.487  10.756  1.00  0.00     0.000 C 
HETATM   29  C19 UNL     1      27.337  30.344   9.552  1.00  0.00     0.000 C 
HETATM   30  C20 UNL     1      27.404  31.804  10.005  1.00  0.00     0.000 C 
HETATM   31  C21 UNL     1      28.649  31.921  10.809  1.00  0.00     0.005 C 
ENDBRANCH  25  26
ENDBRANCH  24  25
BRANCH  24  32
HETATM   32  C22 UNL     1      31.673  32.980  13.463  1.00  0.00     0.032 C 
BRANCH  32  33
HETATM   33  C23 UNL     1      32.609  33.939  12.817  1.00  0.00     0.016 C 
HETATM   34  C24 UNL     1      31.925  35.240  12.456  1.00  0.00     0.007 C 
HETATM   35  C25 UNL     1      31.082  35.888  13.458  1.00  0.00     0.000 C 
HETATM   36  C26 UNL     1      31.693  37.027  14.215  1.00  0.00     0.000 C 
HETATM   37  C27 UNL     1      33.023  37.488  13.746  1.00  0.00     0.000 C 
HETATM   38  C28 UNL     1      34.193  36.619  14.072  1.00  0.00     0.002 C 
HETATM   39  C29 UNL     1      33.861  35.265  14.589  1.00  0.00     0.032 C 
HETATM   40  C30 UNL     1      33.898  34.183  13.558  1.00  0.00     0.122 C 
BRANCH  40  41
HETATM   41  O5  UNL     1      34.932  34.507  12.645  1.00  0.00    -0.395 OA
ATOM     42  H5  UNL     1      35.428  33.728  12.422  1.00  0.00     0.210 HD
ENDBRANCH  40  41
ENDBRANCH  32  33
ENDBRANCH  24  32
ENDBRANCH   3  24
TORSDOF 14
ENDMDL
MODEL 3
REMARK VINA RESULT: -8.423543996      1.104      1.667
REMARK  14 active torsions:
REMARK  status: ('A' for Active; 'I' for Inactive)
REMARK       I    between atoms: C2_2  and  N1_4 
REMARK    1  A    between atoms: N1_4  and  C3_6 
REMARK    2  A    between atoms: C3_6  and  C4_7 
REMARK    3  A    between atoms: C4_7  and  C5_8 
REMARK    4  A    between atoms: C5_8  and  C6_9 
REMARK    5  A    between atoms: C6_9  and  C7_10 
REMARK    6  A    between atoms: C7_10  and  N2_11 
REMARK    7  A    between atoms: C7_10  and  C13_20 
REMARK       I    between atoms: N2_11  and  C8_13 
REMARK    8  A    between atoms: C8_13  and  C9_15 
REMARK       I    between atoms: C13_20  and  N3_22 
REMARK    9  A    between atoms: N3_22  and  C14_24 
REMARK   10  A    between atoms: C14_24  and  C15_25 
REMARK   11  A    between atoms: C14_24  and  C22_32 
REMARK   12  A    between atoms: C15_25  and  C16_26 
REMARK   13  A    between atoms: C22_32  and  C23_33 
REMARK   14  A    between atoms: C30_40  and  O5_41 
ROOT
HETATM    1  C13 UNL     1      31.006  33.035  13.100  1.00  0.00     0.264 C 
HETATM    2  O4  UNL     1      31.235  32.647  14.288  1.00  0.00    -0.266 OA
HETATM    3  N3  UNL     1      31.200  34.409  12.827  1.00  0.00    -0.351 N 
ATOM      4  H3  UNL     1      31.018  34.776  11.893  1.00  0.00     0.163 HD
ENDROOT
BRANCH   1   5
HETATM    5  C7  UNL     1      30.569  32.047  12.147  1.00  0.00     0.080 C 
BRANCH   5   6
HETATM    6  C6  UNL     1      29.749  30.909  12.676  1.00  0.00     0.063 C 
BRANCH   6   7
HETATM    7  C5  UNL     1      28.287  31.281  12.625  1.00  0.00     0.008 C 
BRANCH   7   8
HETATM    8  C4  UNL     1      27.403  30.074  12.327  1.00  0.00     0.020 C 
BRANCH   8   9
HETATM    9  C3  UNL     1      28.158  29.139  11.438  1.00  0.00     0.122 C 
BRANCH   9  10
HETATM   10  N1  UNL     1      27.612  29.112  10.107  1.00  0.00    -0.361 N 
HETATM   11  C2  UNL     1      28.367  29.632   8.998  1.00  0.00     0.213 C 
HETATM   12  C1  UNL     1      27.825  29.613   7.616  1.00  0.00     0.117 C 
HETATM   13  O1  UNL     1      29.494  30.103   9.240  1.00  0.00    -0.274 OA
ATOM     14  H1  UNL     1      26.684  28.720   9.949  1.00  0.00     0.162 HD
ENDBRANCH   9  10
ENDBRANCH   8   9
ENDBRANCH   7   8
ENDBRANCH   6   7
ENDBRANCH   5   6
BRANCH   5  15
HETATM   15  N2  UNL     1      31.501  31.738  11.112  1.00  0.00    -0.324 N 
HETATM   16  C8  UNL     1      32.775  31.175  11.170  1.00  0.00     0.251 C 
HETATM   17  O2  UNL     1      33.334  30.848  12.228  1.00  0.00    -0.270 OA
ATOM     18  H2  UNL     1      31.180  31.967  10.172  1.00  0.00     0.169 HD
BRANCH  16  19
HETATM   19  C9  UNL     1      33.547  30.937   9.898  1.00  0.00     0.213 C 
HETATM   20  C10 UNL     1      34.552  29.841  10.153  1.00  0.00     0.044 C 
HETATM   21  C11 UNL     1      33.810  28.636   9.643  1.00  0.00     0.029 C 
HETATM   22  C12 UNL     1      32.800  29.203   8.671  1.00  0.00     0.168 C 
HETATM   23  O3  UNL     1      32.733  30.560   8.864  1.00  0.00    -0.376 OA
ENDBRANCH  16  19
ENDBRANCH   5  15
ENDBRANCH   1   5
BRANCH   3  24
HETATM   24  C14 UNL     1      31.667  35.306  13.896  1.00  0.00     0.085 C 
BRANCH  24  25
HETATM   25  C15 UNL     1      32.927  35.967  13.679  1.00  0.00     0.029 C 
BRANCH  25  26
HETATM   26  C16 UNL     1      34.134  35.843  14.476  1.00  0.00    -0.013 C 
HETATM   27  C17 UNL     1      35.422  36.413  14.052  1.00  0.00     0.005 C 
HETATM   28  C18 UNL     1      36.499  36.008  15.076  1.00  0.00     0.000 C 
HETATM   29  C19 UNL     1      36.651  34.549  15.259  1.00  0.00     0.000 C 
HETATM   30  C20 UNL     1      35.300  33.977  15.694  1.00  0.00     0.000 C 
HETATM   31  C21 UNL     1      34.351  34.303  14.597  1.00  0.00     0.005 C 
ENDBRANCH  25  26
ENDBRANCH  24  25
BRANCH  24  32
HETATM   32  C22 UNL     1      30.474  36.183  14.209  1.00  0.00     0.032 C 
BRANCH  32  33
HETATM   33  C23 UNL     1      30.785  37.604  14.518  1.00  0.00     0.016 C 
HETATM   34  C24 UNL     1      29.764  38.549  13.922  1.00  0.00     0.007 C 
HETATM   35  C25 UNL     1      28.345  38.248  14.100  1.00  0.00     0.000 C 
HETATM   36  C26 UNL     1      27.630  38.995  15.183  1.00  0.00     0.000 C 
HETATM   37  C27 UNL     1      28.392  40.085  15.842  1.00  0.00     0.000 C 
HETATM   38  C28 UNL     1      29.461  39.678  16.802  1.00  0.00     0.002 C 
HETATM   39  C29 UNL     1      29.821  38.235  16.786  1.00  0.00     0.032 C 
HETATM   40  C30 UNL     1      31.033  37.909  15.973  1.00  0.00     0.122 C 
BRANCH  40  41
HETATM   41  O5  UNL     1      31.928  39.001  16.098  1.00  0.00    -0.395 OA
ATOM     42  H5  UNL     1      31.683  39.696  15.498  1.00  0.00     0.210 HD
ENDBRANCH  40  41
ENDBRANCH  32  33
ENDBRANCH  24  32
ENDBRANCH   3  24
TORSDOF 14
ENDMDL
MODEL 4
REMARK VINA RESULT: -8.381442328      1.427      2.051
REMARK  14 active torsions:
REMARK  status: ('A' for Active; 'I' for Inactive)
REMARK       I    between atoms: C2_2  and  N1_4 
REMARK    1  A    between atoms: N1_4  and  C3_6 
REMARK    2  A    between atoms: C3_6  and  C4_7 
REMARK    3  A    between atoms: C4_7  and  C5_8 
REMARK    4  A    between atoms: C5_8  and  C6_9 
REMARK    5  A    between atoms: C6_9  and  C7_10 
REMARK    6  A    between atoms: C7_10  and  N2_11 
REMARK    7  A    between atoms: C7_10  and  C13_20 
REMARK       I    between atoms: N2_11  and  C8_13 
REMARK    8  A    between atoms: C8_13  and  C9_15 
REMARK       I    between atoms: C13_20  and  N3_22 
REMARK    9  A    between atoms: N3_22  and  C14_24 
REMARK   10  A    between atoms: C14_24  and  C15_25 
REMARK   11  A    between atoms: C14_24  and  C22_32 
REMARK   12  A    between atoms: C15_25  and  C16_26 
REMARK   13  A    between atoms: C22_32  and  C23_33 
REMARK   14  A    between atoms: C30_40  and  O5_41 
ROOT
HETATM    1  C13 UNL     1      30.979  33.557  13.070  1.00  0.00     0.264 C 
HETATM    2  O4  UNL     1      31.192  33.288  14.294  1.00  0.00    -0.266 OA
HETATM    3  N3  UNL     1      31.162  34.901  12.669  1.00  0.00    -0.351 N 
ATOM      4  H3  UNL     1      30.991  35.174  11.701  1.00  0.00     0.163 HD
ENDROOT
BRANCH   1   5
HETATM    5  C7  UNL     1      30.569  32.477  12.211  1.00  0.00     0.080 C 
BRANCH   5   6
HETATM    6  C6  UNL     1      29.797  31.359  12.845  1.00  0.00     0.063 C 
BRANCH   6   7
HETATM    7  C5  UNL     1      28.318  31.620  12.689  1.00  0.00     0.008 C 
BRANCH   7   8
HETATM    8  C4  UNL     1      27.518  30.325  12.605  1.00  0.00     0.020 C 
BRANCH   8   9
HETATM    9  C3  UNL     1      28.288  29.342  11.782  1.00  0.00     0.122 C 
BRANCH   9  10
HETATM   10  N1  UNL     1      27.719  29.185  10.470  1.00  0.00    -0.361 N 
HETATM   11  C2  UNL     1      28.378  29.739   9.317  1.00  0.00     0.213 C 
HETATM   12  C1  UNL     1      27.811  29.587   7.953  1.00  0.00     0.117 C 
HETATM   13  O1  UNL     1      29.445  30.354   9.506  1.00  0.00    -0.274 OA
ATOM     14  H1  UNL     1      26.843  28.676  10.355  1.00  0.00     0.162 HD
ENDBRANCH   9  10
ENDBRANCH   8   9
ENDBRANCH   7   8
ENDBRANCH   6   7
ENDBRANCH   5   6
BRANCH   5  15
HETATM   15  N2  UNL     1      31.499  32.115  11.192  1.00  0.00    -0.324 N 
HETATM   16  C8  UNL     1      32.712  31.432  11.266  1.00  0.00     0.251 C 
HETATM   17  O2  UNL     1      33.204  31.018  12.328  1.00  0.00    -0.270 OA
ATOM     18  H2  UNL     1      31.232  32.404  10.252  1.00  0.00     0.169 HD
BRANCH  16  19
HETATM   19  C9  UNL     1      33.498  31.164  10.008  1.00  0.00     0.213 C 
HETATM   20  C10 UNL     1      34.500  30.073  10.301  1.00  0.00     0.044 C 
HETATM   21  C11 UNL     1      33.763  28.857   9.811  1.00  0.00     0.029 C 
HETATM   22  C12 UNL     1      32.764  29.402   8.815  1.00  0.00     0.168 C 
HETATM   23  O3  UNL     1      32.696  30.763   8.975  1.00  0.00    -0.376 OA
ENDBRANCH  16  19
ENDBRANCH   5  15
ENDBRANCH   1   5
BRANCH   3  24
HETATM   24  C14 UNL     1      31.602  35.903  13.654  1.00  0.00     0.085 C 
BRANCH  24  25
HETATM   25  C15 UNL     1      33.001  36.235  13.654  1.00  0.00     0.029 C 
BRANCH  25  26
HETATM   26  C16 UNL     1      34.111  35.375  14.025  1.00  0.00    -0.013 C 
HETATM   27  C17 UNL     1      34.145  34.633  15.294  1.00  0.00     0.005 C 
HETATM   28  C18 UNL     1      35.501  33.911  15.405  1.00  0.00     0.000 C 
HETATM   29  C19 UNL     1      36.677  34.804  15.333  1.00  0.00     0.000 C 
HETATM   30  C20 UNL     1      36.618  35.569  14.009  1.00  0.00     0.000 C 
HETATM   31  C21 UNL     1      35.342  36.332  14.039  1.00  0.00     0.005 C 
ENDBRANCH  25  26
ENDBRANCH  24  25
BRANCH  24  32
HETATM   32  C22 UNL     1      30.621  37.045  13.501  1.00  0.00     0.032 C 
BRANCH  32  33
HETATM   33  C23 UNL     1      29.745  37.301  14.676  1.00  0.00     0.016 C 
HETATM   34  C24 UNL     1      30.526  37.830  15.859  1.00  0.00     0.007 C 
HETATM   35  C25 UNL     1      31.478  38.917  15.639  1.00  0.00     0.000 C 
HETATM   36  C26 UNL     1      31.018  40.297  15.994  1.00  0.00     0.000 C 
HETATM   37  C27 UNL     1      29.712  40.392  16.694  1.00  0.00     0.000 C 
HETATM   38  C28 UNL     1      28.486  40.174  15.870  1.00  0.00     0.002 C 
HETATM   39  C29 UNL     1      28.719  39.622  14.509  1.00  0.00     0.032 C 
HETATM   40  C30 UNL     1      28.526  38.143  14.401  1.00  0.00     0.122 C 
BRANCH  40  41
HETATM   41  O5  UNL     1      27.479  37.790  15.287  1.00  0.00    -0.395 OA
ATOM     42  H5  UNL     1      27.032  37.012  14.974  1.00  0.00     0.210 HD
ENDBRANCH  40  41
ENDBRANCH  32  33
ENDBRANCH  24  32
ENDBRANCH   3  24
TORSDOF 14
ENDMDL
MODEL 5
REMARK VINA RESULT: -8.278193008      2.935      5.997
REMARK  14 active torsions:
REMARK  status: ('A' for Active; 'I' for Inactive)
REMARK       I    between atoms: C2_2  and  N1_4 
REMARK    1  A    between atoms: N1_4  and  C3_6 
REMARK    2  A    between atoms: C3_6  and  C4_7 
REMARK    3  A    between atoms: C4_7  and  C5_8 
REMARK    4  A    between atoms: C5_8  and  C6_9 
REMARK    5  A    between atoms: C6_9  and  C7_10 
REMARK    6  A    between atoms: C7_10  and  N2_11 
REMARK    7  A    between atoms: C7_10  and  C13_20 
REMARK       I    between atoms: N2_11  and  C8_13 
REMARK    8  A    between atoms: C8_13  and  C9_15 
REMARK       I    between atoms: C13_20  and  N3_22 
REMARK    9  A    between atoms: N3_22  and  C14_24 
REMARK   10  A    between atoms: C14_24  and  C15_25 
REMARK   11  A    between atoms: C14_24  and  C22_32 
REMARK   12  A    between atoms: C15_25  and  C16_26 
REMARK   13  A    between atoms: C22_32  and  C23_33 
REMARK   14  A    between atoms: C30_40  and  O5_41 
ROOT
HETATM    1  C13 UNL     1      31.891  30.805  10.429  1.00  0.00     0.264 C 
HETATM    2  O4  UNL     1      31.859  32.028  10.086  1.00  0.00    -0.266 OA
HETATM    3  N3  UNL     1      31.327  30.477  11.684  1.00  0.00    -0.351 N 
ATOM      4  H3  UNL     1      31.339  29.512  12.013  1.00  0.00     0.163 HD
ENDROOT
BRANCH   1   5
HETATM    5  C7  UNL     1      32.497  29.872   9.515  1.00  0.00     0.080 C 
BRANCH   5   6
HETATM    6  C6  UNL     1      31.954  28.474   9.510  1.00  0.00     0.063 C 
BRANCH   6   7
HETATM    7  C5  UNL     1      30.561  28.482   8.927  1.00  0.00     0.008 C 
BRANCH   7   8
HETATM    8  C4  UNL     1      29.912  27.103   8.990  1.00  0.00     0.020 C 
BRANCH   8   9
HETATM    9  C3  UNL     1      30.679  26.259   9.955  1.00  0.00     0.122 C 
BRANCH   9  10
HETATM   10  N1  UNL     1      29.966  26.081  11.192  1.00  0.00    -0.361 N 
HETATM   11  C2  UNL     1      29.949  24.800  11.848  1.00  0.00     0.213 C 
HETATM   12  C1  UNL     1      29.222  24.594  13.126  1.00  0.00     0.117 C 
HETATM   13  O1  UNL     1      30.568  23.867  11.302  1.00  0.00    -0.274 OA
ATOM     14  H1  UNL     1      29.469  26.869  11.607  1.00  0.00     0.162 HD
ENDBRANCH   9  10
ENDBRANCH   8   9
ENDBRANCH   7   8
ENDBRANCH   6   7
ENDBRANCH   5   6
BRANCH   5  15
HETATM   15  N2  UNL     1      33.906  30.011   9.339  1.00  0.00    -0.324 N 
HETATM   16  C8  UNL     1      34.645  30.535   8.280  1.00  0.00     0.251 C 
HETATM   17  O2  UNL     1      34.135  30.981   7.240  1.00  0.00    -0.270 OA
ATOM     18  H2  UNL     1      34.466  29.670  10.120  1.00  0.00     0.169 HD
BRANCH  16  19
HETATM   19  C9  UNL     1      36.149  30.578   8.366  1.00  0.00     0.213 C 
HETATM   20  C10 UNL     1      36.584  32.023   8.330  1.00  0.00     0.044 C 
HETATM   21  C11 UNL     1      36.733  32.322   9.796  1.00  0.00     0.029 C 
HETATM   22  C12 UNL     1      36.949  30.968  10.433  1.00  0.00     0.168 C 
HETATM   23  O3  UNL     1      36.616  30.003   9.516  1.00  0.00    -0.376 OA
ENDBRANCH  16  19
ENDBRANCH   5  15
ENDBRANCH   1   5
BRANCH   3  24
HETATM   24  C14 UNL     1      30.724  31.534  12.511  1.00  0.00     0.085 C 
BRANCH  24  25
HETATM   25  C15 UNL     1      29.324  31.397  12.811  1.00  0.00     0.029 C 
BRANCH  25  26
HETATM   26  C16 UNL     1      28.278  30.910  11.930  1.00  0.00    -0.013 C 
HETATM   27  C17 UNL     1      28.207  29.509  11.487  1.00  0.00     0.005 C 
HETATM   28  C18 UNL     1      27.044  29.369  10.488  1.00  0.00     0.000 C 
HETATM   29  C19 UNL     1      27.145  30.248   9.304  1.00  0.00     0.000 C 
HETATM   30  C20 UNL     1      27.223  31.697   9.788  1.00  0.00     0.000 C 
HETATM   31  C21 UNL     1      28.437  31.773  10.641  1.00  0.00     0.005 C 
ENDBRANCH  25  26
ENDBRANCH  24  25
BRANCH  24  32
HETATM   32  C22 UNL     1      31.669  31.688  13.683  1.00  0.00     0.032 C 
BRANCH  32  33
HETATM   33  C23 UNL     1      31.663  33.023  14.341  1.00  0.00     0.016 C 
HETATM   34  C24 UNL     1      33.061  33.485  14.693  1.00  0.00     0.007 C 
HETATM   35  C25 UNL     1      34.109  33.378  13.679  1.00  0.00     0.000 C 
HETATM   36  C26 UNL     1      34.449  34.629  12.930  1.00  0.00     0.000 C 
HETATM   37  C27 UNL     1      33.812  35.879  13.415  1.00  0.00     0.000 C 
HETATM   38  C28 UNL     1      32.364  36.064  13.104  1.00  0.00     0.002 C 
HETATM   39  C29 UNL     1      31.661  34.861  12.583  1.00  0.00     0.032 C 
HETATM   40  C30 UNL     1      30.895  34.097  13.616  1.00  0.00     0.122 C 
BRANCH  40  41
HETATM   41  O5  UNL     1      30.382  35.039  14.541  1.00  0.00    -0.395 OA
ATOM     42  H5  UNL     1      30.062  34.596  15.318  1.00  0.00     0.210 HD
ENDBRANCH  40  41
ENDBRANCH  32  33
ENDBRANCH  24  32
ENDBRANCH   3  24
TORSDOF 14
ENDMDL
