MODEL 1
REMARK VINA RESULT: -7.806152035      0.000      0.000
REMARK  14 active torsions:
REMARK  status: ('A' for Active; 'I' for Inactive)
REMARK    1  A    between atoms: C2_2  and  N1_3 
REMARK       I    between atoms: N1_3  and  C3_5 
REMARK    2  A    between atoms: C3_5  and  S1_7 
REMARK    3  A    between atoms: S1_7  and  N2_10 
REMARK    4  A    between atoms: N2_10  and  C4_12 
REMARK    5  A    between atoms: C4_12  and  C5_13 
REMARK    6  A    between atoms: C4_12  and  C9_21 
REMARK    7  A    between atoms: C5_13  and  C6_14 
REMARK    8  A    between atoms: C6_14  and  C7_15 
REMARK    9  A    between atoms: C7_15  and  C8_16 
REMARK   10  A    between atoms: C8_16  and  N3_17 
REMARK       I    between atoms: C9_21  and  N4_23 
REMARK   11  A    between atoms: N4_23  and  C10_25 
REMARK   12  A    between atoms: C10_25  and  C11_26 
REMARK   13  A    between atoms: C11_26  and  C12_27 
REMARK   14  A    between atoms: C12_27  and  C13_28 
ROOT
HETATM    1  C9  UNL     1      30.181  30.189  10.728  1.00  0.00     0.241 C 
HETATM    2  O4  UNL     1      31.011  30.526   9.842  1.00  0.00    -0.271 OA
HETATM    3  N4  UNL     1      30.215  30.770  12.033  1.00  0.00    -0.359 N 
ATOM      4  H4  UNL     1      29.538  30.497  12.745  1.00  0.00     0.162 HD
ENDROOT
BRANCH   1   5
HETATM    5  C4  UNL     1      29.157  29.172  10.384  1.00  0.00     0.185 C 
BRANCH   5   6
HETATM    6  N2  UNL     1      29.264  27.995  11.229  1.00  0.00    -0.298 N 
ATOM      7  H2  UNL     1      28.965  27.938  12.202  1.00  0.00     0.173 HD
BRANCH   6   8
HETATM    8  S1  UNL     1      29.983  26.694  10.317  1.00  0.00     0.314 S 
HETATM    9  O2  UNL     1      31.425  27.006  10.020  1.00  0.00    -0.196 OA
HETATM   10  O3  UNL     1      29.278  26.630   8.984  1.00  0.00    -0.196 OA
BRANCH   8  11
HETATM   11  C3  UNL     1      29.888  25.201  11.181  1.00  0.00     0.356 C 
HETATM   12  N1  UNL     1      29.382  25.080  12.517  1.00  0.00    -0.347 N 
ATOM     13  H1  UNL     1      29.053  25.918  12.997  1.00  0.00     0.163 HD
HETATM   14  O1  UNL     1      30.276  24.099  10.654  1.00  0.00    -0.253 OA
BRANCH  12  15
HETATM   15  C2  UNL     1      29.322  23.820  13.203  1.00  0.00     0.119 C 
HETATM   16  C1  UNL     1      28.391  23.887  14.387  1.00  0.00     0.026 C 
ENDBRANCH  12  15
ENDBRANCH   8  11
ENDBRANCH   6   8
ENDBRANCH   5   6
BRANCH   5  17
HETATM   17  C5  UNL     1      27.779  29.770  10.655  1.00  0.00     0.035 C 
BRANCH  17  18
HETATM   18  C6  UNL     1      27.077  30.130   9.403  1.00  0.00     0.004 C 
BRANCH  18  19
HETATM   19  C7  UNL     1      27.277  29.238   8.240  1.00  0.00     0.027 C 
BRANCH  19  20
HETATM   20  C8  UNL     1      28.129  29.699   7.123  1.00  0.00     0.229 C 
BRANCH  20  21
HETATM   21  N3  UNL     1      29.506  29.294   7.163  1.00  0.00    -0.079 N 
ATOM     22  H33 UNL     1      29.997  29.816   7.889  1.00  0.00     0.274 HD
ATOM     23  H32 UNL     1      29.577  28.348   7.537  1.00  0.00     0.274 HD
ATOM     24  H31 UNL     1      30.022  29.356   6.286  1.00  0.00     0.274 HD
ENDBRANCH  20  21
ENDBRANCH  19  20
ENDBRANCH  18  19
ENDBRANCH  17  18
ENDBRANCH   5  17
ENDBRANCH   1   5
BRANCH   3  25
HETATM   25  C10 UNL     1      31.232  31.752  12.316  1.00  0.00     0.122 C 
BRANCH  25  26
HETATM   26  C11 UNL     1      30.701  32.708  13.404  1.00  0.00     0.020 C 
BRANCH  26  27
HETATM   27  C12 UNL     1      31.900  33.215  14.122  1.00  0.00     0.006 C 
BRANCH  27  28
HETATM   28  C13 UNL     1      32.214  34.672  13.939  1.00  0.00    -0.014 C 
HETATM   29  C14 UNL     1      33.183  34.729  12.759  1.00  0.00     0.004 C 
HETATM   30  C15 UNL     1      34.502  34.052  13.133  1.00  0.00     0.000 C 
HETATM   31  C16 UNL     1      35.698  34.884  12.721  1.00  0.00     0.000 C 
HETATM   32  C17 UNL     1      36.519  35.189  13.959  1.00  0.00     0.000 C 
HETATM   33  C18 UNL     1      36.141  36.494  14.587  1.00  0.00     0.000 C 
HETATM   34  C19 UNL     1      36.698  37.689  13.854  1.00  0.00     0.000 C 
HETATM   35  C20 UNL     1      36.151  38.930  14.523  1.00  0.00     0.000 C 
HETATM   36  C21 UNL     1      35.419  39.808  13.537  1.00  0.00     0.000 C 
HETATM   37  C22 UNL     1      34.346  39.081  12.789  1.00  0.00     0.000 C 
HETATM   38  C23 UNL     1      32.959  39.568  13.137  1.00  0.00     0.000 C 
HETATM   39  C24 UNL     1      32.307  38.656  14.152  1.00  0.00     0.000 C 
HETATM   40  C25 UNL     1      31.208  37.869  13.457  1.00  0.00     0.000 C 
HETATM   41  C26 UNL     1      30.818  36.725  14.369  1.00  0.00     0.000 C 
HETATM   42  C27 UNL     1      30.950  35.415  13.628  1.00  0.00     0.004 C 
ENDBRANCH  27  28
ENDBRANCH  26  27
ENDBRANCH  25  26
ENDBRANCH   3  25
TORSDOF 14
ENDMDL
MODEL 2
REMARK VINA RESULT: -7.741671578      2.233      5.222
REMARK  14 active torsions:
REMARK  status: ('A' for Active; 'I' for Inactive)
REMARK    1  A    between atoms: C2_2  and  N1_3 
REMARK       I    between atoms: N1_3  and  C3_5 
REMARK    2  A    between atoms: C3_5  and  S1_7 
REMARK    3  A    between atoms: S1_7  and  N2_10 
REMARK    4  A    between atoms: N2_10  and  C4_12 
REMARK    5  A    between atoms: C4_12  and  C5_13 
REMARK    6  A    between atoms: C4_12  and  C9_21 
REMARK    7  A    between atoms: C5_13  and  C6_14 
REMARK    8  A    between atoms: C6_14  and  C7_15 
REMARK    9  A    between atoms: C7_15  and  C8_16 
REMARK   10  A    between atoms: C8_16  and  N3_17 
REMARK       I    between atoms: C9_21  and  N4_23 
REMARK   11  A    between atoms: N4_23  and  C10_25 
REMARK   12  A    between atoms: C10_25  and  C11_26 
REMARK   13  A    between atoms: C11_26  and  C12_27 
REMARK   14  A    between atoms: C12_27  and  C13_28 
ROOT
HETATM    1  C9  UNL     1      29.361  29.064  10.398  1.00  0.00     0.241 C 
HETATM    2  O4  UNL     1      28.439  28.781  11.209  1.00  0.00    -0.271 OA
HETATM    3  N4  UNL     1      29.747  30.419  10.158  1.00  0.00    -0.359 N 
ATOM      4  H4  UNL     1      30.497  30.641   9.504  1.00  0.00     0.162 HD
ENDROOT
BRANCH   1   5
HETATM    5  C4  UNL     1      30.046  27.951   9.696  1.00  0.00     0.185 C 
BRANCH   5   6
HETATM    6  N2  UNL     1      31.456  27.885  10.040  1.00  0.00    -0.298 N 
ATOM      7  H2  UNL     1      31.829  27.623  10.952  1.00  0.00     0.173 HD
BRANCH   6   8
HETATM    8  S1  UNL     1      32.410  28.326   8.648  1.00  0.00     0.314 S 
HETATM    9  O2  UNL     1      31.522  28.491   7.444  1.00  0.00    -0.196 OA
HETATM   10  O3  UNL     1      33.330  27.169   8.343  1.00  0.00    -0.196 OA
BRANCH   8  11
HETATM   11  C3  UNL     1      33.275  29.796   8.926  1.00  0.00     0.356 C 
HETATM   12  N1  UNL     1      34.694  29.932   8.773  1.00  0.00    -0.347 N 
ATOM     13  H1  UNL     1      35.237  29.120   8.481  1.00  0.00     0.163 HD
HETATM   14  O1  UNL     1      32.671  30.865   9.293  1.00  0.00    -0.253 OA
BRANCH  12  15
HETATM   15  C2  UNL     1      35.376  31.171   9.017  1.00  0.00     0.119 C 
HETATM   16  C1  UNL     1      36.519  30.984   9.981  1.00  0.00     0.026 C 
ENDBRANCH  12  15
ENDBRANCH   8  11
ENDBRANCH   6   8
ENDBRANCH   5   6
BRANCH   5  17
HETATM   17  C5  UNL     1      29.430  26.636  10.167  1.00  0.00     0.035 C 
BRANCH  17  18
HETATM   18  C6  UNL     1      30.462  25.619  10.470  1.00  0.00     0.004 C 
BRANCH  18  19
HETATM   19  C7  UNL     1      30.075  24.522  11.384  1.00  0.00     0.027 C 
BRANCH  19  20
HETATM   20  C8  UNL     1      29.673  24.852  12.767  1.00  0.00     0.229 C 
BRANCH  20  21
HETATM   21  N3  UNL     1      29.649  23.761  13.701  1.00  0.00    -0.079 N 
ATOM     22  H33 UNL     1      29.310  22.918  13.237  1.00  0.00     0.274 HD
ATOM     23  H32 UNL     1      30.603  23.478  13.925  1.00  0.00     0.274 HD
ATOM     24  H31 UNL     1      29.125  23.914  14.563  1.00  0.00     0.274 HD
ENDBRANCH  20  21
ENDBRANCH  19  20
ENDBRANCH  18  19
ENDBRANCH  17  18
ENDBRANCH   5  17
ENDBRANCH   1   5
BRANCH   3  25
HETATM   25  C10 UNL     1      29.048  31.462  10.866  1.00  0.00     0.122 C 
BRANCH  25  26
HETATM   26  C11 UNL     1      29.973  32.691  10.968  1.00  0.00     0.020 C 
BRANCH  26  27
HETATM   27  C12 UNL     1      30.342  32.806  12.403  1.00  0.00     0.006 C 
BRANCH  27  28
HETATM   28  C13 UNL     1      31.680  33.421  12.695  1.00  0.00    -0.014 C 
HETATM   29  C14 UNL     1      31.514  34.124  14.042  1.00  0.00     0.004 C 
HETATM   30  C15 UNL     1      30.532  35.288  13.906  1.00  0.00     0.000 C 
HETATM   31  C16 UNL     1      31.051  36.545  14.571  1.00  0.00     0.000 C 
HETATM   32  C17 UNL     1      31.132  37.641  13.526  1.00  0.00     0.000 C 
HETATM   33  C18 UNL     1      32.481  37.721  12.884  1.00  0.00     0.000 C 
HETATM   34  C19 UNL     1      33.514  38.395  13.753  1.00  0.00     0.000 C 
HETATM   35  C20 UNL     1      34.841  38.306  13.036  1.00  0.00     0.000 C 
HETATM   36  C21 UNL     1      35.884  37.629  13.893  1.00  0.00     0.000 C 
HETATM   37  C22 UNL     1      35.451  36.288  14.393  1.00  0.00     0.000 C 
HETATM   38  C23 UNL     1      36.257  35.156  13.801  1.00  0.00     0.000 C 
HETATM   39  C24 UNL     1      35.519  34.514  12.647  1.00  0.00     0.000 C 
HETATM   40  C25 UNL     1      35.032  33.143  13.088  1.00  0.00     0.000 C 
HETATM   41  C26 UNL     1      34.007  32.676  12.078  1.00  0.00     0.000 C 
HETATM   42  C27 UNL     1      32.714  32.339  12.782  1.00  0.00     0.004 C 
ENDBRANCH  27  28
ENDBRANCH  26  27
ENDBRANCH  25  26
ENDBRANCH   3  25
TORSDOF 14
ENDMDL
MODEL 3
REMARK VINA RESULT: -7.717569133      2.518      3.882
REMARK  14 active torsions:
REMARK  status: ('A' for Active; 'I' for Inactive)
REMARK    1  A    between atoms: C2_2  and  N1_3 
REMARK       I    between atoms: N1_3  and  C3_5 
REMARK    2  A    between atoms: C3_5  and  S1_7 
REMARK    3  A    between atoms: S1_7  and  N2_10 
REMARK    4  A    between atoms: N2_10  and  C4_12 
REMARK    5  A    between atoms: C4_12  and  C5_13 
REMARK    6  A    between atoms: C4_12  and  C9_21 
REMARK    7  A    between atoms: C5_13  and  C6_14 
REMARK    8  A    between atoms: C6_14  and  C7_15 
REMARK    9  A    between atoms: C7_15  and  C8_16 
REMARK   10  A    between atoms: C8_16  and  N3_17 
REMARK       I    between atoms: C9_21  and  N4_23 
REMARK   11  A    between atoms: N4_23  and  C10_25 
REMARK   12  A    between atoms: C10_25  and  C11_26 
REMARK   13  A    between atoms: C11_26  and  C12_27 
REMARK   14  A    between atoms: C12_27  and  C13_28 
ROOT
HETATM    1  C9  UNL     1      31.981  30.867  11.204  1.00  0.00     0.241 C 
HETATM    2  O4  UNL     1      30.930  30.912  10.511  1.00  0.00    -0.271 OA
HETATM    3  N4  UNL     1      31.958  31.151  12.604  1.00  0.00    -0.359 N 
ATOM      4  H4  UNL     1      32.811  31.108  13.161  1.00  0.00     0.162 HD
ENDROOT
BRANCH   1   5
HETATM    5  C4  UNL     1      33.253  30.505  10.530  1.00  0.00     0.185 C 
BRANCH   5   6
HETATM    6  N2  UNL     1      33.037  30.117   9.147  1.00  0.00    -0.298 N 
ATOM      7  H2  UNL     1      32.802  30.754   8.386  1.00  0.00     0.173 HD
BRANCH   6   8
HETATM    8  S1  UNL     1      33.243  28.393   8.994  1.00  0.00     0.314 S 
HETATM    9  O2  UNL     1      34.470  27.949   9.744  1.00  0.00    -0.196 OA
HETATM   10  O3  UNL     1      33.503  28.093   7.538  1.00  0.00    -0.196 OA
BRANCH   8  11
HETATM   11  C3  UNL     1      31.864  27.545   9.601  1.00  0.00     0.356 C 
HETATM   12  N1  UNL     1      30.533  28.076   9.599  1.00  0.00    -0.347 N 
ATOM     13  H1  UNL     1      30.376  29.009   9.218  1.00  0.00     0.163 HD
HETATM   14  O1  UNL     1      31.970  26.367  10.095  1.00  0.00    -0.253 OA
BRANCH  12  15
HETATM   15  C2  UNL     1      29.413  27.341  10.116  1.00  0.00     0.119 C 
HETATM   16  C1  UNL     1      28.565  28.200  11.018  1.00  0.00     0.026 C 
ENDBRANCH  12  15
ENDBRANCH   8  11
ENDBRANCH   6   8
ENDBRANCH   5   6
BRANCH   5  17
HETATM   17  C5  UNL     1      34.144  31.745  10.493  1.00  0.00     0.035 C 
BRANCH  17  18
HETATM   18  C6  UNL     1      35.540  31.433  10.871  1.00  0.00     0.004 C 
BRANCH  18  19
HETATM   19  C7  UNL     1      36.574  31.618   9.830  1.00  0.00     0.027 C 
BRANCH  19  20
HETATM   20  C8  UNL     1      36.719  30.595   8.774  1.00  0.00     0.229 C 
BRANCH  20  21
HETATM   21  N3  UNL     1      36.963  29.251   9.218  1.00  0.00    -0.079 N 
ATOM     22  H33 UNL     1      37.966  29.064   9.218  1.00  0.00     0.274 HD
ATOM     23  H32 UNL     1      36.761  29.175  10.215  1.00  0.00     0.274 HD
ATOM     24  H31 UNL     1      36.475  28.511   8.712  1.00  0.00     0.274 HD
ENDBRANCH  20  21
ENDBRANCH  19  20
ENDBRANCH  18  19
ENDBRANCH  17  18
ENDBRANCH   5  17
ENDBRANCH   1   5
BRANCH   3  25
HETATM   25  C10 UNL     1      30.696  31.499  13.209  1.00  0.00     0.122 C 
BRANCH  25  26
HETATM   26  C11 UNL     1      30.586  33.036  13.265  1.00  0.00     0.020 C 
BRANCH  26  27
HETATM   27  C12 UNL     1      31.740  33.499  14.079  1.00  0.00     0.006 C 
BRANCH  27  28
HETATM   28  C13 UNL     1      32.171  34.921  13.867  1.00  0.00    -0.014 C 
HETATM   29  C14 UNL     1      33.206  34.865  12.744  1.00  0.00     0.004 C 
HETATM   30  C15 UNL     1      34.449  34.109  13.216  1.00  0.00     0.000 C 
HETATM   31  C16 UNL     1      35.724  34.837  12.848  1.00  0.00     0.000 C 
HETATM   32  C17 UNL     1      36.494  35.129  14.122  1.00  0.00     0.000 C 
HETATM   33  C18 UNL     1      36.180  36.479  14.683  1.00  0.00     0.000 C 
HETATM   34  C19 UNL     1      36.863  37.604  13.945  1.00  0.00     0.000 C 
HETATM   35  C20 UNL     1      36.373  38.904  14.540  1.00  0.00     0.000 C 
HETATM   36  C21 UNL     1      35.764  39.795  13.484  1.00  0.00     0.000 C 
HETATM   37  C22 UNL     1      34.684  39.121  12.698  1.00  0.00     0.000 C 
HETATM   38  C23 UNL     1      33.320  39.718  12.948  1.00  0.00     0.000 C 
HETATM   39  C24 UNL     1      32.546  38.894  13.953  1.00  0.00     0.000 C 
HETATM   40  C25 UNL     1      31.432  38.162  13.221  1.00  0.00     0.000 C 
HETATM   41  C26 UNL     1      30.909  37.085  14.146  1.00  0.00     0.000 C 
HETATM   42  C27 UNL     1      30.985  35.742  13.458  1.00  0.00     0.004 C 
ENDBRANCH  27  28
ENDBRANCH  26  27
ENDBRANCH  25  26
ENDBRANCH   3  25
TORSDOF 14
ENDMDL
MODEL 4
REMARK VINA RESULT: -7.705149171      3.302      5.764
REMARK  14 active torsions:
REMARK  status: ('A' for Active; 'I' for Inactive)
REMARK    1  A    between atoms: C2_2  and  N1_3 
REMARK       I    between atoms: N1_3  and  C3_5 
REMARK    2  A    between atoms: C3_5  and  S1_7 
REMARK    3  A    between atoms: S1_7  and  N2_10 
REMARK    4  A    between atoms: N2_10  and  C4_12 
REMARK    5  A    between atoms: C4_12  and  C5_13 
REMARK    6  A    between atoms: C4_12  and  C9_21 
REMARK    7  A    between atoms: C5_13  and  C6_14 
REMARK    8  A    between atoms: C6_14  and  C7_15 
REMARK    9  A    between atoms: C7_15  and  C8_16 
REMARK   10  A    between atoms: C8_16  and  N3_17 
REMARK       I    between atoms: C9_21  and  N4_23 
REMARK   11  A    between atoms: N4_23  and  C10_25 
REMARK   12  A    between atoms: C10_25  and  C11_26 
REMARK   13  A    between atoms: C11_26  and  C12_27 
REMARK   14  A    between atoms: C12_27  and  C13_28 
ROOT
HETATM    1  C9  UNL     1      33.075  32.559  12.858  1.00  0.00     0.241 C 
HETATM    2  O4  UNL     1      34.315  32.368  12.745  1.00  0.00    -0.271 OA
HETATM    3  N4  UNL     1      32.560  33.622  13.663  1.00  0.00    -0.359 N 
ATOM      4  H4  UNL     1      31.556  33.775  13.748  1.00  0.00     0.162 HD
ENDROOT
BRANCH   1   5
HETATM    5  C4  UNL     1      32.153  31.653  12.130  1.00  0.00     0.185 C 
BRANCH   5   6
HETATM    6  N2  UNL     1      32.767  30.363  11.865  1.00  0.00    -0.298 N 
ATOM      7  H2  UNL     1      33.185  29.753  12.567  1.00  0.00     0.173 HD
BRANCH   6   8
HETATM    8  S1  UNL     1      32.676  30.023  10.157  1.00  0.00     0.314 S 
HETATM    9  O2  UNL     1      33.135  31.218   9.366  1.00  0.00    -0.196 OA
HETATM   10  O3  UNL     1      31.221  29.817   9.811  1.00  0.00    -0.196 OA
BRANCH   8  11
HETATM   11  C3  UNL     1      33.648  28.655   9.743  1.00  0.00     0.356 C 
HETATM   12  N1  UNL     1      35.031  28.737   9.376  1.00  0.00    -0.347 N 
ATOM     13  H1  UNL     1      35.481  29.652   9.356  1.00  0.00     0.163 HD
HETATM   14  O1  UNL     1      33.164  27.468   9.744  1.00  0.00    -0.253 OA
BRANCH  12  15
HETATM   15  C2  UNL     1      35.805  27.577   9.035  1.00  0.00     0.119 C 
HETATM   16  C1  UNL     1      36.454  27.731   7.684  1.00  0.00     0.026 C 
ENDBRANCH  12  15
ENDBRANCH   8  11
ENDBRANCH   6   8
ENDBRANCH   5   6
BRANCH   5  17
HETATM   17  C5  UNL     1      30.947  31.377  13.025  1.00  0.00     0.035 C 
BRANCH  17  18
HETATM   18  C6  UNL     1      29.675  31.752  12.369  1.00  0.00     0.004 C 
BRANCH  18  19
HETATM   19  C7  UNL     1      28.497  30.906  12.656  1.00  0.00     0.027 C 
BRANCH  19  20
HETATM   20  C8  UNL     1      28.077  29.900  11.657  1.00  0.00     0.229 C 
BRANCH  20  21
HETATM   21  N3  UNL     1      28.899  28.727  11.550  1.00  0.00    -0.079 N 
ATOM     22  H33 UNL     1      29.553  28.834  10.775  1.00  0.00     0.274 HD
ATOM     23  H32 UNL     1      29.548  28.688  12.336  1.00  0.00     0.274 HD
ATOM     24  H31 UNL     1      28.408  27.837  11.466  1.00  0.00     0.274 HD
ENDBRANCH  20  21
ENDBRANCH  19  20
ENDBRANCH  18  19
ENDBRANCH  17  18
ENDBRANCH   5  17
ENDBRANCH   1   5
BRANCH   3  25
HETATM   25  C10 UNL     1      33.499  34.473  14.350  1.00  0.00     0.122 C 
BRANCH  25  26
HETATM   26  C11 UNL     1      33.637  35.791  13.561  1.00  0.00     0.020 C 
BRANCH  26  27
HETATM   27  C12 UNL     1      32.250  36.226  13.248  1.00  0.00     0.006 C 
BRANCH  27  28
HETATM   28  C13 UNL     1      31.951  37.683  13.453  1.00  0.00    -0.014 C 
HETATM   29  C14 UNL     1      31.464  37.793  14.898  1.00  0.00     0.004 C 
HETATM   30  C15 UNL     1      30.132  37.058  15.057  1.00  0.00     0.000 C 
HETATM   31  C16 UNL     1      29.122  37.884  15.825  1.00  0.00     0.000 C 
HETATM   32  C17 UNL     1      27.901  38.084  14.947  1.00  0.00     0.000 C 
HETATM   33  C18 UNL     1      27.967  39.353  14.158  1.00  0.00     0.000 C 
HETATM   34  C19 UNL     1      27.650  40.580  14.977  1.00  0.00     0.000 C 
HETATM   35  C20 UNL     1      27.862  41.787  14.092  1.00  0.00     0.000 C 
HETATM   36  C21 UNL     1      28.854  42.748  14.703  1.00  0.00     0.000 C 
HETATM   37  C22 UNL     1      30.156  42.102  15.055  1.00  0.00     0.000 C 
HETATM   38  C23 UNL     1      31.304  42.600  14.208  1.00  0.00     0.000 C 
HETATM   39  C24 UNL     1      31.596  41.640  13.077  1.00  0.00     0.000 C 
HETATM   40  C25 UNL     1      32.907  40.930  13.373  1.00  0.00     0.000 C 
HETATM   41  C26 UNL     1      33.002  39.739  12.444  1.00  0.00     0.000 C 
HETATM   42  C27 UNL     1      33.206  38.479  13.251  1.00  0.00     0.004 C 
ENDBRANCH  27  28
ENDBRANCH  26  27
ENDBRANCH  25  26
ENDBRANCH   3  25
TORSDOF 14
ENDMDL
MODEL 5
REMARK VINA RESULT: -7.698303231      1.277      3.224
REMARK  14 active torsions:
REMARK  status: ('A' for Active; 'I' for Inactive)
REMARK    1  A    between atoms: C2_2  and  N1_3 
REMARK       I    between atoms: N1_3  and  C3_5 
REMARK    2  A    between atoms: C3_5  and  S1_7 
REMARK    3  A    between atoms: S1_7  and  N2_10 
REMARK    4  A    between atoms: N2_10  and  C4_12 
REMARK    5  A    between atoms: C4_12  and  C5_13 
REMARK    6  A    between atoms: C4_12  and  C9_21 
REMARK    7  A    between atoms: C5_13  and  C6_14 
REMARK    8  A    between atoms: C6_14  and  C7_15 
REMARK    9  A    between atoms: C7_15  and  C8_16 
REMARK   10  A    between atoms: C8_16  and  N3_17 
REMARK       I    between atoms: C9_21  and  N4_23 
REMARK   11  A    between atoms: N4_23  and  C10_25 
REMARK   12  A    between atoms: C10_25  and  C11_26 
REMARK   13  A    between atoms: C11_26  and  C12_27 
REMARK   14  A    between atoms: C12_27  and  C13_28 
ROOT
HETATM    1  C9  UNL     1      31.293  29.847   9.865  1.00  0.00     0.241 C 
HETATM    2  O4  UNL     1      32.212  30.026   9.022  1.00  0.00    -0.271 OA
HETATM    3  N4  UNL     1      31.297  30.527  11.121  1.00  0.00    -0.359 N 
ATOM      4  H4  UNL     1      30.548  30.382  11.798  1.00  0.00     0.162 HD
ENDROOT
BRANCH   1   5
HETATM    5  C4  UNL     1      30.194  28.911   9.520  1.00  0.00     0.185 C 
BRANCH   5   6
HETATM    6  N2  UNL     1      30.052  27.861  10.514  1.00  0.00    -0.298 N 
ATOM      7  H2  UNL     1      29.556  27.951  11.401  1.00  0.00     0.173 HD
BRANCH   6   8
HETATM    8  S1  UNL     1      30.861  26.422   9.951  1.00  0.00     0.314 S 
HETATM    9  O2  UNL     1      32.353  26.601  10.035  1.00  0.00    -0.196 OA
HETATM   10  O3  UNL     1      30.533  26.259   8.487  1.00  0.00    -0.196 OA
BRANCH   8  11
HETATM   11  C3  UNL     1      30.397  25.043  10.884  1.00  0.00     0.356 C 
HETATM   12  N1  UNL     1      29.737  25.120  12.154  1.00  0.00    -0.347 N 
ATOM     13  H1  UNL     1      29.521  26.038  12.541  1.00  0.00     0.163 HD
HETATM   14  O1  UNL     1      30.628  23.851  10.472  1.00  0.00    -0.253 OA
BRANCH  12  15
HETATM   15  C2  UNL     1      29.371  23.949  12.900  1.00  0.00     0.119 C 
HETATM   16  C1  UNL     1      28.514  24.305  14.088  1.00  0.00     0.026 C 
ENDBRANCH  12  15
ENDBRANCH   8  11
ENDBRANCH   6   8
ENDBRANCH   5   6
BRANCH   5  17
HETATM   17  C5  UNL     1      28.881  29.690   9.530  1.00  0.00     0.035 C 
BRANCH  17  18
HETATM   18  C6  UNL     1      27.949  29.188  10.564  1.00  0.00     0.004 C 
BRANCH  18  19
HETATM   19  C7  UNL     1      27.486  30.161  11.578  1.00  0.00     0.027 C 
BRANCH  19  20
HETATM   20  C8  UNL     1      28.331  30.416  12.764  1.00  0.00     0.229 C 
BRANCH  20  21
HETATM   21  N3  UNL     1      28.545  31.794  13.109  1.00  0.00    -0.079 N 
ATOM     22  H33 UNL     1      29.032  31.853  14.003  1.00  0.00     0.274 HD
ATOM     23  H32 UNL     1      29.247  32.199  12.489  1.00  0.00     0.274 HD
ATOM     24  H31 UNL     1      27.718  32.389  13.126  1.00  0.00     0.274 HD
ENDBRANCH  20  21
ENDBRANCH  19  20
ENDBRANCH  18  19
ENDBRANCH  17  18
ENDBRANCH   5  17
ENDBRANCH   1   5
BRANCH   3  25
HETATM   25  C10 UNL     1      32.389  31.425  11.407  1.00  0.00     0.122 C 
BRANCH  25  26
HETATM   26  C11 UNL     1      31.819  32.845  11.600  1.00  0.00     0.020 C 
BRANCH  26  27
HETATM   27  C12 UNL     1      32.205  33.256  12.975  1.00  0.00     0.006 C 
BRANCH  27  28
HETATM   28  C13 UNL     1      33.231  34.348  13.075  1.00  0.00    -0.014 C 
HETATM   29  C14 UNL     1      32.833  35.162  14.306  1.00  0.00     0.004 C 
HETATM   30  C15 UNL     1      31.493  35.857  14.062  1.00  0.00     0.000 C 
HETATM   31  C16 UNL     1      31.526  37.309  14.488  1.00  0.00     0.000 C 
HETATM   32  C17 UNL     1      31.193  38.170  13.284  1.00  0.00     0.000 C 
HETATM   33  C18 UNL     1      32.416  38.616  12.546  1.00  0.00     0.000 C 
HETATM   34  C19 UNL     1      33.141  39.750  13.227  1.00  0.00     0.000 C 
HETATM   35  C20 UNL     1      34.403  40.022  12.442  1.00  0.00     0.000 C 
HETATM   36  C21 UNL     1      35.628  39.916  13.318  1.00  0.00     0.000 C 
HETATM   37  C22 UNL     1      35.717  38.613  14.047  1.00  0.00     0.000 C 
HETATM   38  C23 UNL     1      36.874  37.761  13.581  1.00  0.00     0.000 C 
HETATM   39  C24 UNL     1      36.409  36.714  12.594  1.00  0.00     0.000 C 
HETATM   40  C25 UNL     1      36.458  35.354  13.272  1.00  0.00     0.000 C 
HETATM   41  C26 UNL     1      35.664  34.389  12.419  1.00  0.00     0.000 C 
HETATM   42  C27 UNL     1      34.588  33.737  13.256  1.00  0.00     0.004 C 
ENDBRANCH  27  28
ENDBRANCH  26  27
ENDBRANCH  25  26
ENDBRANCH   3  25
TORSDOF 14
ENDMDL
