MODEL 1
REMARK VINA RESULT: -7.506472369      0.000      0.000
REMARK  13 active torsions:
REMARK  status: ('A' for Active; 'I' for Inactive)
REMARK    1  A    between atoms: C2_2  and  N1_3 
REMARK    2  A    between atoms: N1_3  and  C3_4 
REMARK       I    between atoms: N1_3  and  C5_6 
REMARK       I    between atoms: C5_6  and  N2_8 
REMARK    3  A    between atoms: N2_8  and  C6_10 
REMARK    4  A    between atoms: C7_11  and  C8_12 
REMARK    5  A    between atoms: C8_12  and  C9_13 
REMARK    6  A    between atoms: C9_13  and  C10_14 
REMARK    7  A    between atoms: C10_14  and  C11_15 
REMARK    8  A    between atoms: C11_15  and  C12_16 
REMARK    9  A    between atoms: C12_16  and  N3_17 
REMARK       I    between atoms: N3_17  and  C13_19 
REMARK   10  A    between atoms: C13_19  and  C14_21 
REMARK   11  A    between atoms: C27_35  and  O3_36 
REMARK   12  A    between atoms: C28_38  and  C30_40 
REMARK   13  A    between atoms: C30_40  and  O4_41 
ROOT
HETATM    1  C14 UNL     1      32.311  28.815   7.313  1.00  0.00     0.093 C 
HETATM    2  N4  UNL     1      33.089  28.728   6.134  1.00  0.00    -0.351 N 
HETATM    3  C15 UNL     1      32.990  29.960   5.381  1.00  0.00     0.129 C 
HETATM    4  C16 UNL     1      33.535  31.194   5.931  1.00  0.00     0.020 C 
HETATM    5  C17 UNL     1      34.993  31.450   5.918  1.00  0.00     0.002 C 
HETATM    6  C18 UNL     1      35.908  30.518   6.609  1.00  0.00     0.001 C 
HETATM    7  C19 UNL     1      35.400  29.679   7.719  1.00  0.00     0.018 C 
HETATM    8  C20 UNL     1      35.041  28.243   7.409  1.00  0.00     0.026 C 
HETATM    9  C21 UNL     1      36.326  27.414   7.461  1.00  0.00     0.018 C 
HETATM   10  C22 UNL     1      36.967  27.115   6.189  1.00  0.00     0.002 C 
HETATM   11  C23 UNL     1      36.149  26.916   4.985  1.00  0.00     0.010 C 
HETATM   12  C24 UNL     1      34.632  26.956   5.259  1.00  0.00     0.028 C 
HETATM   13  C25 UNL     1      34.292  25.607   5.691  1.00  0.00     0.016 C 
HETATM   14  C26 UNL     1      34.353  28.151   6.070  1.00  0.00     0.004 C 
HETATM   15  C27 UNL     1      34.182  27.695   8.513  1.00  0.00     0.148 C 
HETATM   16  C28 UNL     1      32.745  28.172   8.556  1.00  0.00     0.052 C 
HETATM   17  C29 UNL     1      32.694  29.175   9.719  1.00  0.00     0.027 C 
ENDROOT
BRANCH   1  18
HETATM   18  C13 UNL     1      30.886  28.626   6.914  1.00  0.00     0.265 C 
HETATM   19  N3  UNL     1      29.836  29.404   7.464  1.00  0.00    -0.356 N 
ATOM     20  H3  UNL     1      30.089  30.116   8.149  1.00  0.00     0.162 HD
HETATM   21  O2  UNL     1      30.550  27.761   6.059  1.00  0.00    -0.266 OA
BRANCH  19  22
HETATM   22  C12 UNL     1      28.455  29.271   7.136  1.00  0.00     0.123 C 
BRANCH  22  23
HETATM   23  C11 UNL     1      27.502  29.310   8.281  1.00  0.00     0.020 C 
BRANCH  23  24
HETATM   24  C10 UNL     1      28.073  29.949   9.497  1.00  0.00     0.002 C 
BRANCH  24  25
HETATM   25  C9  UNL     1      27.539  31.342   9.791  1.00  0.00     0.004 C 
BRANCH  25  26
HETATM   26  C8  UNL     1      28.296  32.033  10.851  1.00  0.00     0.028 C 
BRANCH  26  27
HETATM   27  C7  UNL     1      28.567  31.387  12.112  1.00  0.00    -0.009 C 
HETATM   28  C6  UNL     1      29.823  31.228  12.776  1.00  0.00     0.088 C 
BRANCH  28  29
HETATM   29  N2  UNL     1      30.766  32.188  13.124  1.00  0.00    -0.319 N 
HETATM   30  C5  UNL     1      32.173  32.194  13.062  1.00  0.00     0.322 C 
HETATM   31  N1  UNL     1      32.984  33.293  13.434  1.00  0.00    -0.335 N 
HETATM   32  O1  UNL     1      32.779  31.173  12.654  1.00  0.00    -0.247 OA
ATOM     33  H2  UNL     1      30.364  33.049  13.494  1.00  0.00     0.169 HD
BRANCH  31  34
HETATM   34  C2  UNL     1      34.438  33.208  13.357  1.00  0.00     0.123 C 
HETATM   35  C1  UNL     1      35.033  33.902  14.549  1.00  0.00     0.026 C 
ENDBRANCH  31  34
BRANCH  31  36
HETATM   36  C3  UNL     1      32.366  34.513  13.879  1.00  0.00     0.123 C 
HETATM   37  C4  UNL     1      32.077  35.481  12.763  1.00  0.00     0.026 C 
ENDBRANCH  31  36
ENDBRANCH  28  29
ENDBRANCH  26  27
ENDBRANCH  25  26
ENDBRANCH  24  25
ENDBRANCH  23  24
ENDBRANCH  22  23
ENDBRANCH  19  22
ENDBRANCH   1  18
BRANCH  16  38
HETATM   38  C30 UNL     1      31.942  27.003   9.077  1.00  0.00     0.182 C 
BRANCH  38  39
HETATM   39  O4  UNL     1      32.123  26.602  10.349  1.00  0.00    -0.400 OA
ATOM     40  H4  UNL     1      32.820  25.987  10.544  1.00  0.00     0.209 HD
ENDBRANCH  38  39
ENDBRANCH  16  38
BRANCH  15  41
HETATM   41  O3  UNL     1      34.856  27.765   9.706  1.00  0.00    -0.393 OA
ATOM     42  H3  UNL     1      35.791  27.804   9.546  1.00  0.00     0.210 HD
ENDBRANCH  15  41
TORSDOF 13
ENDMDL
MODEL 2
REMARK VINA RESULT: -7.271353192      0.945      1.369
REMARK  13 active torsions:
REMARK  status: ('A' for Active; 'I' for Inactive)
REMARK    1  A    between atoms: C2_2  and  N1_3 
REMARK    2  A    between atoms: N1_3  and  C3_4 
REMARK       I    between atoms: N1_3  and  C5_6 
REMARK       I    between atoms: C5_6  and  N2_8 
REMARK    3  A    between atoms: N2_8  and  C6_10 
REMARK    4  A    between atoms: C7_11  and  C8_12 
REMARK    5  A    between atoms: C8_12  and  C9_13 
REMARK    6  A    between atoms: C9_13  and  C10_14 
REMARK    7  A    between atoms: C10_14  and  C11_15 
REMARK    8  A    between atoms: C11_15  and  C12_16 
REMARK    9  A    between atoms: C12_16  and  N3_17 
REMARK       I    between atoms: N3_17  and  C13_19 
REMARK   10  A    between atoms: C13_19  and  C14_21 
REMARK   11  A    between atoms: C27_35  and  O3_36 
REMARK   12  A    between atoms: C28_38  and  C30_40 
REMARK   13  A    between atoms: C30_40  and  O4_41 
ROOT
HETATM    1  C14 UNL     1      32.208  28.763   7.244  1.00  0.00     0.093 C 
HETATM    2  N4  UNL     1      32.998  28.681   6.073  1.00  0.00    -0.351 N 
HETATM    3  C15 UNL     1      32.881  29.904   5.308  1.00  0.00     0.129 C 
HETATM    4  C16 UNL     1      33.396  31.154   5.852  1.00  0.00     0.020 C 
HETATM    5  C17 UNL     1      34.849  31.439   5.848  1.00  0.00     0.002 C 
HETATM    6  C18 UNL     1      35.776  30.532   6.556  1.00  0.00     0.001 C 
HETATM    7  C19 UNL     1      35.275  29.692   7.669  1.00  0.00     0.018 C 
HETATM    8  C20 UNL     1      34.948  28.247   7.369  1.00  0.00     0.026 C 
HETATM    9  C21 UNL     1      36.249  27.445   7.439  1.00  0.00     0.018 C 
HETATM   10  C22 UNL     1      36.907  27.147   6.175  1.00  0.00     0.002 C 
HETATM   11  C23 UNL     1      36.103  26.921   4.966  1.00  0.00     0.010 C 
HETATM   12  C24 UNL     1      34.584  26.933   5.226  1.00  0.00     0.028 C 
HETATM   13  C25 UNL     1      34.267  25.582   5.667  1.00  0.00     0.016 C 
HETATM   14  C26 UNL     1      34.274  28.129   6.025  1.00  0.00     0.004 C 
HETATM   15  C27 UNL     1      34.090  27.691   8.470  1.00  0.00     0.148 C 
HETATM   16  C28 UNL     1      32.644  28.140   8.496  1.00  0.00     0.052 C 
HETATM   17  C29 UNL     1      32.563  29.152   9.650  1.00  0.00     0.027 C 
ENDROOT
BRANCH   1  18
HETATM   18  C13 UNL     1      30.791  28.542   6.835  1.00  0.00     0.265 C 
HETATM   19  N3  UNL     1      29.713  29.248   7.427  1.00  0.00    -0.356 N 
ATOM     20  H3  UNL     1      29.939  29.930   8.150  1.00  0.00     0.162 HD
HETATM   21  O2  UNL     1      30.487  27.714   5.933  1.00  0.00    -0.266 OA
BRANCH  19  22
HETATM   22  C12 UNL     1      28.338  29.081   7.091  1.00  0.00     0.123 C 
BRANCH  22  23
HETATM   23  C11 UNL     1      27.566  28.128   7.939  1.00  0.00     0.020 C 
BRANCH  23  24
HETATM   24  C10 UNL     1      27.904  28.224   9.384  1.00  0.00     0.002 C 
BRANCH  24  25
HETATM   25  C9  UNL     1      27.130  29.288  10.146  1.00  0.00     0.004 C 
BRANCH  25  26
HETATM   26  C8  UNL     1      27.997  30.347  10.693  1.00  0.00     0.028 C 
BRANCH  26  27
HETATM   27  C7  UNL     1      28.130  30.536  12.118  1.00  0.00    -0.009 C 
HETATM   28  C6  UNL     1      29.315  30.472  12.914  1.00  0.00     0.088 C 
BRANCH  28  29
HETATM   29  N2  UNL     1      30.518  31.154  12.764  1.00  0.00    -0.319 N 
HETATM   30  C5  UNL     1      30.971  32.388  13.268  1.00  0.00     0.322 C 
HETATM   31  N1  UNL     1      32.263  32.919  13.036  1.00  0.00    -0.335 N 
HETATM   32  O1  UNL     1      30.203  33.089  13.972  1.00  0.00    -0.247 OA
ATOM     33  H2  UNL     1      31.199  30.668  12.182  1.00  0.00     0.169 HD
BRANCH  31  34
HETATM   34  C2  UNL     1      32.645  34.218  13.580  1.00  0.00     0.123 C 
HETATM   35  C1  UNL     1      32.122  35.299  12.677  1.00  0.00     0.026 C 
ENDBRANCH  31  34
BRANCH  31  36
HETATM   36  C3  UNL     1      33.215  32.161  12.269  1.00  0.00     0.123 C 
HETATM   37  C4  UNL     1      34.618  32.697  12.354  1.00  0.00     0.026 C 
ENDBRANCH  31  36
ENDBRANCH  28  29
ENDBRANCH  26  27
ENDBRANCH  25  26
ENDBRANCH  24  25
ENDBRANCH  23  24
ENDBRANCH  22  23
ENDBRANCH  19  22
ENDBRANCH   1  18
BRANCH  16  38
HETATM   38  C30 UNL     1      31.860  26.960   9.021  1.00  0.00     0.182 C 
BRANCH  38  39
HETATM   39  O4  UNL     1      32.045  26.567  10.295  1.00  0.00    -0.400 OA
ATOM     40  H4  UNL     1      32.352  25.684  10.466  1.00  0.00     0.209 HD
ENDBRANCH  38  39
ENDBRANCH  16  38
BRANCH  15  41
HETATM   41  O3  UNL     1      34.752  27.785   9.668  1.00  0.00    -0.393 OA
ATOM     42  H3  UNL     1      34.999  26.918   9.968  1.00  0.00     0.210 HD
ENDBRANCH  15  41
TORSDOF 13
ENDMDL
MODEL 3
REMARK VINA RESULT: -7.225239926      6.644     13.760
REMARK  13 active torsions:
REMARK  status: ('A' for Active; 'I' for Inactive)
REMARK    1  A    between atoms: C2_2  and  N1_3 
REMARK    2  A    between atoms: N1_3  and  C3_4 
REMARK       I    between atoms: N1_3  and  C5_6 
REMARK       I    between atoms: C5_6  and  N2_8 
REMARK    3  A    between atoms: N2_8  and  C6_10 
REMARK    4  A    between atoms: C7_11  and  C8_12 
REMARK    5  A    between atoms: C8_12  and  C9_13 
REMARK    6  A    between atoms: C9_13  and  C10_14 
REMARK    7  A    between atoms: C10_14  and  C11_15 
REMARK    8  A    between atoms: C11_15  and  C12_16 
REMARK    9  A    between atoms: C12_16  and  N3_17 
REMARK       I    between atoms: N3_17  and  C13_19 
REMARK   10  A    between atoms: C13_19  and  C14_21 
REMARK   11  A    between atoms: C27_35  and  O3_36 
REMARK   12  A    between atoms: C28_38  and  C30_40 
REMARK   13  A    between atoms: C30_40  and  O4_41 
ROOT
HETATM    1  C14 UNL     1      30.375  40.626  14.935  1.00  0.00     0.093 C 
HETATM    2  N4  UNL     1      30.938  41.895  15.211  1.00  0.00    -0.351 N 
HETATM    3  C15 UNL     1      31.183  42.609  13.976  1.00  0.00     0.129 C 
HETATM    4  C16 UNL     1      30.063  43.026  13.143  1.00  0.00     0.020 C 
HETATM    5  C17 UNL     1      29.241  44.200  13.512  1.00  0.00     0.002 C 
HETATM    6  C18 UNL     1      28.528  44.219  14.806  1.00  0.00     0.001 C 
HETATM    7  C19 UNL     1      28.183  42.942  15.473  1.00  0.00     0.018 C 
HETATM    8  C20 UNL     1      29.083  42.465  16.590  1.00  0.00     0.026 C 
HETATM    9  C21 UNL     1      28.653  43.174  17.876  1.00  0.00     0.018 C 
HETATM   10  C22 UNL     1      29.431  44.338  18.277  1.00  0.00     0.002 C 
HETATM   11  C23 UNL     1      30.872  44.390  17.991  1.00  0.00     0.010 C 
HETATM   12  C24 UNL     1      31.420  43.097  17.358  1.00  0.00     0.028 C 
HETATM   13  C25 UNL     1      31.694  42.213  18.483  1.00  0.00     0.016 C 
HETATM   14  C26 UNL     1      30.529  42.726  16.248  1.00  0.00     0.004 C 
HETATM   15  C27 UNL     1      28.829  41.007  16.848  1.00  0.00     0.148 C 
HETATM   16  C28 UNL     1      29.376  40.032  15.827  1.00  0.00     0.052 C 
HETATM   17  C29 UNL     1      28.151  39.570  15.022  1.00  0.00     0.027 C 
ENDROOT
BRANCH   1  18
HETATM   18  C13 UNL     1      31.485  39.743  14.475  1.00  0.00     0.265 C 
HETATM   19  N3  UNL     1      31.348  38.870  13.366  1.00  0.00    -0.356 N 
ATOM     20  H3  UNL     1      30.453  38.869  12.877  1.00  0.00     0.162 HD
HETATM   21  O2  UNL     1      32.605  39.736  15.055  1.00  0.00    -0.266 OA
BRANCH  19  22
HETATM   22  C12 UNL     1      32.362  37.995  12.879  1.00  0.00     0.123 C 
BRANCH  22  23
HETATM   23  C11 UNL     1      32.395  36.631  13.480  1.00  0.00     0.020 C 
BRANCH  23  24
HETATM   24  C10 UNL     1      31.210  35.805  13.125  1.00  0.00     0.002 C 
BRANCH  24  25
HETATM   25  C9  UNL     1      31.533  34.527  12.367  1.00  0.00     0.004 C 
BRANCH  25  26
HETATM   26  C8  UNL     1      32.862  33.983  12.700  1.00  0.00     0.028 C 
BRANCH  26  27
HETATM   27  C7  UNL     1      33.229  32.639  12.323  1.00  0.00    -0.009 C 
HETATM   28  C6  UNL     1      32.552  31.417  12.623  1.00  0.00     0.088 C 
BRANCH  28  29
HETATM   29  N2  UNL     1      31.227  31.062  12.397  1.00  0.00    -0.319 N 
HETATM   30  C5  UNL     1      30.501  30.837  11.212  1.00  0.00     0.322 C 
HETATM   31  N1  UNL     1      29.141  30.442  11.172  1.00  0.00    -0.335 N 
HETATM   32  O1  UNL     1      31.066  30.988  10.101  1.00  0.00    -0.247 OA
ATOM     33  H2  UNL     1      30.679  30.942  13.249  1.00  0.00     0.169 HD
BRANCH  31  34
HETATM   34  C2  UNL     1      28.458  30.249   9.898  1.00  0.00     0.123 C 
HETATM   35  C1  UNL     1      27.354  29.245  10.082  1.00  0.00     0.026 C 
ENDBRANCH  31  34
BRANCH  31  36
HETATM   36  C3  UNL     1      28.432  30.213  12.402  1.00  0.00     0.123 C 
HETATM   37  C4  UNL     1      27.788  31.452  12.963  1.00  0.00     0.026 C 
ENDBRANCH  31  36
ENDBRANCH  28  29
ENDBRANCH  26  27
ENDBRANCH  25  26
ENDBRANCH  24  25
ENDBRANCH  23  24
ENDBRANCH  22  23
ENDBRANCH  19  22
ENDBRANCH   1  18
BRANCH  16  38
HETATM   38  C30 UNL     1      29.758  38.796  16.608  1.00  0.00     0.182 C 
BRANCH  38  39
HETATM   39  O4  UNL     1      28.928  38.347  17.567  1.00  0.00    -0.400 OA
ATOM     40  H4  UNL     1      28.039  38.104  17.331  1.00  0.00     0.209 HD
ENDBRANCH  38  39
ENDBRANCH  16  38
BRANCH  15  41
HETATM   41  O3  UNL     1      27.513  40.818  17.190  1.00  0.00    -0.393 OA
ATOM     42  H3  UNL     1      27.387  39.931  17.505  1.00  0.00     0.210 HD
ENDBRANCH  15  41
TORSDOF 13
ENDMDL
MODEL 4
REMARK VINA RESULT: -7.184023444      1.685      3.126
REMARK  13 active torsions:
REMARK  status: ('A' for Active; 'I' for Inactive)
REMARK    1  A    between atoms: C2_2  and  N1_3 
REMARK    2  A    between atoms: N1_3  and  C3_4 
REMARK       I    between atoms: N1_3  and  C5_6 
REMARK       I    between atoms: C5_6  and  N2_8 
REMARK    3  A    between atoms: N2_8  and  C6_10 
REMARK    4  A    between atoms: C7_11  and  C8_12 
REMARK    5  A    between atoms: C8_12  and  C9_13 
REMARK    6  A    between atoms: C9_13  and  C10_14 
REMARK    7  A    between atoms: C10_14  and  C11_15 
REMARK    8  A    between atoms: C11_15  and  C12_16 
REMARK    9  A    between atoms: C12_16  and  N3_17 
REMARK       I    between atoms: N3_17  and  C13_19 
REMARK   10  A    between atoms: C13_19  and  C14_21 
REMARK   11  A    between atoms: C27_35  and  O3_36 
REMARK   12  A    between atoms: C28_38  and  C30_40 
REMARK   13  A    between atoms: C30_40  and  O4_41 
ROOT
HETATM    1  C14 UNL     1      34.035  29.118   8.672  1.00  0.00     0.093 C 
HETATM    2  N4  UNL     1      33.911  30.515   8.484  1.00  0.00    -0.351 N 
HETATM    3  C15 UNL     1      34.071  31.202   9.748  1.00  0.00     0.129 C 
HETATM    4  C16 UNL     1      35.356  31.171  10.434  1.00  0.00     0.020 C 
HETATM    5  C17 UNL     1      36.481  32.017   9.974  1.00  0.00     0.002 C 
HETATM    6  C18 UNL     1      37.000  31.863   8.600  1.00  0.00     0.001 C 
HETATM    7  C19 UNL     1      36.807  30.582   7.881  1.00  0.00     0.018 C 
HETATM    8  C20 UNL     1      35.673  30.498   6.884  1.00  0.00     0.026 C 
HETATM    9  C21 UNL     1      36.166  31.088   5.560  1.00  0.00     0.018 C 
HETATM   10  C22 UNL     1      35.791  32.465   5.274  1.00  0.00     0.002 C 
HETATM   11  C23 UNL     1      34.500  32.986   5.744  1.00  0.00     0.010 C 
HETATM   12  C24 UNL     1      33.620  31.922   6.429  1.00  0.00     0.028 C 
HETATM   13  C25 UNL     1      32.931  31.244   5.340  1.00  0.00     0.016 C 
HETATM   14  C26 UNL     1      34.455  31.213   7.412  1.00  0.00     0.004 C 
HETATM   15  C27 UNL     1      35.382  29.056   6.580  1.00  0.00     0.148 C 
HETATM   16  C28 UNL     1      34.657  28.270   7.653  1.00  0.00     0.052 C 
HETATM   17  C29 UNL     1      35.736  27.379   8.289  1.00  0.00     0.027 C 
ENDROOT
BRANCH   1  18
HETATM   18  C13 UNL     1      32.752  28.638   9.261  1.00  0.00     0.265 C 
HETATM   19  N3  UNL     1      31.506  29.248   8.963  1.00  0.00    -0.356 N 
ATOM     20  H3  UNL     1      31.513  30.035   8.315  1.00  0.00     0.162 HD
HETATM   21  O2  UNL     1      32.716  27.658  10.054  1.00  0.00    -0.266 OA
BRANCH  19  22
HETATM   22  C12 UNL     1      30.246  28.848   9.496  1.00  0.00     0.123 C 
BRANCH  22  23
HETATM   23  C11 UNL     1      29.040  29.360   8.785  1.00  0.00     0.020 C 
BRANCH  23  24
HETATM   24  C10 UNL     1      27.915  29.687   9.701  1.00  0.00     0.002 C 
BRANCH  24  25
HETATM   25  C9  UNL     1      27.546  31.161   9.750  1.00  0.00     0.004 C 
BRANCH  25  26
HETATM   26  C8  UNL     1      28.267  31.897  10.805  1.00  0.00     0.028 C 
BRANCH  26  27
HETATM   27  C7  UNL     1      28.493  31.305  12.101  1.00  0.00    -0.009 C 
HETATM   28  C6  UNL     1      29.727  31.167  12.810  1.00  0.00     0.088 C 
BRANCH  28  29
HETATM   29  N2  UNL     1      30.666  32.135  13.146  1.00  0.00    -0.319 N 
HETATM   30  C5  UNL     1      32.074  32.133  13.118  1.00  0.00     0.322 C 
HETATM   31  N1  UNL     1      32.881  33.241  13.470  1.00  0.00    -0.335 N 
HETATM   32  O1  UNL     1      32.684  31.095  12.763  1.00  0.00    -0.247 OA
ATOM     33  H2  UNL     1      30.259  33.011  13.474  1.00  0.00     0.169 HD
BRANCH  31  34
HETATM   34  C2  UNL     1      34.336  33.148  13.432  1.00  0.00     0.123 C 
HETATM   35  C1  UNL     1      34.909  33.954  14.563  1.00  0.00     0.026 C 
ENDBRANCH  31  34
BRANCH  31  36
HETATM   36  C3  UNL     1      32.258  34.480  13.855  1.00  0.00     0.123 C 
HETATM   37  C4  UNL     1      31.992  35.403  12.696  1.00  0.00     0.026 C 
ENDBRANCH  31  36
ENDBRANCH  28  29
ENDBRANCH  26  27
ENDBRANCH  25  26
ENDBRANCH  24  25
ENDBRANCH  23  24
ENDBRANCH  22  23
ENDBRANCH  19  22
ENDBRANCH   1  18
BRANCH  16  38
HETATM   38  C30 UNL     1      33.787  27.279   6.915  1.00  0.00     0.182 C 
BRANCH  38  39
HETATM   39  O4  UNL     1      34.320  26.107   6.524  1.00  0.00    -0.400 OA
ATOM     40  H4  UNL     1      34.593  25.481   7.185  1.00  0.00     0.209 HD
ENDBRANCH  38  39
ENDBRANCH  16  38
BRANCH  15  41
HETATM   41  O3  UNL     1      36.504  28.452   6.070  1.00  0.00    -0.393 OA
ATOM     42  H3  UNL     1      36.484  27.522   6.262  1.00  0.00     0.210 HD
ENDBRANCH  15  41
TORSDOF 13
ENDMDL
MODEL 5
REMARK VINA RESULT: -7.136869339      1.744      3.431
REMARK  13 active torsions:
REMARK  status: ('A' for Active; 'I' for Inactive)
REMARK    1  A    between atoms: C2_2  and  N1_3 
REMARK    2  A    between atoms: N1_3  and  C3_4 
REMARK       I    between atoms: N1_3  and  C5_6 
REMARK       I    between atoms: C5_6  and  N2_8 
REMARK    3  A    between atoms: N2_8  and  C6_10 
REMARK    4  A    between atoms: C7_11  and  C8_12 
REMARK    5  A    between atoms: C8_12  and  C9_13 
REMARK    6  A    between atoms: C9_13  and  C10_14 
REMARK    7  A    between atoms: C10_14  and  C11_15 
REMARK    8  A    between atoms: C11_15  and  C12_16 
REMARK    9  A    between atoms: C12_16  and  N3_17 
REMARK       I    between atoms: N3_17  and  C13_19 
REMARK   10  A    between atoms: C13_19  and  C14_21 
REMARK   11  A    between atoms: C27_35  and  O3_36 
REMARK   12  A    between atoms: C28_38  and  C30_40 
REMARK   13  A    between atoms: C30_40  and  O4_41 
ROOT
HETATM    1  C14 UNL     1      32.586  28.642   7.903  1.00  0.00     0.093 C 
HETATM    2  N4  UNL     1      33.694  29.407   8.337  1.00  0.00    -0.351 N 
HETATM    3  C15 UNL     1      34.329  28.764   9.468  1.00  0.00     0.129 C 
HETATM    4  C16 UNL     1      34.987  27.476   9.296  1.00  0.00     0.020 C 
HETATM    5  C17 UNL     1      36.319  27.385   8.656  1.00  0.00     0.002 C 
HETATM    6  C18 UNL     1      36.504  27.874   7.274  1.00  0.00     0.001 C 
HETATM    7  C19 UNL     1      35.341  27.947   6.360  1.00  0.00     0.018 C 
HETATM    8  C20 UNL     1      34.676  29.292   6.171  1.00  0.00     0.026 C 
HETATM    9  C21 UNL     1      35.468  30.066   5.116  1.00  0.00     0.018 C 
HETATM   10  C22 UNL     1      36.426  31.049   5.602  1.00  0.00     0.002 C 
HETATM   11  C23 UNL     1      36.148  31.793   6.839  1.00  0.00     0.010 C 
HETATM   12  C24 UNL     1      34.762  31.490   7.440  1.00  0.00     0.028 C 
HETATM   13  C25 UNL     1      33.843  32.368   6.728  1.00  0.00     0.016 C 
HETATM   14  C26 UNL     1      34.600  30.029   7.485  1.00  0.00     0.004 C 
HETATM   15  C27 UNL     1      33.315  29.095   5.567  1.00  0.00     0.148 C 
HETATM   16  C28 UNL     1      32.237  28.554   6.483  1.00  0.00     0.052 C 
HETATM   17  C29 UNL     1      32.063  27.085   6.067  1.00  0.00     0.027 C 
ENDROOT
BRANCH   1  18
HETATM   18  C13 UNL     1      31.471  28.899   8.860  1.00  0.00     0.265 C 
HETATM   19  N3  UNL     1      30.550  27.889   9.238  1.00  0.00    -0.356 N 
ATOM     20  H3  UNL     1      30.678  26.961   8.834  1.00  0.00     0.162 HD
HETATM   21  O2  UNL     1      31.300  30.033   9.383  1.00  0.00    -0.266 OA
BRANCH  19  22
HETATM   22  C12 UNL     1      29.459  28.067  10.139  1.00  0.00     0.123 C 
BRANCH  22  23
HETATM   23  C11 UNL     1      28.146  28.403   9.520  1.00  0.00     0.020 C 
BRANCH  23  24
HETATM   24  C10 UNL     1      27.451  29.532  10.196  1.00  0.00     0.002 C 
BRANCH  24  25
HETATM   25  C9  UNL     1      27.916  30.912   9.761  1.00  0.00     0.004 C 
BRANCH  25  26
HETATM   26  C8  UNL     1      28.002  31.867  10.881  1.00  0.00     0.028 C 
BRANCH  26  27
HETATM   27  C7  UNL     1      28.476  31.448  12.179  1.00  0.00    -0.009 C 
HETATM   28  C6  UNL     1      29.728  30.844  12.513  1.00  0.00     0.088 C 
BRANCH  28  29
HETATM   29  N2  UNL     1      31.020  31.278  12.238  1.00  0.00    -0.319 N 
HETATM   30  C5  UNL     1      31.937  32.041  12.986  1.00  0.00     0.322 C 
HETATM   31  N1  UNL     1      33.246  32.364  12.555  1.00  0.00    -0.335 N 
HETATM   32  O1  UNL     1      31.603  32.479  14.114  1.00  0.00    -0.247 OA
ATOM     33  H2  UNL     1      31.369  30.989  11.325  1.00  0.00     0.169 HD
BRANCH  31  34
HETATM   34  C2  UNL     1      34.127  33.178  13.385  1.00  0.00     0.123 C 
HETATM   35  C1  UNL     1      33.945  34.624  13.020  1.00  0.00     0.026 C 
ENDBRANCH  31  34
BRANCH  31  36
HETATM   36  C3  UNL     1      33.718  31.870  11.289  1.00  0.00     0.123 C 
HETATM   37  C4  UNL     1      35.218  31.876  11.163  1.00  0.00     0.026 C 
ENDBRANCH  31  36
ENDBRANCH  28  29
ENDBRANCH  26  27
ENDBRANCH  25  26
ENDBRANCH  24  25
ENDBRANCH  23  24
ENDBRANCH  22  23
ENDBRANCH  19  22
ENDBRANCH   1  18
BRANCH  16  38
HETATM   38  C30 UNL     1      30.949  29.195   6.020  1.00  0.00     0.182 C 
BRANCH  38  39
HETATM   39  O4  UNL     1      31.008  30.263   5.203  1.00  0.00    -0.400 OA
ATOM     40  H4  UNL     1      30.238  30.812   5.106  1.00  0.00     0.209 HD
ENDBRANCH  38  39
ENDBRANCH  16  38
BRANCH  15  41
HETATM   41  O3  UNL     1      33.431  28.454   4.359  1.00  0.00    -0.393 OA
ATOM     42  H3  UNL     1      32.726  28.725   3.782  1.00  0.00     0.210 HD
ENDBRANCH  15  41
TORSDOF 13
ENDMDL
