MODEL 1
REMARK VINA RESULT: -8.012475727      0.000      0.000
REMARK  15 active torsions:
REMARK  status: ('A' for Active; 'I' for Inactive)
REMARK       I    between atoms: C2_2  and  N1_4 
REMARK    1  A    between atoms: N1_4  and  C3_6 
REMARK    2  A    between atoms: C3_6  and  C4_7 
REMARK    3  A    between atoms: C4_7  and  C5_8 
REMARK    4  A    between atoms: C5_8  and  C6_9 
REMARK    5  A    between atoms: C6_9  and  C7_10 
REMARK    6  A    between atoms: C7_10  and  C8_11 
REMARK    7  A    between atoms: C8_11  and  N2_12 
REMARK    8  A    between atoms: N2_12  and  C9_14 
REMARK    9  A    between atoms: C19_24  and  O2_25 
REMARK   10  A    between atoms: C19_24  and  C20_27 
REMARK   11  A    between atoms: C20_27  and  C21_28 
REMARK   12  A    between atoms: C21_28  and  C22_29 
REMARK   13  A    between atoms: C22_29  and  C23_30 
REMARK   14  A    between atoms: C23_30  and  C24_31 
REMARK   15  A    between atoms: C25_34  and  O5_35 
ROOT
HETATM    1  C9  UNL     1      31.935  32.137  11.802  1.00  0.00     0.078 C 
HETATM    2  C10 UNL     1      30.630  32.672  12.232  1.00  0.00     0.024 C 
HETATM    3  C11 UNL     1      29.430  32.253  11.455  1.00  0.00     0.002 C 
HETATM    4  C12 UNL     1      28.192  31.967  12.217  1.00  0.00     0.000 C 
HETATM    5  C13 UNL     1      28.076  30.627  12.841  1.00  0.00     0.000 C 
HETATM    6  C14 UNL     1      28.249  29.439  11.981  1.00  0.00     0.000 C 
HETATM    7  C15 UNL     1      27.477  29.399  10.713  1.00  0.00     0.000 C 
HETATM    8  C16 UNL     1      28.071  28.470   9.676  1.00  0.00     0.000 C 
HETATM    9  C17 UNL     1      29.368  28.974   9.149  1.00  0.00     0.004 C 
HETATM   10  C18 UNL     1      30.026  28.201   8.096  1.00  0.00     0.046 C 
HETATM   11  C19 UNL     1      31.521  27.904   8.433  1.00  0.00     0.122 C 
HETATM   12  C25 UNL     1      32.325  29.100   8.251  1.00  0.00     0.149 C 
HETATM   13  N3  UNL     1      33.156  29.898   9.029  1.00  0.00    -0.358 N 
HETATM   14  C26 UNL     1      34.514  30.358   8.657  1.00  0.00     0.125 C 
HETATM   15  C27 UNL     1      35.260  30.107   9.975  1.00  0.00     0.022 C 
HETATM   16  C28 UNL     1      34.310  30.933  10.832  1.00  0.00     0.027 C 
HETATM   17  C29 UNL     1      32.956  30.486  10.318  1.00  0.00     0.088 C 
HETATM   18  C30 UNL     1      32.106  31.741  10.368  1.00  0.00     0.050 C 
ENDROOT
BRANCH   1  19
HETATM   19  N2  UNL     1      33.000  33.005  12.251  1.00  0.00    -0.417 N 
ATOM     20  H2  UNL     1      33.530  33.591  11.606  1.00  0.00     0.153 HD
BRANCH  19  21
HETATM   21  C8  UNL     1      33.266  32.991  13.654  1.00  0.00     0.114 C 
BRANCH  21  22
HETATM   22  C7  UNL     1      34.722  33.409  13.824  1.00  0.00     0.019 C 
BRANCH  22  23
HETATM   23  C6  UNL     1      35.254  34.142  12.625  1.00  0.00     0.002 C 
BRANCH  23  24
HETATM   24  C5  UNL     1      36.123  35.312  13.017  1.00  0.00     0.002 C 
BRANCH  24  25
HETATM   25  C4  UNL     1      35.423  36.007  14.167  1.00  0.00     0.020 C 
BRANCH  25  26
HETATM   26  C3  UNL     1      34.388  36.984  13.687  1.00  0.00     0.122 C 
BRANCH  26  27
HETATM   27  N1  UNL     1      33.111  36.782  14.327  1.00  0.00    -0.361 N 
HETATM   28  C2  UNL     1      31.980  36.298  13.603  1.00  0.00     0.213 C 
HETATM   29  C1  UNL     1      30.668  36.100  14.268  1.00  0.00     0.117 C 
HETATM   30  O1  UNL     1      32.045  36.019  12.386  1.00  0.00    -0.274 OA
ATOM     31  H1  UNL     1      33.014  36.989  15.321  1.00  0.00     0.162 HD
ENDBRANCH  26  27
ENDBRANCH  25  26
ENDBRANCH  24  25
ENDBRANCH  23  24
ENDBRANCH  22  23
ENDBRANCH  21  22
ENDBRANCH  19  21
ENDBRANCH   1  19
BRANCH  12  32
HETATM   32  O5  UNL     1      32.206  29.510   6.999  1.00  0.00    -0.347 OA
ATOM     33  H5  UNL     1      32.638  30.351   6.909  1.00  0.00     0.219 HD
ENDBRANCH  12  32
BRANCH  11  34
HETATM   34  O2  UNL     1      31.868  27.019   7.366  1.00  0.00    -0.381 OA
ATOM     35  H2  UNL     1      32.638  26.596   7.727  1.00  0.00     0.211 HD
ENDBRANCH  11  34
BRANCH  11  36
HETATM   36  C20 UNL     1      31.586  27.075   9.624  1.00  0.00     0.046 C 
BRANCH  36  37
HETATM   37  C21 UNL     1      30.782  25.806   9.621  1.00  0.00     0.004 C 
BRANCH  37  38
HETATM   38  C22 UNL     1      29.903  25.710  10.862  1.00  0.00     0.011 C 
BRANCH  38  39
HETATM   39  C23 UNL     1      30.071  24.301  11.391  1.00  0.00     0.113 C 
BRANCH  39  40
HETATM   40  C24 UNL     1      29.444  24.106  12.710  1.00  0.00     0.172 C 
HETATM   41  O3  UNL     1      29.219  22.940  13.102  1.00  0.00    -0.648 OA
HETATM   42  O4  UNL     1      29.142  25.246  13.437  1.00  0.00    -0.648 OA
ENDBRANCH  39  40
ENDBRANCH  38  39
ENDBRANCH  37  38
ENDBRANCH  36  37
ENDBRANCH  11  36
TORSDOF 15
ENDMDL
MODEL 2
REMARK VINA RESULT: -7.855899049      1.658      2.137
REMARK  15 active torsions:
REMARK  status: ('A' for Active; 'I' for Inactive)
REMARK       I    between atoms: C2_2  and  N1_4 
REMARK    1  A    between atoms: N1_4  and  C3_6 
REMARK    2  A    between atoms: C3_6  and  C4_7 
REMARK    3  A    between atoms: C4_7  and  C5_8 
REMARK    4  A    between atoms: C5_8  and  C6_9 
REMARK    5  A    between atoms: C6_9  and  C7_10 
REMARK    6  A    between atoms: C7_10  and  C8_11 
REMARK    7  A    between atoms: C8_11  and  N2_12 
REMARK    8  A    between atoms: N2_12  and  C9_14 
REMARK    9  A    between atoms: C19_24  and  O2_25 
REMARK   10  A    between atoms: C19_24  and  C20_27 
REMARK   11  A    between atoms: C20_27  and  C21_28 
REMARK   12  A    between atoms: C21_28  and  C22_29 
REMARK   13  A    between atoms: C22_29  and  C23_30 
REMARK   14  A    between atoms: C23_30  and  C24_31 
REMARK   15  A    between atoms: C25_34  and  O5_35 
ROOT
HETATM    1  C9  UNL     1      32.052  31.979  11.846  1.00  0.00     0.078 C 
HETATM    2  C10 UNL     1      30.771  32.550  12.301  1.00  0.00     0.024 C 
HETATM    3  C11 UNL     1      29.551  32.197  11.521  1.00  0.00     0.002 C 
HETATM    4  C12 UNL     1      28.308  31.936  12.285  1.00  0.00     0.000 C 
HETATM    5  C13 UNL     1      28.147  30.586  12.873  1.00  0.00     0.000 C 
HETATM    6  C14 UNL     1      28.269  29.416  11.981  1.00  0.00     0.000 C 
HETATM    7  C15 UNL     1      27.489  29.438  10.719  1.00  0.00     0.000 C 
HETATM    8  C16 UNL     1      28.040  28.516   9.653  1.00  0.00     0.000 C 
HETATM    9  C17 UNL     1      29.352  28.986   9.129  1.00  0.00     0.004 C 
HETATM   10  C18 UNL     1      29.973  28.218   8.052  1.00  0.00     0.046 C 
HETATM   11  C19 UNL     1      31.458  27.856   8.369  1.00  0.00     0.122 C 
HETATM   12  C25 UNL     1      32.305  29.027   8.212  1.00  0.00     0.149 C 
HETATM   13  N3  UNL     1      33.171  29.772   9.005  1.00  0.00    -0.358 N 
HETATM   14  C26 UNL     1      34.542  30.191   8.635  1.00  0.00     0.125 C 
HETATM   15  C27 UNL     1      35.288  29.878   9.941  1.00  0.00     0.022 C 
HETATM   16  C28 UNL     1      34.374  30.715  10.826  1.00  0.00     0.027 C 
HETATM   17  C29 UNL     1      33.002  30.332  10.311  1.00  0.00     0.088 C 
HETATM   18  C30 UNL     1      32.199  31.616  10.401  1.00  0.00     0.050 C 
ENDROOT
BRANCH   1  19
HETATM   19  N2  UNL     1      33.152  32.794  12.311  1.00  0.00    -0.417 N 
ATOM     20  H2  UNL     1      34.033  32.858  11.800  1.00  0.00     0.153 HD
BRANCH  19  21
HETATM   21  C8  UNL     1      32.931  33.505  13.528  1.00  0.00     0.114 C 
BRANCH  21  22
HETATM   22  C7  UNL     1      33.836  34.730  13.486  1.00  0.00     0.019 C 
BRANCH  22  23
HETATM   23  C6  UNL     1      33.092  36.007  13.760  1.00  0.00     0.002 C 
BRANCH  23  24
HETATM   24  C5  UNL     1      31.786  36.075  13.008  1.00  0.00     0.002 C 
BRANCH  24  25
HETATM   25  C4  UNL     1      31.293  37.503  13.124  1.00  0.00     0.020 C 
BRANCH  25  26
HETATM   26  C3  UNL     1      30.141  37.624  14.080  1.00  0.00     0.122 C 
BRANCH  26  27
HETATM   27  N1  UNL     1      29.489  38.907  13.986  1.00  0.00    -0.361 N 
HETATM   28  C2  UNL     1      28.180  39.121  14.514  1.00  0.00     0.213 C 
HETATM   29  C1  UNL     1      27.512  40.442  14.406  1.00  0.00     0.117 C 
HETATM   30  O1  UNL     1      27.542  38.211  15.089  1.00  0.00    -0.274 OA
ATOM     31  H1  UNL     1      29.974  39.680  13.531  1.00  0.00     0.162 HD
ENDBRANCH  26  27
ENDBRANCH  25  26
ENDBRANCH  24  25
ENDBRANCH  23  24
ENDBRANCH  22  23
ENDBRANCH  21  22
ENDBRANCH  19  21
ENDBRANCH   1  19
BRANCH  12  32
HETATM   32  O5  UNL     1      32.194  29.474   6.973  1.00  0.00    -0.347 OA
ATOM     33  H5  UNL     1      31.729  30.302   6.986  1.00  0.00     0.219 HD
ENDBRANCH  12  32
BRANCH  11  34
HETATM   34  O2  UNL     1      31.765  26.988   7.276  1.00  0.00    -0.381 OA
ATOM     35  H2  UNL     1      32.354  26.371   7.696  1.00  0.00     0.211 HD
ENDBRANCH  11  34
BRANCH  11  36
HETATM   36  C20 UNL     1      31.501  26.994   9.537  1.00  0.00     0.046 C 
BRANCH  36  37
HETATM   37  C21 UNL     1      30.608  25.785   9.529  1.00  0.00     0.004 C 
BRANCH  37  38
HETATM   38  C22 UNL     1      29.794  25.696  10.814  1.00  0.00     0.011 C 
BRANCH  38  39
HETATM   39  C23 UNL     1      30.075  24.328  11.398  1.00  0.00     0.113 C 
BRANCH  39  40
HETATM   40  C24 UNL     1      29.446  24.127  12.715  1.00  0.00     0.172 C 
HETATM   41  O3  UNL     1      29.217  22.960  13.101  1.00  0.00    -0.648 OA
HETATM   42  O4  UNL     1      29.146  25.264  13.448  1.00  0.00    -0.648 OA
ENDBRANCH  39  40
ENDBRANCH  38  39
ENDBRANCH  37  38
ENDBRANCH  36  37
ENDBRANCH  11  36
TORSDOF 15
ENDMDL
MODEL 3
REMARK VINA RESULT: -7.752252015      1.335      2.146
REMARK  15 active torsions:
REMARK  status: ('A' for Active; 'I' for Inactive)
REMARK       I    between atoms: C2_2  and  N1_4 
REMARK    1  A    between atoms: N1_4  and  C3_6 
REMARK    2  A    between atoms: C3_6  and  C4_7 
REMARK    3  A    between atoms: C4_7  and  C5_8 
REMARK    4  A    between atoms: C5_8  and  C6_9 
REMARK    5  A    between atoms: C6_9  and  C7_10 
REMARK    6  A    between atoms: C7_10  and  C8_11 
REMARK    7  A    between atoms: C8_11  and  N2_12 
REMARK    8  A    between atoms: N2_12  and  C9_14 
REMARK    9  A    between atoms: C19_24  and  O2_25 
REMARK   10  A    between atoms: C19_24  and  C20_27 
REMARK   11  A    between atoms: C20_27  and  C21_28 
REMARK   12  A    between atoms: C21_28  and  C22_29 
REMARK   13  A    between atoms: C22_29  and  C23_30 
REMARK   14  A    between atoms: C23_30  and  C24_31 
REMARK   15  A    between atoms: C25_34  and  O5_35 
ROOT
HETATM    1  C9  UNL     1      31.947  32.078  11.830  1.00  0.00     0.078 C 
HETATM    2  C10 UNL     1      30.642  32.613  12.262  1.00  0.00     0.024 C 
HETATM    3  C11 UNL     1      29.443  32.206  11.476  1.00  0.00     0.002 C 
HETATM    4  C12 UNL     1      28.202  31.916  12.231  1.00  0.00     0.000 C 
HETATM    5  C13 UNL     1      28.080  30.569  12.839  1.00  0.00     0.000 C 
HETATM    6  C14 UNL     1      28.251  29.391  11.966  1.00  0.00     0.000 C 
HETATM    7  C15 UNL     1      27.484  29.367  10.695  1.00  0.00     0.000 C 
HETATM    8  C16 UNL     1      28.077  28.448   9.650  1.00  0.00     0.000 C 
HETATM    9  C17 UNL     1      29.378  28.954   9.132  1.00  0.00     0.004 C 
HETATM   10  C18 UNL     1      30.037  28.191   8.073  1.00  0.00     0.046 C 
HETATM   11  C19 UNL     1      31.529  27.885   8.412  1.00  0.00     0.122 C 
HETATM   12  C25 UNL     1      32.338  29.081   8.246  1.00  0.00     0.149 C 
HETATM   13  N3  UNL     1      33.170  29.867   9.035  1.00  0.00    -0.358 N 
HETATM   14  C26 UNL     1      34.530  30.327   8.673  1.00  0.00     0.125 C 
HETATM   15  C27 UNL     1      35.271  30.059   9.991  1.00  0.00     0.022 C 
HETATM   16  C28 UNL     1      34.320  30.878  10.854  1.00  0.00     0.027 C 
HETATM   17  C29 UNL     1      32.967  30.441  10.330  1.00  0.00     0.088 C 
HETATM   18  C30 UNL     1      32.121  31.698  10.392  1.00  0.00     0.050 C 
ENDROOT
BRANCH   1  19
HETATM   19  N2  UNL     1      33.013  32.937  12.293  1.00  0.00    -0.417 N 
ATOM     20  H2  UNL     1      33.990  32.765  12.054  1.00  0.00     0.153 HD
BRANCH  19  21
HETATM   21  C8  UNL     1      32.617  34.041  13.106  1.00  0.00     0.114 C 
BRANCH  21  22
HETATM   22  C7  UNL     1      33.405  33.929  14.405  1.00  0.00     0.019 C 
BRANCH  22  23
HETATM   23  C6  UNL     1      34.890  33.919  14.179  1.00  0.00     0.002 C 
BRANCH  23  24
HETATM   24  C5  UNL     1      35.655  34.317  15.416  1.00  0.00     0.002 C 
BRANCH  24  25
HETATM   25  C4  UNL     1      36.431  35.569  15.063  1.00  0.00     0.020 C 
BRANCH  25  26
HETATM   26  C3  UNL     1      35.829  36.293  13.892  1.00  0.00     0.122 C 
BRANCH  26  27
HETATM   27  N1  UNL     1      36.832  36.903  13.055  1.00  0.00    -0.361 N 
HETATM   28  C2  UNL     1      37.416  36.203  11.957  1.00  0.00     0.213 C 
HETATM   29  C1  UNL     1      38.453  36.836  11.104  1.00  0.00     0.117 C 
HETATM   30  O1  UNL     1      37.081  35.034  11.665  1.00  0.00    -0.274 OA
ATOM     31  H1  UNL     1      37.131  37.858  13.252  1.00  0.00     0.162 HD
ENDBRANCH  26  27
ENDBRANCH  25  26
ENDBRANCH  24  25
ENDBRANCH  23  24
ENDBRANCH  22  23
ENDBRANCH  21  22
ENDBRANCH  19  21
ENDBRANCH   1  19
BRANCH  12  32
HETATM   32  O5  UNL     1      32.226  29.505   6.999  1.00  0.00    -0.347 OA
ATOM     33  H5  UNL     1      32.715  28.922   6.430  1.00  0.00     0.219 HD
ENDBRANCH  12  32
BRANCH  11  34
HETATM   34  O2  UNL     1      31.877  27.011   7.336  1.00  0.00    -0.381 OA
ATOM     35  H2  UNL     1      31.406  26.224   7.583  1.00  0.00     0.211 HD
ENDBRANCH  11  34
BRANCH  11  36
HETATM   36  C20 UNL     1      31.588  27.042   9.593  1.00  0.00     0.046 C 
BRANCH  36  37
HETATM   37  C21 UNL     1      30.772  25.781   9.577  1.00  0.00     0.004 C 
BRANCH  37  38
HETATM   38  C22 UNL     1      29.857  25.704  10.792  1.00  0.00     0.011 C 
BRANCH  38  39
HETATM   39  C23 UNL     1      30.078  24.336  11.401  1.00  0.00     0.113 C 
BRANCH  39  40
HETATM   40  C24 UNL     1      29.458  24.193  12.730  1.00  0.00     0.172 C 
HETATM   41  O3  UNL     1      29.162  25.226  13.370  1.00  0.00    -0.648 OA
HETATM   42  O4  UNL     1      29.241  22.903  13.188  1.00  0.00    -0.648 OA
ENDBRANCH  39  40
ENDBRANCH  38  39
ENDBRANCH  37  38
ENDBRANCH  36  37
ENDBRANCH  11  36
TORSDOF 15
ENDMDL
MODEL 4
REMARK VINA RESULT: -7.702282119      1.400      1.784
REMARK  15 active torsions:
REMARK  status: ('A' for Active; 'I' for Inactive)
REMARK       I    between atoms: C2_2  and  N1_4 
REMARK    1  A    between atoms: N1_4  and  C3_6 
REMARK    2  A    between atoms: C3_6  and  C4_7 
REMARK    3  A    between atoms: C4_7  and  C5_8 
REMARK    4  A    between atoms: C5_8  and  C6_9 
REMARK    5  A    between atoms: C6_9  and  C7_10 
REMARK    6  A    between atoms: C7_10  and  C8_11 
REMARK    7  A    between atoms: C8_11  and  N2_12 
REMARK    8  A    between atoms: N2_12  and  C9_14 
REMARK    9  A    between atoms: C19_24  and  O2_25 
REMARK   10  A    between atoms: C19_24  and  C20_27 
REMARK   11  A    between atoms: C20_27  and  C21_28 
REMARK   12  A    between atoms: C21_28  and  C22_29 
REMARK   13  A    between atoms: C22_29  and  C23_30 
REMARK   14  A    between atoms: C23_30  and  C24_31 
REMARK   15  A    between atoms: C25_34  and  O5_35 
ROOT
HETATM    1  C9  UNL     1      32.699  31.509  11.205  1.00  0.00     0.078 C 
HETATM    2  C10 UNL     1      31.573  32.348  11.659  1.00  0.00     0.024 C 
HETATM    3  C11 UNL     1      30.228  32.049  11.094  1.00  0.00     0.002 C 
HETATM    4  C12 UNL     1      29.070  32.133  12.014  1.00  0.00     0.000 C 
HETATM    5  C13 UNL     1      28.807  30.958  12.879  1.00  0.00     0.000 C 
HETATM    6  C14 UNL     1      28.657  29.638  12.236  1.00  0.00     0.000 C 
HETATM    7  C15 UNL     1      27.731  29.545  11.080  1.00  0.00     0.000 C 
HETATM    8  C16 UNL     1      28.014  28.365  10.175  1.00  0.00     0.000 C 
HETATM    9  C17 UNL     1      29.298  28.518   9.438  1.00  0.00     0.004 C 
HETATM   10  C18 UNL     1      29.668  27.475   8.483  1.00  0.00     0.046 C 
HETATM   11  C19 UNL     1      31.120  26.953   8.718  1.00  0.00     0.122 C 
HETATM   12  C25 UNL     1      32.088  27.927   8.243  1.00  0.00     0.149 C 
HETATM   13  N3  UNL     1      33.140  28.663   8.777  1.00  0.00    -0.358 N 
HETATM   14  C26 UNL     1      34.496  28.787   8.195  1.00  0.00     0.125 C 
HETATM   15  C27 UNL     1      35.354  28.611   9.455  1.00  0.00     0.022 C 
HETATM   16  C28 UNL     1      34.681  29.731  10.238  1.00  0.00     0.027 C 
HETATM   17  C29 UNL     1      33.215  29.477   9.951  1.00  0.00     0.088 C 
HETATM   18  C30 UNL     1      32.609  30.864   9.857  1.00  0.00     0.050 C 
ENDROOT
BRANCH   1  19
HETATM   19  N2  UNL     1      33.947  32.216  11.382  1.00  0.00    -0.417 N 
ATOM     20  H2  UNL     1      34.613  32.339  10.618  1.00  0.00     0.153 HD
BRANCH  19  21
HETATM   21  C8  UNL     1      34.193  32.731  12.690  1.00  0.00     0.114 C 
BRANCH  21  22
HETATM   22  C7  UNL     1      35.039  33.986  12.511  1.00  0.00     0.019 C 
BRANCH  22  23
HETATM   23  C6  UNL     1      34.588  35.115  13.393  1.00  0.00     0.002 C 
BRANCH  23  24
HETATM   24  C5  UNL     1      33.193  34.899  13.924  1.00  0.00     0.002 C 
BRANCH  24  25
HETATM   25  C4  UNL     1      32.294  35.878  13.195  1.00  0.00     0.020 C 
BRANCH  25  26
HETATM   26  C3  UNL     1      30.923  35.943  13.804  1.00  0.00     0.122 C 
BRANCH  26  27
HETATM   27  N1  UNL     1      30.936  36.546  15.113  1.00  0.00    -0.361 N 
HETATM   28  C2  UNL     1      29.977  37.534  15.492  1.00  0.00     0.213 C 
HETATM   29  C1  UNL     1      30.003  38.156  16.839  1.00  0.00     0.117 C 
HETATM   30  O1  UNL     1      29.078  37.914  14.710  1.00  0.00    -0.274 OA
ATOM     31  H1  UNL     1      31.648  36.261  15.786  1.00  0.00     0.162 HD
ENDBRANCH  26  27
ENDBRANCH  25  26
ENDBRANCH  24  25
ENDBRANCH  23  24
ENDBRANCH  22  23
ENDBRANCH  21  22
ENDBRANCH  19  21
ENDBRANCH   1  19
BRANCH  12  32
HETATM   32  O5  UNL     1      31.879  28.146   6.956  1.00  0.00    -0.347 OA
ATOM     33  H5  UNL     1      32.314  28.954   6.707  1.00  0.00     0.219 HD
ENDBRANCH  12  32
BRANCH  11  34
HETATM   34  O2  UNL     1      31.166  25.859   7.800  1.00  0.00    -0.381 OA
ATOM     35  H2  UNL     1      31.759  26.202   7.141  1.00  0.00     0.211 HD
ENDBRANCH  11  34
BRANCH  11  36
HETATM   36  C20 UNL     1      31.197  26.328  10.027  1.00  0.00     0.046 C 
BRANCH  36  37
HETATM   37  C21 UNL     1      30.132  25.326  10.372  1.00  0.00     0.004 C 
BRANCH  37  38
HETATM   38  C22 UNL     1      30.448  24.619  11.683  1.00  0.00     0.011 C 
BRANCH  38  39
HETATM   39  C23 UNL     1      29.453  25.141  12.697  1.00  0.00     0.113 C 
BRANCH  39  40
HETATM   40  C24 UNL     1      28.938  24.089  13.590  1.00  0.00     0.172 C 
HETATM   41  O3  UNL     1      29.175  22.893  13.310  1.00  0.00    -0.648 OA
HETATM   42  O4  UNL     1      28.214  24.502  14.697  1.00  0.00    -0.648 OA
ENDBRANCH  39  40
ENDBRANCH  38  39
ENDBRANCH  37  38
ENDBRANCH  36  37
ENDBRANCH  11  36
TORSDOF 15
ENDMDL
MODEL 5
REMARK VINA RESULT: -7.701886665      2.125      2.855
REMARK  15 active torsions:
REMARK  status: ('A' for Active; 'I' for Inactive)
REMARK       I    between atoms: C2_2  and  N1_4 
REMARK    1  A    between atoms: N1_4  and  C3_6 
REMARK    2  A    between atoms: C3_6  and  C4_7 
REMARK    3  A    between atoms: C4_7  and  C5_8 
REMARK    4  A    between atoms: C5_8  and  C6_9 
REMARK    5  A    between atoms: C6_9  and  C7_10 
REMARK    6  A    between atoms: C7_10  and  C8_11 
REMARK    7  A    between atoms: C8_11  and  N2_12 
REMARK    8  A    between atoms: N2_12  and  C9_14 
REMARK    9  A    between atoms: C19_24  and  O2_25 
REMARK   10  A    between atoms: C19_24  and  C20_27 
REMARK   11  A    between atoms: C20_27  and  C21_28 
REMARK   12  A    between atoms: C21_28  and  C22_29 
REMARK   13  A    between atoms: C22_29  and  C23_30 
REMARK   14  A    between atoms: C23_30  and  C24_31 
REMARK   15  A    between atoms: C25_34  and  O5_35 
ROOT
HETATM    1  C9  UNL     1      32.000  31.988  11.912  1.00  0.00     0.078 C 
HETATM    2  C10 UNL     1      30.714  32.547  12.369  1.00  0.00     0.024 C 
HETATM    3  C11 UNL     1      29.498  32.192  11.585  1.00  0.00     0.002 C 
HETATM    4  C12 UNL     1      28.256  31.917  12.345  1.00  0.00     0.000 C 
HETATM    5  C13 UNL     1      28.103  30.561  12.923  1.00  0.00     0.000 C 
HETATM    6  C14 UNL     1      28.234  29.399  12.022  1.00  0.00     0.000 C 
HETATM    7  C15 UNL     1      27.456  29.426  10.758  1.00  0.00     0.000 C 
HETATM    8  C16 UNL     1      28.015  28.515   9.686  1.00  0.00     0.000 C 
HETATM    9  C17 UNL     1      29.324  28.998   9.168  1.00  0.00     0.004 C 
HETATM   10  C18 UNL     1      29.952  28.243   8.085  1.00  0.00     0.046 C 
HETATM   11  C19 UNL     1      31.439  27.889   8.402  1.00  0.00     0.122 C 
HETATM   12  C25 UNL     1      32.278  29.066   8.256  1.00  0.00     0.149 C 
HETATM   13  N3  UNL     1      33.138  29.811   9.056  1.00  0.00    -0.358 N 
HETATM   14  C26 UNL     1      34.507  30.242   8.691  1.00  0.00     0.125 C 
HETATM   15  C27 UNL     1      35.252  29.924   9.995  1.00  0.00     0.022 C 
HETATM   16  C28 UNL     1      34.332  30.748  10.886  1.00  0.00     0.027 C 
HETATM   17  C29 UNL     1      32.963  30.359  10.365  1.00  0.00     0.088 C 
HETATM   18  C30 UNL     1      32.151  31.638  10.464  1.00  0.00     0.050 C 
ENDROOT
BRANCH   1  19
HETATM   19  N2  UNL     1      33.094  32.807  12.385  1.00  0.00    -0.417 N 
ATOM     20  H2  UNL     1      34.064  32.497  12.334  1.00  0.00     0.153 HD
BRANCH  19  21
HETATM   21  C8  UNL     1      32.733  34.077  12.926  1.00  0.00     0.114 C 
BRANCH  21  22
HETATM   22  C7  UNL     1      34.028  34.863  13.089  1.00  0.00     0.019 C 
BRANCH  22  23
HETATM   23  C6  UNL     1      35.245  33.984  13.050  1.00  0.00     0.002 C 
BRANCH  23  24
HETATM   24  C5  UNL     1      36.193  34.376  11.944  1.00  0.00     0.002 C 
BRANCH  24  25
HETATM   25  C4  UNL     1      36.934  35.607  12.424  1.00  0.00     0.020 C 
BRANCH  25  26
HETATM   26  C3  UNL     1      37.692  36.276  11.313  1.00  0.00     0.122 C 
BRANCH  26  27
HETATM   27  N1  UNL     1      38.078  37.624  11.652  1.00  0.00    -0.361 N 
HETATM   28  C2  UNL     1      39.417  38.085  11.474  1.00  0.00     0.213 C 
HETATM   29  C1  UNL     1      39.807  39.472  11.832  1.00  0.00     0.117 C 
HETATM   30  O1  UNL     1      40.314  37.348  11.010  1.00  0.00    -0.274 OA
ATOM     31  H1  UNL     1      37.377  38.262  12.028  1.00  0.00     0.162 HD
ENDBRANCH  26  27
ENDBRANCH  25  26
ENDBRANCH  24  25
ENDBRANCH  23  24
ENDBRANCH  22  23
ENDBRANCH  21  22
ENDBRANCH  19  21
ENDBRANCH   1  19
BRANCH  12  32
HETATM   32  O5  UNL     1      32.166  29.522   7.020  1.00  0.00    -0.347 OA
ATOM     33  H5  UNL     1      32.994  29.906   6.757  1.00  0.00     0.219 HD
ENDBRANCH  12  32
BRANCH  11  34
HETATM   34  O2  UNL     1      31.753  27.032   7.303  1.00  0.00    -0.381 OA
ATOM     35  H2  UNL     1      32.513  26.573   7.644  1.00  0.00     0.211 HD
ENDBRANCH  11  34
BRANCH  11  36
HETATM   36  C20 UNL     1      31.486  27.017   9.563  1.00  0.00     0.046 C 
BRANCH  36  37
HETATM   37  C21 UNL     1      30.714  25.731   9.486  1.00  0.00     0.004 C 
BRANCH  37  38
HETATM   38  C22 UNL     1      29.755  25.594  10.662  1.00  0.00     0.011 C 
BRANCH  38  39
HETATM   39  C23 UNL     1      30.156  24.328  11.389  1.00  0.00     0.113 C 
BRANCH  39  40
HETATM   40  C24 UNL     1      29.505  24.192  12.704  1.00  0.00     0.172 C 
HETATM   41  O3  UNL     1      29.185  25.228  13.327  1.00  0.00    -0.648 OA
HETATM   42  O4  UNL     1      29.288  22.904  13.168  1.00  0.00    -0.648 OA
ENDBRANCH  39  40
ENDBRANCH  38  39
ENDBRANCH  37  38
ENDBRANCH  36  37
ENDBRANCH  11  36
TORSDOF 15
ENDMDL
