MODEL 1
REMARK VINA RESULT: -8.791618354      0.000      0.000
REMARK  13 active torsions:
REMARK  status: ('A' for Active; 'I' for Inactive)
REMARK       I    between atoms: C1_2  and  N1_3 
REMARK       I    between atoms: C1_2  and  N2_21 
REMARK    1  A    between atoms: N1_3  and  C2_5 
REMARK    2  A    between atoms: C2_5  and  C3_6 
REMARK    3  A    between atoms: C3_6  and  C4_7 
REMARK    4  A    between atoms: C4_7  and  C5_8 
REMARK    5  A    between atoms: C5_8  and  C6_9 
REMARK    6  A    between atoms: C6_9  and  C7_10 
REMARK    7  A    between atoms: C7_10  and  C8_11 
REMARK    8  A    between atoms: N2_21  and  C18_23 
REMARK    9  A    between atoms: C18_23  and  C19_24 
REMARK   10  A    between atoms: C18_23  and  C30_41 
REMARK   11  A    between atoms: C19_24  and  C20_25 
REMARK   12  A    between atoms: C23_28  and  N3_29 
REMARK       I    between atoms: N3_29  and  C24_31 
REMARK   13  A    between atoms: C24_31  and  C25_33 
ROOT
HETATM    1  O1  UNL     1      32.643  27.203   9.624  1.00  0.00    -0.247 OA
HETATM    2  C1  UNL     1      32.773  27.659   8.463  1.00  0.00     0.316 C 
HETATM    3  N1  UNL     1      31.817  27.312   7.477  1.00  0.00    -0.343 N 
ATOM      4  H1  UNL     1      31.923  27.688   6.534  1.00  0.00     0.164 HD
HETATM    5  N2  UNL     1      33.851  28.513   8.108  1.00  0.00    -0.328 N 
ATOM      6  H2  UNL     1      33.921  28.871   7.156  1.00  0.00     0.165 HD
ENDROOT
BRANCH   5   7
HETATM    7  C18 UNL     1      34.859  28.881   9.098  1.00  0.00     0.191 C 
BRANCH   7   8
HETATM    8  C19 UNL     1      35.163  30.324   8.864  1.00  0.00     0.076 C 
BRANCH   8   9
HETATM    9  C20 UNL     1      35.076  31.206  10.026  1.00  0.00    -0.040 A 
HETATM   10  C21 UNL     1      36.077  32.101  10.323  1.00  0.00     0.012 A 
HETATM   11  C22 UNL     1      36.051  32.946  11.406  1.00  0.00     0.049 A 
HETATM   12  C23 UNL     1      34.940  32.900  12.264  1.00  0.00     0.107 A 
HETATM   13  N4  UNL     1      33.994  32.034  11.955  1.00  0.00    -0.352 N 
HETATM   14  C29 UNL     1      33.995  31.201  10.908  1.00  0.00     0.096 A 
ATOM     15  H4  UNL     1      33.184  31.996  12.574  1.00  0.00     0.166 HD
BRANCH  12  16
HETATM   16  N3  UNL     1      34.934  33.746  13.371  1.00  0.00    -0.311 N 
HETATM   17  C24 UNL     1      34.017  34.766  13.657  1.00  0.00     0.252 C 
HETATM   18  O2  UNL     1      34.198  35.378  14.773  1.00  0.00    -0.270 OA
ATOM     19  H3  UNL     1      35.681  33.607  14.050  1.00  0.00     0.170 HD
BRANCH  17  20
HETATM   20  C25 UNL     1      32.881  35.179  12.793  1.00  0.00     0.213 C 
HETATM   21  C26 UNL     1      32.243  36.385  13.408  1.00  0.00     0.044 C 
HETATM   22  C27 UNL     1      30.990  35.886  14.035  1.00  0.00     0.029 C 
HETATM   23  C28 UNL     1      31.049  34.402  13.835  1.00  0.00     0.168 C 
HETATM   24  O3  UNL     1      31.920  34.156  12.818  1.00  0.00    -0.376 OA
ENDBRANCH  17  20
ENDBRANCH  12  16
ENDBRANCH   8   9
ENDBRANCH   7   8
BRANCH   7  25
HETATM   25  C30 UNL     1      35.993  27.966   9.083  1.00  0.00     0.197 C 
HETATM   26  O4  UNL     1      35.871  26.699   9.124  1.00  0.00    -0.646 OA
HETATM   27  O5  UNL     1      37.282  28.434   9.023  1.00  0.00    -0.646 OA
ENDBRANCH   7  25
ENDBRANCH   5   7
BRANCH   3  28
HETATM   28  C2  UNL     1      30.720  26.461   7.756  1.00  0.00     0.124 C 
BRANCH  28  29
HETATM   29  C3  UNL     1      29.540  26.682   6.877  1.00  0.00     0.020 C 
BRANCH  29  30
HETATM   30  C4  UNL     1      29.010  28.094   7.053  1.00  0.00     0.002 C 
BRANCH  30  31
HETATM   31  C5  UNL     1      27.556  28.168   7.355  1.00  0.00     0.000 C 
BRANCH  31  32
HETATM   32  C6  UNL     1      27.272  28.875   8.669  1.00  0.00     0.001 C 
BRANCH  32  33
HETATM   33  C7  UNL     1      28.329  28.608   9.686  1.00  0.00     0.009 C 
BRANCH  33  34
HETATM   34  C8  UNL     1      28.690  29.798  10.512  1.00  0.00    -0.039 C 
HETATM   35  C9  UNL     1      27.832  30.993  10.062  1.00  0.00     0.014 C 
HETATM   36  C10 UNL     1      28.185  32.176  10.912  1.00  0.00    -0.013 C 
HETATM   37  C11 UNL     1      27.844  31.907  12.383  1.00  0.00     0.009 C 
HETATM   38  C15 UNL     1      29.638  32.548  10.856  1.00  0.00     0.009 C 
HETATM   39  C12 UNL     1      28.663  30.739  12.834  1.00  0.00    -0.013 C 
HETATM   40  C13 UNL     1      30.139  30.978  12.718  1.00  0.00     0.009 C 
HETATM   41  C17 UNL     1      28.310  29.546  11.949  1.00  0.00     0.014 C 
HETATM   42  C14 UNL     1      30.445  31.352  11.287  1.00  0.00    -0.013 C 
HETATM   43  C16 UNL     1      30.115  30.208  10.347  1.00  0.00     0.014 C 
ENDBRANCH  33  34
ENDBRANCH  32  33
ENDBRANCH  31  32
ENDBRANCH  30  31
ENDBRANCH  29  30
ENDBRANCH  28  29
ENDBRANCH   3  28
TORSDOF 13
ENDMDL
MODEL 2
REMARK VINA RESULT: -8.441517028      3.327      7.271
REMARK  13 active torsions:
REMARK  status: ('A' for Active; 'I' for Inactive)
REMARK       I    between atoms: C1_2  and  N1_3 
REMARK       I    between atoms: C1_2  and  N2_21 
REMARK    1  A    between atoms: N1_3  and  C2_5 
REMARK    2  A    between atoms: C2_5  and  C3_6 
REMARK    3  A    between atoms: C3_6  and  C4_7 
REMARK    4  A    between atoms: C4_7  and  C5_8 
REMARK    5  A    between atoms: C5_8  and  C6_9 
REMARK    6  A    between atoms: C6_9  and  C7_10 
REMARK    7  A    between atoms: C7_10  and  C8_11 
REMARK    8  A    between atoms: N2_21  and  C18_23 
REMARK    9  A    between atoms: C18_23  and  C19_24 
REMARK   10  A    between atoms: C18_23  and  C30_41 
REMARK   11  A    between atoms: C19_24  and  C20_25 
REMARK   12  A    between atoms: C23_28  and  N3_29 
REMARK       I    between atoms: N3_29  and  C24_31 
REMARK   13  A    between atoms: C24_31  and  C25_33 
ROOT
HETATM    1  O1  UNL     1      32.992  31.954   9.785  1.00  0.00    -0.247 OA
HETATM    2  C1  UNL     1      32.998  31.032  10.635  1.00  0.00     0.316 C 
HETATM    3  N1  UNL     1      34.009  30.043  10.570  1.00  0.00    -0.343 N 
ATOM      4  H1  UNL     1      34.014  29.296  11.265  1.00  0.00     0.164 HD
HETATM    5  N2  UNL     1      32.019  30.950  11.660  1.00  0.00    -0.328 N 
ATOM      6  H2  UNL     1      32.059  30.190  12.339  1.00  0.00     0.165 HD
ENDROOT
BRANCH   5   7
HETATM    7  C18 UNL     1      30.955  31.947  11.750  1.00  0.00     0.191 C 
BRANCH   7   8
HETATM    8  C19 UNL     1      30.981  32.457  13.152  1.00  0.00     0.076 C 
BRANCH   8   9
HETATM    9  C20 UNL     1      31.009  33.909  13.319  1.00  0.00    -0.040 A 
HETATM   10  C21 UNL     1      31.566  34.730  12.367  1.00  0.00     0.012 A 
HETATM   11  C22 UNL     1      31.627  36.098  12.478  1.00  0.00     0.049 A 
HETATM   12  C23 UNL     1      31.091  36.700  13.628  1.00  0.00     0.107 A 
HETATM   13  N4  UNL     1      30.562  35.890  14.525  1.00  0.00    -0.352 N 
HETATM   14  C29 UNL     1      30.490  34.557  14.440  1.00  0.00     0.096 A 
ATOM     15  H4  UNL     1      30.171  36.322  15.362  1.00  0.00     0.166 HD
BRANCH  12  16
HETATM   16  N3  UNL     1      31.178  38.086  13.740  1.00  0.00    -0.311 N 
HETATM   17  C24 UNL     1      30.138  38.984  14.014  1.00  0.00     0.252 C 
HETATM   18  O2  UNL     1      30.483  40.219  14.116  1.00  0.00    -0.270 OA
ATOM     19  H3  UNL     1      32.103  38.493  13.608  1.00  0.00     0.170 HD
BRANCH  17  20
HETATM   20  C25 UNL     1      28.707  38.626  14.195  1.00  0.00     0.213 C 
HETATM   21  C26 UNL     1      27.925  39.894  14.339  1.00  0.00     0.044 C 
HETATM   22  C27 UNL     1      27.610  39.994  15.790  1.00  0.00     0.029 C 
HETATM   23  C28 UNL     1      28.333  38.832  16.400  1.00  0.00     0.168 C 
HETATM   24  O3  UNL     1      28.581  37.932  15.409  1.00  0.00    -0.376 OA
ENDBRANCH  17  20
ENDBRANCH  12  16
ENDBRANCH   8   9
ENDBRANCH   7   8
BRANCH   7  25
HETATM   25  C30 UNL     1      29.683  31.426  11.268  1.00  0.00     0.197 C 
HETATM   26  O4  UNL     1      28.612  31.445  11.958  1.00  0.00    -0.646 OA
HETATM   27  O5  UNL     1      29.569  30.875  10.017  1.00  0.00    -0.646 OA
ENDBRANCH   7  25
ENDBRANCH   5   7
BRANCH   3  28
HETATM   28  C2  UNL     1      35.015  30.057   9.571  1.00  0.00     0.124 C 
BRANCH  28  29
HETATM   29  C3  UNL     1      36.390  30.271  10.097  1.00  0.00     0.020 C 
BRANCH  29  30
HETATM   30  C4  UNL     1      37.039  31.456   9.406  1.00  0.00     0.002 C 
BRANCH  30  31
HETATM   31  C5  UNL     1      36.389  32.762   9.691  1.00  0.00     0.000 C 
BRANCH  31  32
HETATM   32  C6  UNL     1      36.225  33.015  11.180  1.00  0.00     0.001 C 
BRANCH  32  33
HETATM   33  C7  UNL     1      36.396  34.455  11.522  1.00  0.00     0.009 C 
BRANCH  33  34
HETATM   34  C8  UNL     1      36.009  34.795  12.923  1.00  0.00    -0.039 C 
HETATM   35  C9  UNL     1      35.007  33.744  13.431  1.00  0.00     0.014 C 
HETATM   36  C10 UNL     1      34.643  34.080  14.845  1.00  0.00    -0.013 C 
HETATM   37  C11 UNL     1      35.875  34.003  15.755  1.00  0.00     0.009 C 
HETATM   38  C15 UNL     1      34.059  35.453  15.008  1.00  0.00     0.009 C 
HETATM   39  C12 UNL     1      36.865  35.013  15.268  1.00  0.00    -0.013 C 
HETATM   40  C13 UNL     1      36.333  36.416  15.296  1.00  0.00     0.009 C 
HETATM   41  C17 UNL     1      37.213  34.673  13.821  1.00  0.00     0.014 C 
HETATM   42  C14 UNL     1      35.058  36.452  14.488  1.00  0.00    -0.013 C 
HETATM   43  C16 UNL     1      35.330  36.119  13.032  1.00  0.00     0.014 C 
ENDBRANCH  33  34
ENDBRANCH  32  33
ENDBRANCH  31  32
ENDBRANCH  30  31
ENDBRANCH  29  30
ENDBRANCH  28  29
ENDBRANCH   3  28
TORSDOF 13
ENDMDL
MODEL 3
REMARK VINA RESULT: -8.080676398      1.325      2.263
REMARK  13 active torsions:
REMARK  status: ('A' for Active; 'I' for Inactive)
REMARK       I    between atoms: C1_2  and  N1_3 
REMARK       I    between atoms: C1_2  and  N2_21 
REMARK    1  A    between atoms: N1_3  and  C2_5 
REMARK    2  A    between atoms: C2_5  and  C3_6 
REMARK    3  A    between atoms: C3_6  and  C4_7 
REMARK    4  A    between atoms: C4_7  and  C5_8 
REMARK    5  A    between atoms: C5_8  and  C6_9 
REMARK    6  A    between atoms: C6_9  and  C7_10 
REMARK    7  A    between atoms: C7_10  and  C8_11 
REMARK    8  A    between atoms: N2_21  and  C18_23 
REMARK    9  A    between atoms: C18_23  and  C19_24 
REMARK   10  A    between atoms: C18_23  and  C30_41 
REMARK   11  A    between atoms: C19_24  and  C20_25 
REMARK   12  A    between atoms: C23_28  and  N3_29 
REMARK       I    between atoms: N3_29  and  C24_31 
REMARK   13  A    between atoms: C24_31  and  C25_33 
ROOT
HETATM    1  O1  UNL     1      32.728  27.258   9.773  1.00  0.00    -0.247 OA
HETATM    2  C1  UNL     1      32.837  27.803   8.649  1.00  0.00     0.316 C 
HETATM    3  N1  UNL     1      31.805  27.624   7.696  1.00  0.00    -0.343 N 
ATOM      4  H1  UNL     1      31.893  28.071   6.783  1.00  0.00     0.164 HD
HETATM    5  N2  UNL     1      33.965  28.593   8.303  1.00  0.00    -0.328 N 
ATOM      6  H2  UNL     1      34.016  29.027   7.382  1.00  0.00     0.165 HD
ENDROOT
BRANCH   5   7
HETATM    7  C18 UNL     1      35.052  28.789   9.258  1.00  0.00     0.191 C 
BRANCH   7   8
HETATM    8  C19 UNL     1      35.413  30.235   9.186  1.00  0.00     0.076 C 
BRANCH   8   9
HETATM    9  C20 UNL     1      35.009  31.068  10.317  1.00  0.00    -0.040 A 
HETATM   10  C21 UNL     1      33.736  31.007  10.833  1.00  0.00     0.012 A 
HETATM   11  C22 UNL     1      33.301  31.773  11.887  1.00  0.00     0.049 A 
HETATM   12  C23 UNL     1      34.203  32.672  12.478  1.00  0.00     0.107 A 
HETATM   13  N4  UNL     1      35.418  32.710  11.964  1.00  0.00    -0.352 N 
HETATM   14  C29 UNL     1      35.866  31.975  10.939  1.00  0.00     0.096 A 
ATOM     15  H4  UNL     1      36.079  33.360  12.389  1.00  0.00     0.166 HD
BRANCH  12  16
HETATM   16  N3  UNL     1      33.746  33.460  13.532  1.00  0.00    -0.311 N 
HETATM   17  C24 UNL     1      34.485  34.373  14.295  1.00  0.00     0.252 C 
HETATM   18  O2  UNL     1      33.820  35.018  15.187  1.00  0.00    -0.270 OA
ATOM     19  H3  UNL     1      32.761  33.359  13.777  1.00  0.00     0.170 HD
BRANCH  17  20
HETATM   20  C25 UNL     1      35.938  34.648  14.152  1.00  0.00     0.213 C 
HETATM   21  C26 UNL     1      36.381  35.442  15.340  1.00  0.00     0.044 C 
HETATM   22  C27 UNL     1      36.534  36.836  14.841  1.00  0.00     0.029 C 
HETATM   23  C28 UNL     1      36.058  36.769  13.422  1.00  0.00     0.168 C 
HETATM   24  O3  UNL     1      36.119  35.467  13.026  1.00  0.00    -0.376 OA
ENDBRANCH  17  20
ENDBRANCH  12  16
ENDBRANCH   8   9
ENDBRANCH   7   8
BRANCH   7  25
HETATM   25  C30 UNL     1      36.134  27.835   9.051  1.00  0.00     0.197 C 
HETATM   26  O4  UNL     1      35.950  26.579   8.949  1.00  0.00    -0.646 OA
HETATM   27  O5  UNL     1      37.438  28.251   8.955  1.00  0.00    -0.646 OA
ENDBRANCH   7  25
ENDBRANCH   5   7
BRANCH   3  28
HETATM   28  C2  UNL     1      30.653  26.844   7.968  1.00  0.00     0.124 C 
BRANCH  28  29
HETATM   29  C3  UNL     1      29.781  26.615   6.785  1.00  0.00     0.020 C 
BRANCH  29  30
HETATM   30  C4  UNL     1      28.536  27.479   6.874  1.00  0.00     0.002 C 
BRANCH  30  31
HETATM   31  C5  UNL     1      28.796  28.939   6.767  1.00  0.00     0.000 C 
BRANCH  31  32
HETATM   32  C6  UNL     1      27.809  29.764   7.574  1.00  0.00     0.001 C 
BRANCH  32  33
HETATM   33  C7  UNL     1      27.623  29.222   8.950  1.00  0.00     0.009 C 
BRANCH  33  34
HETATM   34  C8  UNL     1      28.116  30.127  10.029  1.00  0.00    -0.039 C 
HETATM   35  C9  UNL     1      27.563  29.639  11.379  1.00  0.00     0.014 C 
HETATM   36  C10 UNL     1      28.082  30.540  12.458  1.00  0.00    -0.013 C 
HETATM   37  C11 UNL     1      29.610  30.458  12.543  1.00  0.00     0.009 C 
HETATM   38  C15 UNL     1      27.727  31.985  12.260  1.00  0.00     0.009 C 
HETATM   39  C12 UNL     1      30.165  30.920  11.233  1.00  0.00    -0.013 C 
HETATM   40  C13 UNL     1      29.777  32.330  10.896  1.00  0.00     0.009 C 
HETATM   41  C17 UNL     1      29.615  30.009  10.140  1.00  0.00     0.014 C 
HETATM   42  C14 UNL     1      28.271  32.423  10.926  1.00  0.00    -0.013 C 
HETATM   43  C16 UNL     1      27.652  31.536   9.861  1.00  0.00     0.014 C 
ENDBRANCH  33  34
ENDBRANCH  32  33
ENDBRANCH  31  32
ENDBRANCH  30  31
ENDBRANCH  29  30
ENDBRANCH  28  29
ENDBRANCH   3  28
TORSDOF 13
ENDMDL
MODEL 4
REMARK VINA RESULT: -8.044111688      3.972      8.504
REMARK  13 active torsions:
REMARK  status: ('A' for Active; 'I' for Inactive)
REMARK       I    between atoms: C1_2  and  N1_3 
REMARK       I    between atoms: C1_2  and  N2_21 
REMARK    1  A    between atoms: N1_3  and  C2_5 
REMARK    2  A    between atoms: C2_5  and  C3_6 
REMARK    3  A    between atoms: C3_6  and  C4_7 
REMARK    4  A    between atoms: C4_7  and  C5_8 
REMARK    5  A    between atoms: C5_8  and  C6_9 
REMARK    6  A    between atoms: C6_9  and  C7_10 
REMARK    7  A    between atoms: C7_10  and  C8_11 
REMARK    8  A    between atoms: N2_21  and  C18_23 
REMARK    9  A    between atoms: C18_23  and  C19_24 
REMARK   10  A    between atoms: C18_23  and  C30_41 
REMARK   11  A    between atoms: C19_24  and  C20_25 
REMARK   12  A    between atoms: C23_28  and  N3_29 
REMARK       I    between atoms: N3_29  and  C24_31 
REMARK   13  A    between atoms: C24_31  and  C25_33 
ROOT
HETATM    1  O1  UNL     1      32.967  32.046   9.703  1.00  0.00    -0.247 OA
HETATM    2  C1  UNL     1      33.130  31.254  10.662  1.00  0.00     0.316 C 
HETATM    3  N1  UNL     1      34.422  30.728  10.907  1.00  0.00    -0.343 N 
ATOM      4  H1  UNL     1      34.553  30.087  11.690  1.00  0.00     0.164 HD
HETATM    5  N2  UNL     1      32.057  30.870  11.509  1.00  0.00    -0.328 N 
ATOM      6  H2  UNL     1      32.228  30.229  12.284  1.00  0.00     0.165 HD
ENDROOT
BRANCH   5   7
HETATM    7  C18 UNL     1      30.711  31.385  11.278  1.00  0.00     0.191 C 
BRANCH   7   8
HETATM    8  C19 UNL     1      30.277  32.005  12.564  1.00  0.00     0.076 C 
BRANCH   8   9
HETATM    9  C20 UNL     1      30.907  33.274  12.923  1.00  0.00    -0.040 A 
HETATM   10  C21 UNL     1      31.186  34.230  11.975  1.00  0.00     0.012 A 
HETATM   11  C22 UNL     1      31.785  35.434  12.255  1.00  0.00     0.049 A 
HETATM   12  C23 UNL     1      32.135  35.713  13.586  1.00  0.00     0.107 A 
HETATM   13  N4  UNL     1      31.856  34.780  14.476  1.00  0.00    -0.352 N 
HETATM   14  C29 UNL     1      31.274  33.600  14.229  1.00  0.00     0.096 A 
ATOM     15  H4  UNL     1      32.107  34.976  15.445  1.00  0.00     0.166 HD
BRANCH  12  16
HETATM   16  N3  UNL     1      32.762  36.927  13.857  1.00  0.00    -0.311 N 
HETATM   17  C24 UNL     1      32.163  38.112  14.307  1.00  0.00     0.252 C 
HETATM   18  O2  UNL     1      32.968  39.089  14.531  1.00  0.00    -0.270 OA
ATOM     19  H3  UNL     1      33.771  36.958  13.711  1.00  0.00     0.170 HD
BRANCH  17  20
HETATM   20  C25 UNL     1      30.710  38.315  14.541  1.00  0.00     0.213 C 
HETATM   21  C26 UNL     1      30.504  39.731  14.979  1.00  0.00     0.044 C 
HETATM   22  C27 UNL     1      30.264  39.654  16.445  1.00  0.00     0.029 C 
HETATM   23  C28 UNL     1      30.462  38.205  16.771  1.00  0.00     0.168 C 
HETATM   24  O3  UNL     1      30.323  37.498  15.616  1.00  0.00    -0.376 OA
ENDBRANCH  17  20
ENDBRANCH  12  16
ENDBRANCH   8   9
ENDBRANCH   7   8
BRANCH   7  25
HETATM   25  C30 UNL     1      29.831  30.369  10.715  1.00  0.00     0.197 C 
HETATM   26  O4  UNL     1      29.847  30.032   9.487  1.00  0.00    -0.646 OA
HETATM   27  O5  UNL     1      28.917  29.709  11.497  1.00  0.00    -0.646 OA
ENDBRANCH   7  25
ENDBRANCH   5   7
BRANCH   3  28
HETATM   28  C2  UNL     1      35.538  31.062  10.101  1.00  0.00     0.124 C 
BRANCH  28  29
HETATM   29  C3  UNL     1      36.616  31.787  10.825  1.00  0.00     0.020 C 
BRANCH  29  30
HETATM   30  C4  UNL     1      36.496  33.282  10.590  1.00  0.00     0.002 C 
BRANCH  30  31
HETATM   31  C5  UNL     1      36.069  34.057  11.784  1.00  0.00     0.000 C 
BRANCH  31  32
HETATM   32  C6  UNL     1      36.951  35.267  12.036  1.00  0.00     0.001 C 
BRANCH  32  33
HETATM   33  C7  UNL     1      37.608  35.748  10.787  1.00  0.00     0.009 C 
BRANCH  33  34
HETATM   34  C8  UNL     1      38.001  37.187  10.825  1.00  0.00    -0.039 C 
HETATM   35  C9  UNL     1      39.532  37.282  10.941  1.00  0.00     0.014 C 
HETATM   36  C10 UNL     1      39.918  38.730  10.955  1.00  0.00    -0.013 C 
HETATM   37  C11 UNL     1      39.525  39.407   9.637  1.00  0.00     0.009 C 
HETATM   38  C15 UNL     1      39.278  39.514  12.063  1.00  0.00     0.009 C 
HETATM   39  C12 UNL     1      38.038  39.315   9.502  1.00  0.00    -0.013 C 
HETATM   40  C13 UNL     1      37.305  39.986  10.626  1.00  0.00     0.009 C 
HETATM   41  C17 UNL     1      37.654  37.837   9.510  1.00  0.00     0.014 C 
HETATM   42  C14 UNL     1      37.784  39.386  11.926  1.00  0.00    -0.013 C 
HETATM   43  C16 UNL     1      37.438  37.911  12.001  1.00  0.00     0.014 C 
ENDBRANCH  33  34
ENDBRANCH  32  33
ENDBRANCH  31  32
ENDBRANCH  30  31
ENDBRANCH  29  30
ENDBRANCH  28  29
ENDBRANCH   3  28
TORSDOF 13
ENDMDL
MODEL 5
REMARK VINA RESULT: -8.043594168      4.519      9.573
REMARK  13 active torsions:
REMARK  status: ('A' for Active; 'I' for Inactive)
REMARK       I    between atoms: C1_2  and  N1_3 
REMARK       I    between atoms: C1_2  and  N2_21 
REMARK    1  A    between atoms: N1_3  and  C2_5 
REMARK    2  A    between atoms: C2_5  and  C3_6 
REMARK    3  A    between atoms: C3_6  and  C4_7 
REMARK    4  A    between atoms: C4_7  and  C5_8 
REMARK    5  A    between atoms: C5_8  and  C6_9 
REMARK    6  A    between atoms: C6_9  and  C7_10 
REMARK    7  A    between atoms: C7_10  and  C8_11 
REMARK    8  A    between atoms: N2_21  and  C18_23 
REMARK    9  A    between atoms: C18_23  and  C19_24 
REMARK   10  A    between atoms: C18_23  and  C30_41 
REMARK   11  A    between atoms: C19_24  and  C20_25 
REMARK   12  A    between atoms: C23_28  and  N3_29 
REMARK       I    between atoms: N3_29  and  C24_31 
REMARK   13  A    between atoms: C24_31  and  C25_33 
ROOT
HETATM    1  O1  UNL     1      34.904  34.128  12.451  1.00  0.00    -0.247 OA
HETATM    2  C1  UNL     1      34.430  33.438  13.385  1.00  0.00     0.316 C 
HETATM    3  N1  UNL     1      35.136  33.361  14.610  1.00  0.00    -0.343 N 
ATOM      4  H1  UNL     1      34.746  32.803  15.370  1.00  0.00     0.164 HD
HETATM    5  N2  UNL     1      33.206  32.731  13.249  1.00  0.00    -0.328 N 
ATOM      6  H2  UNL     1      32.846  32.186  14.033  1.00  0.00     0.165 HD
ENDROOT
BRANCH   5   7
HETATM    7  C18 UNL     1      32.458  32.780  11.996  1.00  0.00     0.191 C 
BRANCH   7   8
HETATM    8  C19 UNL     1      31.138  33.394  12.324  1.00  0.00     0.076 C 
BRANCH   8   9
HETATM    9  C20 UNL     1      31.169  34.705  12.970  1.00  0.00    -0.040 A 
HETATM   10  C21 UNL     1      31.735  35.795  12.352  1.00  0.00     0.012 A 
HETATM   11  C22 UNL     1      31.799  37.047  12.916  1.00  0.00     0.049 A 
HETATM   12  C23 UNL     1      31.257  37.230  14.199  1.00  0.00     0.107 A 
HETATM   13  N4  UNL     1      30.720  36.168  14.768  1.00  0.00    -0.352 N 
HETATM   14  C29 UNL     1      30.644  34.941  14.241  1.00  0.00     0.096 A 
ATOM     15  H4  UNL     1      30.324  36.296  15.699  1.00  0.00     0.166 HD
BRANCH  12  16
HETATM   16  N3  UNL     1      31.347  38.497  14.771  1.00  0.00    -0.311 N 
HETATM   17  C24 UNL     1      30.309  39.418  14.966  1.00  0.00     0.252 C 
HETATM   18  O2  UNL     1      30.639  40.508  15.564  1.00  0.00    -0.270 OA
ATOM     19  H3  UNL     1      32.273  38.788  15.083  1.00  0.00     0.170 HD
BRANCH  17  20
HETATM   20  C25 UNL     1      28.895  39.233  14.549  1.00  0.00     0.213 C 
HETATM   21  C26 UNL     1      28.141  40.478  14.896  1.00  0.00     0.044 C 
HETATM   22  C27 UNL     1      27.351  40.130  16.108  1.00  0.00     0.029 C 
HETATM   23  C28 UNL     1      27.793  38.738  16.443  1.00  0.00     0.168 C 
HETATM   24  O3  UNL     1      28.344  38.198  15.322  1.00  0.00    -0.376 OA
ENDBRANCH  17  20
ENDBRANCH  12  16
ENDBRANCH   8   9
ENDBRANCH   7   8
BRANCH   7  25
HETATM   25  C30 UNL     1      32.427  31.483  11.332  1.00  0.00     0.197 C 
HETATM   26  O4  UNL     1      31.509  31.132  10.523  1.00  0.00    -0.646 OA
HETATM   27  O5  UNL     1      33.410  30.551  11.552  1.00  0.00    -0.646 OA
ENDBRANCH   7  25
ENDBRANCH   5   7
BRANCH   3  28
HETATM   28  C2  UNL     1      36.366  34.034  14.816  1.00  0.00     0.124 C 
BRANCH  28  29
HETATM   29  C3  UNL     1      36.262  35.239  15.682  1.00  0.00     0.020 C 
BRANCH  29  30
HETATM   30  C4  UNL     1      36.472  36.498  14.861  1.00  0.00     0.002 C 
BRANCH  30  31
HETATM   31  C5  UNL     1      35.242  37.009  14.199  1.00  0.00     0.000 C 
BRANCH  31  32
HETATM   32  C6  UNL     1      35.521  38.199  13.298  1.00  0.00     0.001 C 
BRANCH  32  33
HETATM   33  C7  UNL     1      36.928  38.674  13.421  1.00  0.00     0.009 C 
BRANCH  33  34
HETATM   34  C8  UNL     1      37.674  38.701  12.128  1.00  0.00    -0.039 C 
HETATM   35  C9  UNL     1      39.071  39.295  12.373  1.00  0.00     0.014 C 
HETATM   36  C10 UNL     1      39.820  39.297  11.074  1.00  0.00    -0.013 C 
HETATM   37  C11 UNL     1      40.023  37.866  10.565  1.00  0.00     0.009 C 
HETATM   38  C15 UNL     1      39.131  40.061   9.982  1.00  0.00     0.009 C 
HETATM   39  C12 UNL     1      38.672  37.268  10.331  1.00  0.00    -0.013 C 
HETATM   40  C13 UNL     1      37.861  38.027   9.322  1.00  0.00     0.009 C 
HETATM   41  C17 UNL     1      37.911  37.290  11.655  1.00  0.00     0.014 C 
HETATM   42  C14 UNL     1      37.764  39.463   9.781  1.00  0.00    -0.013 C 
HETATM   43  C16 UNL     1      37.018  39.560  11.099  1.00  0.00     0.014 C 
ENDBRANCH  33  34
ENDBRANCH  32  33
ENDBRANCH  31  32
ENDBRANCH  30  31
ENDBRANCH  29  30
ENDBRANCH  28  29
ENDBRANCH   3  28
TORSDOF 13
ENDMDL
