MODEL 1
REMARK VINA RESULT: -7.425521706      0.000      0.000
REMARK  14 active torsions:
REMARK  status: ('A' for Active; 'I' for Inactive)
REMARK    1  A    between atoms: C2_2  and  C3_3 
REMARK    2  A    between atoms: C2_2  and  N2_31 
REMARK    3  A    between atoms: C3_3  and  C4_4 
REMARK    4  A    between atoms: C4_4  and  C5_5 
REMARK    5  A    between atoms: C5_5  and  C6_6 
REMARK    6  A    between atoms: C6_6  and  C7_7 
REMARK    7  A    between atoms: C7_7  and  C8_9 
REMARK    8  A    between atoms: C8_9  and  C9_10 
REMARK    9  A    between atoms: N2_31  and  C26_34 
REMARK   10  A    between atoms: C26_34  and  C27_35 
REMARK   11  A    between atoms: C27_35  and  N3_36 
REMARK   12  A    between atoms: N3_36  and  C28_39 
REMARK   13  A    between atoms: C28_39  and  C29_40 
REMARK   14  A    between atoms: C29_40  and  C30_41 
ROOT
HETATM    1  C9  UNL     1      33.783  31.959  11.684  1.00  0.00    -0.071 C 
HETATM    2  C10 UNL     1      34.752  32.792  12.154  1.00  0.00    -0.022 C 
HETATM    3  C11 UNL     1      35.869  32.883  11.136  1.00  0.00     0.040 C 
HETATM    4  C12 UNL     1      35.728  31.475  10.568  1.00  0.00     0.067 C 
HETATM    5  C13 UNL     1      36.275  31.312   9.234  1.00  0.00     0.132 C 
HETATM    6  O2  UNL     1      37.462  31.052   9.075  1.00  0.00    -0.298 OA
HETATM    7  C14 UNL     1      35.371  31.464   8.064  1.00  0.00     0.084 C 
HETATM    8  C15 UNL     1      34.080  30.678   8.174  1.00  0.00     0.011 C 
HETATM    9  C16 UNL     1      33.759  30.395   9.649  1.00  0.00     0.000 C 
HETATM   10  C17 UNL     1      34.333  29.104  10.102  1.00  0.00     0.008 C 
HETATM   11  C18 UNL     1      33.561  28.036   9.296  1.00  0.00     0.026 C 
HETATM   12  C19 UNL     1      34.105  28.172   7.906  1.00  0.00     0.097 C 
HETATM   13  N1  UNL     1      33.664  27.085   7.090  1.00  0.00    -0.352 N 
ATOM     14  H1  UNL     1      34.210  26.225   7.039  1.00  0.00     0.163 HD
HETATM   15  C20 UNL     1      32.460  27.213   6.351  1.00  0.00     0.241 C 
HETATM   16  O3  UNL     1      31.816  26.185   5.952  1.00  0.00    -0.269 OA
HETATM   17  C21 UNL     1      32.000  28.561   6.070  1.00  0.00     0.071 C 
HETATM   18  C22 UNL     1      32.684  29.575   6.493  1.00  0.00    -0.009 C 
HETATM   19  C23 UNL     1      33.963  29.518   7.280  1.00  0.00    -0.001 C 
HETATM   20  C24 UNL     1      35.034  29.539   6.160  1.00  0.00     0.022 C 
HETATM   21  C25 UNL     1      34.202  31.576  10.370  1.00  0.00     0.030 C 
ENDROOT
BRANCH   1  22
HETATM   22  C8  UNL     1      32.566  31.707  12.536  1.00  0.00     0.112 C 
BRANCH  22  23
HETATM   23  C7  UNL     1      31.689  32.884  12.577  1.00  0.00     0.130 C 
HETATM   24  O1  UNL     1      31.682  33.490  13.668  1.00  0.00    -0.298 OA
BRANCH  23  25
HETATM   25  C6  UNL     1      30.828  33.422  11.508  1.00  0.00     0.078 C 
BRANCH  25  26
HETATM   26  C5  UNL     1      29.815  32.360  11.128  1.00  0.00     0.007 C 
BRANCH  26  27
HETATM   27  C4  UNL     1      28.917  31.916  12.206  1.00  0.00     0.002 C 
BRANCH  27  28
HETATM   28  C3  UNL     1      28.232  30.622  12.134  1.00  0.00     0.032 C 
BRANCH  28  29
HETATM   29  C2  UNL     1      28.380  29.782  10.927  1.00  0.00     0.182 C 
HETATM   30  C1  UNL     1      27.197  29.565  10.056  1.00  0.00     0.040 C 
BRANCH  29  31
HETATM   31  N2  UNL     1      28.995  28.486  11.220  1.00  0.00    -0.070 N 
ATOM     32  H22 UNL     1      29.669  28.559  11.983  1.00  0.00     0.277 HD
ATOM     33  H21 UNL     1      28.329  27.849  11.656  1.00  0.00     0.277 HD
BRANCH  31  34
HETATM   34  C26 UNL     1      29.587  27.904  10.058  1.00  0.00     0.260 C 
BRANCH  34  35
HETATM   35  C27 UNL     1      29.719  26.414  10.231  1.00  0.00     0.259 C 
BRANCH  35  36
HETATM   36  N3  UNL     1      30.919  26.036  10.912  1.00  0.00    -0.073 N 
ATOM     37  H32 UNL     1      31.670  25.842  10.251  1.00  0.00     0.277 HD
ATOM     38  H31 UNL     1      31.331  26.831  11.400  1.00  0.00     0.277 HD
BRANCH  36  39
HETATM   39  C28 UNL     1      30.717  24.918  11.814  1.00  0.00     0.233 C 
BRANCH  39  40
HETATM   40  C29 UNL     1      29.480  25.245  12.638  1.00  0.00     0.038 C 
BRANCH  40  41
HETATM   41  C30 UNL     1      29.085  24.126  13.571  1.00  0.00     0.088 C 
HETATM   42  S1  UNL     1      28.215  24.742  15.042  1.00  0.00    -0.098 SA
ENDBRANCH  40  41
ENDBRANCH  39  40
ENDBRANCH  36  39
ENDBRANCH  35  36
ENDBRANCH  34  35
ENDBRANCH  31  34
ENDBRANCH  29  31
ENDBRANCH  28  29
ENDBRANCH  27  28
ENDBRANCH  26  27
ENDBRANCH  25  26
ENDBRANCH  23  25
ENDBRANCH  22  23
ENDBRANCH   1  22
TORSDOF 14
ENDMDL
MODEL 2
REMARK VINA RESULT: -7.373867543      7.422     10.422
REMARK  14 active torsions:
REMARK  status: ('A' for Active; 'I' for Inactive)
REMARK    1  A    between atoms: C2_2  and  C3_3 
REMARK    2  A    between atoms: C2_2  and  N2_31 
REMARK    3  A    between atoms: C3_3  and  C4_4 
REMARK    4  A    between atoms: C4_4  and  C5_5 
REMARK    5  A    between atoms: C5_5  and  C6_6 
REMARK    6  A    between atoms: C6_6  and  C7_7 
REMARK    7  A    between atoms: C7_7  and  C8_9 
REMARK    8  A    between atoms: C8_9  and  C9_10 
REMARK    9  A    between atoms: N2_31  and  C26_34 
REMARK   10  A    between atoms: C26_34  and  C27_35 
REMARK   11  A    between atoms: C27_35  and  N3_36 
REMARK   12  A    between atoms: N3_36  and  C28_39 
REMARK   13  A    between atoms: C28_39  and  C29_40 
REMARK   14  A    between atoms: C29_40  and  C30_41 
ROOT
HETATM    1  C9  UNL     1      32.959  37.636  13.426  1.00  0.00    -0.071 C 
HETATM    2  C10 UNL     1      34.188  38.098  13.787  1.00  0.00    -0.022 C 
HETATM    3  C11 UNL     1      35.176  36.950  13.776  1.00  0.00     0.040 C 
HETATM    4  C12 UNL     1      34.194  35.847  14.159  1.00  0.00     0.067 C 
HETATM    5  C13 UNL     1      34.617  34.513  13.778  1.00  0.00     0.132 C 
HETATM    6  O2  UNL     1      35.346  33.857  14.513  1.00  0.00    -0.298 OA
HETATM    7  C14 UNL     1      34.150  33.954  12.483  1.00  0.00     0.084 C 
HETATM    8  C15 UNL     1      32.658  34.089  12.253  1.00  0.00     0.011 C 
HETATM    9  C16 UNL     1      32.097  35.240  13.100  1.00  0.00     0.000 C 
HETATM   10  C17 UNL     1      31.632  34.775  14.429  1.00  0.00     0.008 C 
HETATM   11  C18 UNL     1      30.426  33.862  14.116  1.00  0.00     0.026 C 
HETATM   12  C19 UNL     1      31.050  32.630  13.532  1.00  0.00     0.097 C 
HETATM   13  N1  UNL     1      30.079  31.588  13.414  1.00  0.00    -0.352 N 
ATOM     14  H1  UNL     1      29.924  30.940  14.186  1.00  0.00     0.163 HD
HETATM   15  C20 UNL     1      29.332  31.464  12.215  1.00  0.00     0.241 C 
HETATM   16  O3  UNL     1      28.211  30.854  12.193  1.00  0.00    -0.269 OA
HETATM   17  C21 UNL     1      29.904  32.058  11.020  1.00  0.00     0.071 C 
HETATM   18  C22 UNL     1      31.044  32.667  11.085  1.00  0.00    -0.009 C 
HETATM   19  C23 UNL     1      31.889  32.839  12.317  1.00  0.00    -0.001 C 
HETATM   20  C24 UNL     1      32.804  31.590  12.259  1.00  0.00     0.022 C 
HETATM   21  C25 UNL     1      33.140  36.252  13.108  1.00  0.00     0.030 C 
ENDROOT
BRANCH   1  22
HETATM   22  C8  UNL     1      31.807  38.605  13.372  1.00  0.00     0.112 C 
BRANCH  22  23
HETATM   23  C7  UNL     1      31.339  38.956  14.718  1.00  0.00     0.130 C 
HETATM   24  O1  UNL     1      31.354  40.178  14.973  1.00  0.00    -0.298 OA
BRANCH  23  25
HETATM   25  C6  UNL     1      30.866  38.057  15.787  1.00  0.00     0.078 C 
BRANCH  25  26
HETATM   26  C5  UNL     1      30.073  38.876  16.786  1.00  0.00     0.007 C 
BRANCH  26  27
HETATM   27  C4  UNL     1      28.610  38.847  16.620  1.00  0.00     0.002 C 
BRANCH  27  28
HETATM   28  C3  UNL     1      27.889  39.998  16.068  1.00  0.00     0.032 C 
BRANCH  28  29
HETATM   29  C2  UNL     1      27.668  40.091  14.609  1.00  0.00     0.182 C 
HETATM   30  C1  UNL     1      27.578  38.837  13.818  1.00  0.00     0.040 C 
BRANCH  29  31
HETATM   31  N2  UNL     1      28.617  40.994  13.956  1.00  0.00    -0.070 N 
ATOM     32  H22 UNL     1      29.550  40.908  14.360  1.00  0.00     0.277 HD
ATOM     33  H21 UNL     1      28.826  40.690  13.006  1.00  0.00     0.277 HD
BRANCH  31  34
HETATM   34  C26 UNL     1      28.164  42.348  13.980  1.00  0.00     0.260 C 
BRANCH  34  35
HETATM   35  C27 UNL     1      29.323  43.282  14.206  1.00  0.00     0.259 C 
BRANCH  35  36
HETATM   36  N3  UNL     1      30.219  42.823  15.222  1.00  0.00    -0.073 N 
ATOM     37  H32 UNL     1      30.011  41.860  15.487  1.00  0.00     0.277 HD
ATOM     38  H31 UNL     1      31.160  42.691  14.850  1.00  0.00     0.277 HD
BRANCH  36  39
HETATM   39  C28 UNL     1      30.233  43.691  16.384  1.00  0.00     0.233 C 
BRANCH  39  40
HETATM   40  C29 UNL     1      29.798  42.839  17.567  1.00  0.00     0.038 C 
BRANCH  40  41
HETATM   41  C30 UNL     1      28.384  43.129  18.008  1.00  0.00     0.088 C 
HETATM   42  S1  UNL     1      27.920  44.860  17.708  1.00  0.00    -0.098 SA
ENDBRANCH  40  41
ENDBRANCH  39  40
ENDBRANCH  36  39
ENDBRANCH  35  36
ENDBRANCH  34  35
ENDBRANCH  31  34
ENDBRANCH  29  31
ENDBRANCH  28  29
ENDBRANCH  27  28
ENDBRANCH  26  27
ENDBRANCH  25  26
ENDBRANCH  23  25
ENDBRANCH  22  23
ENDBRANCH   1  22
TORSDOF 14
ENDMDL
MODEL 3
REMARK VINA RESULT: -7.355307447      7.673     10.704
REMARK  14 active torsions:
REMARK  status: ('A' for Active; 'I' for Inactive)
REMARK    1  A    between atoms: C2_2  and  C3_3 
REMARK    2  A    between atoms: C2_2  and  N2_31 
REMARK    3  A    between atoms: C3_3  and  C4_4 
REMARK    4  A    between atoms: C4_4  and  C5_5 
REMARK    5  A    between atoms: C5_5  and  C6_6 
REMARK    6  A    between atoms: C6_6  and  C7_7 
REMARK    7  A    between atoms: C7_7  and  C8_9 
REMARK    8  A    between atoms: C8_9  and  C9_10 
REMARK    9  A    between atoms: N2_31  and  C26_34 
REMARK   10  A    between atoms: C26_34  and  C27_35 
REMARK   11  A    between atoms: C27_35  and  N3_36 
REMARK   12  A    between atoms: N3_36  and  C28_39 
REMARK   13  A    between atoms: C28_39  and  C29_40 
REMARK   14  A    between atoms: C29_40  and  C30_41 
ROOT
HETATM    1  C9  UNL     1      32.950  37.818  13.447  1.00  0.00    -0.071 C 
HETATM    2  C10 UNL     1      34.168  38.297  13.825  1.00  0.00    -0.022 C 
HETATM    3  C11 UNL     1      35.169  37.161  13.838  1.00  0.00     0.040 C 
HETATM    4  C12 UNL     1      34.194  36.048  14.211  1.00  0.00     0.067 C 
HETATM    5  C13 UNL     1      34.640  34.717  13.845  1.00  0.00     0.132 C 
HETATM    6  O2  UNL     1      35.364  34.074  14.596  1.00  0.00    -0.298 OA
HETATM    7  C14 UNL     1      34.200  34.145  12.546  1.00  0.00     0.084 C 
HETATM    8  C15 UNL     1      32.711  34.260  12.291  1.00  0.00     0.011 C 
HETATM    9  C16 UNL     1      32.122  35.410  13.122  1.00  0.00     0.000 C 
HETATM   10  C17 UNL     1      31.641  34.947  14.446  1.00  0.00     0.008 C 
HETATM   11  C18 UNL     1      30.452  34.017  14.119  1.00  0.00     0.026 C 
HETATM   12  C19 UNL     1      31.099  32.790  13.553  1.00  0.00     0.097 C 
HETATM   13  N1  UNL     1      30.143  31.736  13.425  1.00  0.00    -0.352 N 
ATOM     14  H1  UNL     1      29.983  31.090  14.198  1.00  0.00     0.163 HD
HETATM   15  C20 UNL     1      29.417  31.596  12.214  1.00  0.00     0.241 C 
HETATM   16  O3  UNL     1      28.304  30.973  12.178  1.00  0.00    -0.269 OA
HETATM   17  C21 UNL     1      30.001  32.190  11.025  1.00  0.00     0.071 C 
HETATM   18  C22 UNL     1      31.133  32.813  11.106  1.00  0.00    -0.009 C 
HETATM   19  C23 UNL     1      31.955  33.002  12.350  1.00  0.00    -0.001 C 
HETATM   20  C24 UNL     1      32.886  31.764  12.314  1.00  0.00     0.022 C 
HETATM   21  C25 UNL     1      33.153  36.434  13.141  1.00  0.00     0.030 C 
ENDROOT
BRANCH   1  22
HETATM   22  C8  UNL     1      31.787  38.773  13.369  1.00  0.00     0.112 C 
BRANCH  22  23
HETATM   23  C7  UNL     1      31.273  39.101  14.704  1.00  0.00     0.130 C 
HETATM   24  O1  UNL     1      31.436  40.289  15.048  1.00  0.00    -0.298 OA
BRANCH  23  25
HETATM   25  C6  UNL     1      30.603  38.212  15.671  1.00  0.00     0.078 C 
BRANCH  25  26
HETATM   26  C5  UNL     1      29.381  37.611  15.004  1.00  0.00     0.007 C 
BRANCH  26  27
HETATM   27  C4  UNL     1      28.153  38.421  15.070  1.00  0.00     0.002 C 
BRANCH  27  28
HETATM   28  C3  UNL     1      27.858  39.252  16.242  1.00  0.00     0.032 C 
BRANCH  28  29
HETATM   29  C2  UNL     1      27.950  40.724  16.136  1.00  0.00     0.182 C 
HETATM   30  C1  UNL     1      28.019  41.341  14.786  1.00  0.00     0.040 C 
BRANCH  29  31
HETATM   31  N2  UNL     1      29.021  41.279  16.965  1.00  0.00    -0.070 N 
ATOM     32  H22 UNL     1      28.942  40.964  17.932  1.00  0.00     0.277 HD
ATOM     33  H21 UNL     1      29.923  40.861  16.734  1.00  0.00     0.277 HD
BRANCH  31  34
HETATM   34  C26 UNL     1      29.072  42.703  16.884  1.00  0.00     0.260 C 
BRANCH  34  35
HETATM   35  C27 UNL     1      28.559  43.316  18.159  1.00  0.00     0.259 C 
BRANCH  35  36
HETATM   36  N3  UNL     1      29.464  43.161  19.256  1.00  0.00    -0.073 N 
ATOM     37  H32 UNL     1      29.051  43.502  20.124  1.00  0.00     0.277 HD
ATOM     38  H31 UNL     1      29.575  42.177  19.503  1.00  0.00     0.277 HD
BRANCH  36  39
HETATM   39  C28 UNL     1      30.749  43.786  19.010  1.00  0.00     0.233 C 
BRANCH  39  40
HETATM   40  C29 UNL     1      31.807  42.739  19.325  1.00  0.00     0.038 C 
BRANCH  40  41
HETATM   41  C30 UNL     1      32.553  42.273  18.098  1.00  0.00     0.088 C 
HETATM   42  S1  UNL     1      34.309  41.960  18.449  1.00  0.00    -0.098 SA
ENDBRANCH  40  41
ENDBRANCH  39  40
ENDBRANCH  36  39
ENDBRANCH  35  36
ENDBRANCH  34  35
ENDBRANCH  31  34
ENDBRANCH  29  31
ENDBRANCH  28  29
ENDBRANCH  27  28
ENDBRANCH  26  27
ENDBRANCH  25  26
ENDBRANCH  23  25
ENDBRANCH  22  23
ENDBRANCH   1  22
TORSDOF 14
ENDMDL
MODEL 4
REMARK VINA RESULT: -7.349294896      6.827      9.971
REMARK  14 active torsions:
REMARK  status: ('A' for Active; 'I' for Inactive)
REMARK    1  A    between atoms: C2_2  and  C3_3 
REMARK    2  A    between atoms: C2_2  and  N2_31 
REMARK    3  A    between atoms: C3_3  and  C4_4 
REMARK    4  A    between atoms: C4_4  and  C5_5 
REMARK    5  A    between atoms: C5_5  and  C6_6 
REMARK    6  A    between atoms: C6_6  and  C7_7 
REMARK    7  A    between atoms: C7_7  and  C8_9 
REMARK    8  A    between atoms: C8_9  and  C9_10 
REMARK    9  A    between atoms: N2_31  and  C26_34 
REMARK   10  A    between atoms: C26_34  and  C27_35 
REMARK   11  A    between atoms: C27_35  and  N3_36 
REMARK   12  A    between atoms: N3_36  and  C28_39 
REMARK   13  A    between atoms: C28_39  and  C29_40 
REMARK   14  A    between atoms: C29_40  and  C30_41 
ROOT
HETATM    1  C9  UNL     1      33.026  37.621  13.472  1.00  0.00    -0.071 C 
HETATM    2  C10 UNL     1      34.254  38.074  13.847  1.00  0.00    -0.022 C 
HETATM    3  C11 UNL     1      35.235  36.920  13.842  1.00  0.00     0.040 C 
HETATM    4  C12 UNL     1      34.242  35.822  14.211  1.00  0.00     0.067 C 
HETATM    5  C13 UNL     1      34.661  34.486  13.830  1.00  0.00     0.132 C 
HETATM    6  O2  UNL     1      35.379  33.823  14.570  1.00  0.00    -0.298 OA
HETATM    7  C14 UNL     1      34.204  33.935  12.527  1.00  0.00     0.084 C 
HETATM    8  C15 UNL     1      32.715  34.080  12.283  1.00  0.00     0.011 C 
HETATM    9  C16 UNL     1      32.153  35.232  13.128  1.00  0.00     0.000 C 
HETATM   10  C17 UNL     1      31.672  34.764  14.451  1.00  0.00     0.008 C 
HETATM   11  C18 UNL     1      30.463  33.860  14.123  1.00  0.00     0.026 C 
HETATM   12  C19 UNL     1      31.085  32.627  13.541  1.00  0.00     0.097 C 
HETATM   13  N1  UNL     1      30.109  31.591  13.409  1.00  0.00    -0.352 N 
ATOM     14  H1  UNL     1      29.943  30.941  14.176  1.00  0.00     0.163 HD
HETATM   15  C20 UNL     1      29.374  31.476  12.201  1.00  0.00     0.241 C 
HETATM   16  O3  UNL     1      28.249  30.873  12.166  1.00  0.00    -0.269 OA
HETATM   17  C21 UNL     1      29.962  32.071  11.014  1.00  0.00     0.071 C 
HETATM   18  C22 UNL     1      31.104  32.672  11.094  1.00  0.00    -0.009 C 
HETATM   19  C23 UNL     1      31.937  32.834  12.335  1.00  0.00    -0.001 C 
HETATM   20  C24 UNL     1      32.846  31.581  12.281  1.00  0.00     0.022 C 
HETATM   21  C25 UNL     1      33.202  36.237  13.152  1.00  0.00     0.030 C 
ENDROOT
BRANCH   1  22
HETATM   22  C8  UNL     1      31.880  38.598  13.410  1.00  0.00     0.112 C 
BRANCH  22  23
HETATM   23  C7  UNL     1      31.388  38.932  14.752  1.00  0.00     0.130 C 
HETATM   24  O1  UNL     1      31.431  40.147  15.035  1.00  0.00    -0.298 OA
BRANCH  23  25
HETATM   25  C6  UNL     1      30.864  38.023  15.788  1.00  0.00     0.078 C 
BRANCH  25  26
HETATM   26  C5  UNL     1      30.093  38.846  16.802  1.00  0.00     0.007 C 
BRANCH  26  27
HETATM   27  C4  UNL     1      28.632  38.871  16.627  1.00  0.00     0.002 C 
BRANCH  27  28
HETATM   28  C3  UNL     1      27.963  40.029  16.027  1.00  0.00     0.032 C 
BRANCH  28  29
HETATM   29  C2  UNL     1      27.728  40.062  14.567  1.00  0.00     0.182 C 
HETATM   30  C1  UNL     1      27.479  38.784  13.853  1.00  0.00     0.040 C 
BRANCH  29  31
HETATM   31  N2  UNL     1      28.764  40.809  13.851  1.00  0.00    -0.070 N 
ATOM     32  H22 UNL     1      29.693  40.602  14.220  1.00  0.00     0.277 HD
ATOM     33  H21 UNL     1      28.888  40.456  12.902  1.00  0.00     0.277 HD
BRANCH  31  34
HETATM   34  C26 UNL     1      28.505  42.213  13.854  1.00  0.00     0.260 C 
BRANCH  34  35
HETATM   35  C27 UNL     1      29.601  42.947  13.128  1.00  0.00     0.259 C 
BRANCH  35  36
HETATM   36  N3  UNL     1      30.697  42.100  12.771  1.00  0.00    -0.073 N 
ATOM     37  H32 UNL     1      31.268  41.874  13.585  1.00  0.00     0.277 HD
ATOM     38  H31 UNL     1      30.374  41.162  12.533  1.00  0.00     0.277 HD
BRANCH  36  39
HETATM   39  C28 UNL     1      31.506  42.659  11.705  1.00  0.00     0.233 C 
BRANCH  39  40
HETATM   40  C29 UNL     1      32.633  41.668  11.452  1.00  0.00     0.038 C 
BRANCH  40  41
HETATM   41  C30 UNL     1      32.378  40.782  10.257  1.00  0.00     0.088 C 
HETATM   42  S1  UNL     1      31.634  41.701   8.877  1.00  0.00    -0.098 SA
ENDBRANCH  40  41
ENDBRANCH  39  40
ENDBRANCH  36  39
ENDBRANCH  35  36
ENDBRANCH  34  35
ENDBRANCH  31  34
ENDBRANCH  29  31
ENDBRANCH  28  29
ENDBRANCH  27  28
ENDBRANCH  26  27
ENDBRANCH  25  26
ENDBRANCH  23  25
ENDBRANCH  22  23
ENDBRANCH   1  22
TORSDOF 14
ENDMDL
MODEL 5
REMARK VINA RESULT: -7.324502443      6.856     10.025
REMARK  14 active torsions:
REMARK  status: ('A' for Active; 'I' for Inactive)
REMARK    1  A    between atoms: C2_2  and  C3_3 
REMARK    2  A    between atoms: C2_2  and  N2_31 
REMARK    3  A    between atoms: C3_3  and  C4_4 
REMARK    4  A    between atoms: C4_4  and  C5_5 
REMARK    5  A    between atoms: C5_5  and  C6_6 
REMARK    6  A    between atoms: C6_6  and  C7_7 
REMARK    7  A    between atoms: C7_7  and  C8_9 
REMARK    8  A    between atoms: C8_9  and  C9_10 
REMARK    9  A    between atoms: N2_31  and  C26_34 
REMARK   10  A    between atoms: C26_34  and  C27_35 
REMARK   11  A    between atoms: C27_35  and  N3_36 
REMARK   12  A    between atoms: N3_36  and  C28_39 
REMARK   13  A    between atoms: C28_39  and  C29_40 
REMARK   14  A    between atoms: C29_40  and  C30_41 
ROOT
HETATM    1  C9  UNL     1      34.033  37.554  13.486  1.00  0.00    -0.071 C 
HETATM    2  C10 UNL     1      35.297  37.808  13.926  1.00  0.00    -0.022 C 
HETATM    3  C11 UNL     1      36.059  36.504  14.037  1.00  0.00     0.040 C 
HETATM    4  C12 UNL     1      34.869  35.614  14.382  1.00  0.00     0.067 C 
HETATM    5  C13 UNL     1      35.071  34.208  14.085  1.00  0.00     0.132 C 
HETATM    6  O2  UNL     1      35.614  33.472  14.901  1.00  0.00    -0.298 OA
HETATM    7  C14 UNL     1      34.604  33.676  12.779  1.00  0.00     0.084 C 
HETATM    8  C15 UNL     1      33.182  34.061  12.425  1.00  0.00     0.011 C 
HETATM    9  C16 UNL     1      32.779  35.335  13.181  1.00  0.00     0.000 C 
HETATM   10  C17 UNL     1      32.143  35.028  14.486  1.00  0.00     0.008 C 
HETATM   11  C18 UNL     1      30.818  34.328  14.112  1.00  0.00     0.026 C 
HETATM   12  C19 UNL     1      31.249  32.978  13.626  1.00  0.00     0.097 C 
HETATM   13  N1  UNL     1      30.117  32.120  13.469  1.00  0.00    -0.352 N 
ATOM     14  H1  UNL     1      29.792  31.549  14.249  1.00  0.00     0.163 HD
HETATM   15  C20 UNL     1      29.448  32.069  12.219  1.00  0.00     0.241 C 
HETATM   16  O3  UNL     1      28.239  31.667  12.130  1.00  0.00    -0.269 OA
HETATM   17  C21 UNL     1      30.202  32.491  11.052  1.00  0.00     0.071 C 
HETATM   18  C22 UNL     1      31.426  32.890  11.186  1.00  0.00    -0.009 C 
HETATM   19  C23 UNL     1      32.197  32.972  12.474  1.00  0.00    -0.001 C 
HETATM   20  C24 UNL     1      32.873  31.580  12.536  1.00  0.00     0.022 C 
HETATM   21  C25 UNL     1      33.984  36.145  13.236  1.00  0.00     0.030 C 
ENDROOT
BRANCH   1  22
HETATM   22  C8  UNL     1      33.082  38.708  13.304  1.00  0.00     0.112 C 
BRANCH  22  23
HETATM   23  C7  UNL     1      31.893  38.561  14.152  1.00  0.00     0.130 C 
HETATM   24  O1  UNL     1      32.125  38.551  15.378  1.00  0.00    -0.298 OA
BRANCH  23  25
HETATM   25  C6  UNL     1      30.485  38.421  13.738  1.00  0.00     0.078 C 
BRANCH  25  26
HETATM   26  C5  UNL     1      29.710  37.790  14.878  1.00  0.00     0.007 C 
BRANCH  26  27
HETATM   27  C4  UNL     1      28.292  38.172  14.978  1.00  0.00     0.002 C 
BRANCH  27  28
HETATM   28  C3  UNL     1      27.721  39.193  14.094  1.00  0.00     0.032 C 
BRANCH  28  29
HETATM   29  C2  UNL     1      27.461  40.551  14.617  1.00  0.00     0.182 C 
HETATM   30  C1  UNL     1      27.950  41.721  13.844  1.00  0.00     0.040 C 
BRANCH  29  31
HETATM   31  N2  UNL     1      27.876  40.701  16.014  1.00  0.00    -0.070 N 
ATOM     32  H22 UNL     1      27.087  40.951  16.610  1.00  0.00     0.277 HD
ATOM     33  H21 UNL     1      28.111  39.800  16.430  1.00  0.00     0.277 HD
BRANCH  31  34
HETATM   34  C26 UNL     1      28.948  41.634  16.153  1.00  0.00     0.260 C 
BRANCH  34  35
HETATM   35  C27 UNL     1      30.117  40.984  16.845  1.00  0.00     0.259 C 
BRANCH  35  36
HETATM   36  N3  UNL     1      31.377  41.360  16.282  1.00  0.00    -0.073 N 
ATOM     37  H32 UNL     1      32.073  41.516  17.010  1.00  0.00     0.277 HD
ATOM     38  H31 UNL     1      31.815  40.573  15.803  1.00  0.00     0.277 HD
BRANCH  36  39
HETATM   39  C28 UNL     1      31.273  42.511  15.406  1.00  0.00     0.233 C 
BRANCH  39  40
HETATM   40  C29 UNL     1      32.217  42.255  14.240  1.00  0.00     0.038 C 
BRANCH  40  41
HETATM   41  C30 UNL     1      31.496  42.130  12.920  1.00  0.00     0.088 C 
HETATM   42  S1  UNL     1      32.650  42.083  11.517  1.00  0.00    -0.098 SA
ENDBRANCH  40  41
ENDBRANCH  39  40
ENDBRANCH  36  39
ENDBRANCH  35  36
ENDBRANCH  34  35
ENDBRANCH  31  34
ENDBRANCH  29  31
ENDBRANCH  28  29
ENDBRANCH  27  28
ENDBRANCH  26  27
ENDBRANCH  25  26
ENDBRANCH  23  25
ENDBRANCH  22  23
ENDBRANCH   1  22
TORSDOF 14
ENDMDL
