MODEL 1
REMARK VINA RESULT: -8.112533420      0.000      0.000
REMARK  15 active torsions:
REMARK  status: ('A' for Active; 'I' for Inactive)
REMARK    1  A    between atoms: C2_2  and  O1_3 
REMARK    2  A    between atoms: O1_3  and  C3_4 
REMARK       I    between atoms: C3_4  and  N1_6 
REMARK    3  A    between atoms: N1_6  and  C4_8 
REMARK    4  A    between atoms: C4_8  and  C5_9 
REMARK    5  A    between atoms: C5_9  and  C6_10 
REMARK    6  A    between atoms: C6_10  and  C7_11 
REMARK       I    between atoms: C7_11  and  N2_13 
REMARK    7  A    between atoms: N2_13  and  C8_15 
REMARK    8  A    between atoms: C8_15  and  C9_16 
REMARK    9  A    between atoms: C8_15  and  C16_23 
REMARK   10  A    between atoms: C9_16  and  C10_17 
REMARK   11  A    between atoms: C18_28  and  C19_29 
REMARK   12  A    between atoms: C19_29  and  C21_31 
REMARK   13  A    between atoms: C23_33  and  O5_34 
REMARK   14  A    between atoms: C24_36  and  C25_37 
REMARK   15  A    between atoms: C25_37  and  C26_38 
ROOT
HETATM    1  C8  UNL     1      31.724  31.566  11.570  1.00  0.00     0.098 C 
ENDROOT
BRANCH   1   2
HETATM    2  N2  UNL     1      30.665  30.602  11.802  1.00  0.00    -0.356 N 
HETATM    3  C7  UNL     1      29.430  30.697  11.110  1.00  0.00     0.217 C 
HETATM    4  O3  UNL     1      29.282  31.640  10.296  1.00  0.00    -0.274 OA
ATOM      5  H2  UNL     1      30.809  29.846  12.472  1.00  0.00     0.162 HD
BRANCH   3   6
HETATM    6  C6  UNL     1      28.323  29.720  11.325  1.00  0.00     0.104 C 
BRANCH   6   7
HETATM    7  C5  UNL     1      28.144  28.906  10.039  1.00  0.00     0.029 C 
BRANCH   7   8
HETATM    8  C4  UNL     1      29.100  27.748  10.102  1.00  0.00     0.125 C 
BRANCH   8   9
HETATM    9  N1  UNL     1      29.220  27.198  11.424  1.00  0.00    -0.337 N 
HETATM   10  C3  UNL     1      29.542  25.848  11.707  1.00  0.00     0.360 C 
HETATM   11  O2  UNL     1      29.743  25.060  10.762  1.00  0.00    -0.239 OA
ATOM     12  H1  UNL     1      29.062  27.823  12.214  1.00  0.00     0.164 HD
BRANCH  10  13
HETATM   13  O1  UNL     1      29.640  25.381  13.001  1.00  0.00    -0.304 OA
BRANCH  13  14
HETATM   14  C2  UNL     1      28.940  24.258  13.488  1.00  0.00     0.176 C 
HETATM   15  C1  UNL     1      28.359  24.614  14.840  1.00  0.00     0.034 C 
ENDBRANCH  13  14
ENDBRANCH  10  13
ENDBRANCH   8   9
ENDBRANCH   7   8
ENDBRANCH   6   7
ENDBRANCH   3   6
ENDBRANCH   1   2
BRANCH   1  16
HETATM   16  C9  UNL     1      31.889  32.312  12.863  1.00  0.00     0.030 C 
BRANCH  16  17
HETATM   17  C10 UNL     1      30.858  33.367  13.116  1.00  0.00    -0.013 C 
HETATM   18  C11 UNL     1      31.188  34.174  14.378  1.00  0.00     0.005 C 
HETATM   19  C12 UNL     1      30.688  35.600  14.201  1.00  0.00     0.000 C 
HETATM   20  C13 UNL     1      31.652  36.348  13.286  1.00  0.00     0.000 C 
HETATM   21  C14 UNL     1      32.057  35.380  12.201  1.00  0.00     0.000 C 
HETATM   22  C15 UNL     1      30.962  34.366  11.961  1.00  0.00     0.005 C 
ENDBRANCH  16  17
ENDBRANCH   1  16
BRANCH   1  23
HETATM   23  C16 UNL     1      32.979  30.972  11.053  1.00  0.00     0.107 C 
HETATM   24  C17 UNL     1      32.882  30.525   9.639  1.00  0.00     0.224 C 
HETATM   25  O4  UNL     1      32.025  29.699   9.215  1.00  0.00    -0.273 OA
HETATM   26  N3  UNL     1      33.781  31.009   8.607  1.00  0.00    -0.353 N 
HETATM   27  C18 UNL     1      35.099  31.487   8.940  1.00  0.00     0.117 C 
ATOM     28  H3  UNL     1      33.475  31.011   7.634  1.00  0.00     0.163 HD
HETATM   29  C23 UNL     1      35.264  31.140  10.403  1.00  0.00     0.146 C 
HETATM   30  C24 UNL     1      34.167  31.924  11.097  1.00  0.00     0.032 C 
BRANCH  27  31
HETATM   31  C19 UNL     1      36.179  31.097   8.048  1.00  0.00     0.006 C 
HETATM   32  C20 UNL     1      35.751  30.274   6.847  1.00  0.00     0.012 C 
BRANCH  31  33
HETATM   33  C21 UNL     1      37.100  32.154   7.528  1.00  0.00     0.002 C 
HETATM   34  C22 UNL     1      36.899  33.533   8.100  1.00  0.00     0.005 C 
ENDBRANCH  31  33
ENDBRANCH  27  31
BRANCH  29  35
HETATM   35  O5  UNL     1      36.507  31.278  10.893  1.00  0.00    -0.393 OA
ATOM     36  H5  UNL     1      36.784  32.173  11.056  1.00  0.00     0.210 HD
ENDBRANCH  29  35
BRANCH  30  37
HETATM   37  C25 UNL     1      34.518  32.357  12.452  1.00  0.00     0.012 C 
BRANCH  37  38
HETATM   38  C26 UNL     1      34.747  33.820  12.652  1.00  0.00    -0.014 C 
HETATM   39  C27 UNL     1      35.016  34.129  14.139  1.00  0.00     0.005 C 
HETATM   40  C28 UNL     1      35.604  35.525  14.036  1.00  0.00     0.000 C 
HETATM   41  C29 UNL     1      36.266  35.609  12.689  1.00  0.00     0.000 C 
HETATM   42  C30 UNL     1      36.152  34.208  12.128  1.00  0.00     0.005 C 
ENDBRANCH  37  38
ENDBRANCH  30  37
ENDBRANCH   1  23
TORSDOF 15
ENDMDL
MODEL 2
REMARK VINA RESULT: -7.791166200      1.732      5.961
REMARK  15 active torsions:
REMARK  status: ('A' for Active; 'I' for Inactive)
REMARK    1  A    between atoms: C2_2  and  O1_3 
REMARK    2  A    between atoms: O1_3  and  C3_4 
REMARK       I    between atoms: C3_4  and  N1_6 
REMARK    3  A    between atoms: N1_6  and  C4_8 
REMARK    4  A    between atoms: C4_8  and  C5_9 
REMARK    5  A    between atoms: C5_9  and  C6_10 
REMARK    6  A    between atoms: C6_10  and  C7_11 
REMARK       I    between atoms: C7_11  and  N2_13 
REMARK    7  A    between atoms: N2_13  and  C8_15 
REMARK    8  A    between atoms: C8_15  and  C9_16 
REMARK    9  A    between atoms: C8_15  and  C16_23 
REMARK   10  A    between atoms: C9_16  and  C10_17 
REMARK   11  A    between atoms: C18_28  and  C19_29 
REMARK   12  A    between atoms: C19_29  and  C21_31 
REMARK   13  A    between atoms: C23_33  and  O5_34 
REMARK   14  A    between atoms: C24_36  and  C25_37 
REMARK   15  A    between atoms: C25_37  and  C26_38 
ROOT
HETATM    1  C8  UNL     1      33.416  30.581  10.549  1.00  0.00     0.098 C 
ENDROOT
BRANCH   1   2
HETATM    2  N2  UNL     1      32.498  29.528  10.159  1.00  0.00    -0.356 N 
HETATM    3  C7  UNL     1      32.980  28.248   9.780  1.00  0.00     0.217 C 
HETATM    4  O3  UNL     1      34.219  28.058   9.792  1.00  0.00    -0.274 OA
ATOM      5  H2  UNL     1      31.494  29.709  10.156  1.00  0.00     0.162 HD
BRANCH   3   6
HETATM    6  C6  UNL     1      32.061  27.142   9.378  1.00  0.00     0.104 C 
BRANCH   6   7
HETATM    7  C5  UNL     1      30.625  27.677   9.404  1.00  0.00     0.029 C 
BRANCH   7   8
HETATM    8  C4  UNL     1      29.723  26.526   9.749  1.00  0.00     0.125 C 
BRANCH   8   9
HETATM    9  N1  UNL     1      29.510  26.391  11.164  1.00  0.00    -0.337 N 
HETATM   10  C3  UNL     1      29.894  25.264  11.931  1.00  0.00     0.360 C 
HETATM   11  O2  UNL     1      30.461  24.308  11.365  1.00  0.00    -0.239 OA
ATOM     12  H1  UNL     1      29.050  27.161  11.650  1.00  0.00     0.164 HD
BRANCH  10  13
HETATM   13  O1  UNL     1      29.658  25.195  13.288  1.00  0.00    -0.304 OA
BRANCH  13  14
HETATM   14  C2  UNL     1      28.998  24.122  13.919  1.00  0.00     0.176 C 
HETATM   15  C1  UNL     1      28.177  24.680  15.063  1.00  0.00     0.034 C 
ENDBRANCH  13  14
ENDBRANCH  10  13
ENDBRANCH   8   9
ENDBRANCH   7   8
ENDBRANCH   6   7
ENDBRANCH   3   6
ENDBRANCH   1   2
BRANCH   1  16
HETATM   16  C9  UNL     1      33.535  31.484   9.354  1.00  0.00     0.030 C 
BRANCH  16  17
HETATM   17  C10 UNL     1      34.569  31.070   8.355  1.00  0.00    -0.013 C 
HETATM   18  C11 UNL     1      34.715  32.115   7.241  1.00  0.00     0.005 C 
HETATM   19  C12 UNL     1      36.156  32.123   6.753  1.00  0.00     0.000 C 
HETATM   20  C13 UNL     1      37.015  32.864   7.772  1.00  0.00     0.000 C 
HETATM   21  C14 UNL     1      36.515  32.458   9.137  1.00  0.00     0.000 C 
HETATM   22  C15 UNL     1      35.912  31.073   9.088  1.00  0.00     0.005 C 
ENDBRANCH  16  17
ENDBRANCH   1  16
BRANCH   1  23
HETATM   23  C16 UNL     1      33.035  31.283  11.797  1.00  0.00     0.107 C 
HETATM   24  C17 UNL     1      33.940  32.410  12.140  1.00  0.00     0.224 C 
HETATM   25  O4  UNL     1      35.189  32.293  12.294  1.00  0.00    -0.273 OA
HETATM   26  N3  UNL     1      33.457  33.765  12.332  1.00  0.00    -0.353 N 
HETATM   27  C18 UNL     1      32.097  34.015  12.737  1.00  0.00     0.117 C 
ATOM     28  H3  UNL     1      34.088  34.551  12.178  1.00  0.00     0.163 HD
HETATM   29  C23 UNL     1      31.548  32.643  13.066  1.00  0.00     0.146 C 
HETATM   30  C24 UNL     1      31.636  31.884  11.756  1.00  0.00     0.032 C 
BRANCH  27  31
HETATM   31  C19 UNL     1      31.892  35.057  13.730  1.00  0.00     0.006 C 
HETATM   32  C20 UNL     1      33.159  35.569  14.390  1.00  0.00     0.012 C 
BRANCH  31  33
HETATM   33  C21 UNL     1      31.096  36.265  13.351  1.00  0.00     0.002 C 
HETATM   34  C22 UNL     1      31.896  37.455  12.889  1.00  0.00     0.005 C 
ENDBRANCH  31  33
ENDBRANCH  27  31
BRANCH  29  35
HETATM   35  O5  UNL     1      30.359  32.632  13.691  1.00  0.00    -0.393 OA
ATOM     36  H5  UNL     1      30.398  32.616  14.641  1.00  0.00     0.210 HD
ENDBRANCH  29  35
BRANCH  30  37
HETATM   37  C25 UNL     1      30.577  30.887  11.580  1.00  0.00     0.012 C 
BRANCH  37  38
HETATM   38  C26 UNL     1      29.573  31.156  10.507  1.00  0.00    -0.014 C 
HETATM   39  C27 UNL     1      28.446  30.103  10.541  1.00  0.00     0.005 C 
HETATM   40  C28 UNL     1      27.391  30.788   9.691  1.00  0.00     0.000 C 
HETATM   41  C29 UNL     1      27.611  32.267   9.851  1.00  0.00     0.000 C 
HETATM   42  C30 UNL     1      28.697  32.372  10.900  1.00  0.00     0.005 C 
ENDBRANCH  37  38
ENDBRANCH  30  37
ENDBRANCH   1  23
TORSDOF 15
ENDMDL
MODEL 3
REMARK VINA RESULT: -7.738107092      2.129      4.519
REMARK  15 active torsions:
REMARK  status: ('A' for Active; 'I' for Inactive)
REMARK    1  A    between atoms: C2_2  and  O1_3 
REMARK    2  A    between atoms: O1_3  and  C3_4 
REMARK       I    between atoms: C3_4  and  N1_6 
REMARK    3  A    between atoms: N1_6  and  C4_8 
REMARK    4  A    between atoms: C4_8  and  C5_9 
REMARK    5  A    between atoms: C5_9  and  C6_10 
REMARK    6  A    between atoms: C6_10  and  C7_11 
REMARK       I    between atoms: C7_11  and  N2_13 
REMARK    7  A    between atoms: N2_13  and  C8_15 
REMARK    8  A    between atoms: C8_15  and  C9_16 
REMARK    9  A    between atoms: C8_15  and  C16_23 
REMARK   10  A    between atoms: C9_16  and  C10_17 
REMARK   11  A    between atoms: C18_28  and  C19_29 
REMARK   12  A    between atoms: C19_29  and  C21_31 
REMARK   13  A    between atoms: C23_33  and  O5_34 
REMARK   14  A    between atoms: C24_36  and  C25_37 
REMARK   15  A    between atoms: C25_37  and  C26_38 
ROOT
HETATM    1  C8  UNL     1      32.340  32.102  12.390  1.00  0.00     0.098 C 
ENDROOT
BRANCH   1   2
HETATM    2  N2  UNL     1      32.711  30.826  11.807  1.00  0.00    -0.356 N 
HETATM    3  C7  UNL     1      32.796  30.666  10.400  1.00  0.00     0.217 C 
HETATM    4  O3  UNL     1      32.540  31.658   9.678  1.00  0.00    -0.274 OA
ATOM      5  H2  UNL     1      32.912  30.033  12.417  1.00  0.00     0.162 HD
BRANCH   3   6
HETATM    6  C6  UNL     1      33.179  29.367   9.772  1.00  0.00     0.104 C 
BRANCH   6   7
HETATM    7  C5  UNL     1      31.927  28.754   9.136  1.00  0.00     0.029 C 
BRANCH   7   8
HETATM    8  C4  UNL     1      32.084  27.260   9.183  1.00  0.00     0.125 C 
BRANCH   8   9
HETATM    9  N1  UNL     1      31.442  26.669  10.326  1.00  0.00    -0.337 N 
HETATM   10  C3  UNL     1      30.057  26.393  10.416  1.00  0.00     0.360 C 
HETATM   11  O2  UNL     1      29.317  26.669   9.451  1.00  0.00    -0.239 OA
ATOM     12  H1  UNL     1      32.026  26.432  11.128  1.00  0.00     0.164 HD
BRANCH  10  13
HETATM   13  O1  UNL     1      29.502  25.825  11.544  1.00  0.00    -0.304 OA
BRANCH  13  14
HETATM   14  C2  UNL     1      30.101  24.780  12.277  1.00  0.00     0.176 C 
HETATM   15  C1  UNL     1      29.128  24.337  13.349  1.00  0.00     0.034 C 
ENDBRANCH  13  14
ENDBRANCH  10  13
ENDBRANCH   8   9
ENDBRANCH   7   8
ENDBRANCH   6   7
ENDBRANCH   3   6
ENDBRANCH   1   2
BRANCH   1  16
HETATM   16  C9  UNL     1      31.163  31.819  13.280  1.00  0.00     0.030 C 
BRANCH  16  17
HETATM   17  C10 UNL     1      29.844  32.277  12.743  1.00  0.00    -0.013 C 
HETATM   18  C11 UNL     1      29.969  32.744  11.287  1.00  0.00     0.005 C 
HETATM   19  C12 UNL     1      28.667  32.450  10.557  1.00  0.00     0.000 C 
HETATM   20  C13 UNL     1      28.611  30.960  10.235  1.00  0.00     0.000 C 
HETATM   21  C14 UNL     1      29.169  30.237  11.436  1.00  0.00     0.000 C 
HETATM   22  C15 UNL     1      28.939  31.044  12.693  1.00  0.00     0.005 C 
ENDBRANCH  16  17
ENDBRANCH   1  16
BRANCH   1  23
HETATM   23  C16 UNL     1      33.454  32.803  13.069  1.00  0.00     0.107 C 
HETATM   24  C17 UNL     1      34.722  32.784  12.295  1.00  0.00     0.224 C 
HETATM   25  O4  UNL     1      35.297  31.729  11.904  1.00  0.00    -0.273 OA
HETATM   26  N3  UNL     1      35.421  33.999  11.918  1.00  0.00    -0.353 N 
HETATM   27  C18 UNL     1      35.268  35.209  12.685  1.00  0.00     0.117 C 
ATOM     28  H3  UNL     1      36.029  33.996  11.099  1.00  0.00     0.163 HD
HETATM   29  C23 UNL     1      34.484  34.780  13.906  1.00  0.00     0.146 C 
HETATM   30  C24 UNL     1      33.170  34.274  13.346  1.00  0.00     0.032 C 
BRANCH  27  31
HETATM   31  C19 UNL     1      36.471  35.991  12.919  1.00  0.00     0.006 C 
HETATM   32  C20 UNL     1      37.565  35.805  11.884  1.00  0.00     0.012 C 
BRANCH  31  33
HETATM   33  C21 UNL     1      36.341  37.464  13.136  1.00  0.00     0.002 C 
HETATM   34  C22 UNL     1      37.268  38.328  12.319  1.00  0.00     0.005 C 
ENDBRANCH  31  33
ENDBRANCH  27  31
BRANCH  29  35
HETATM   35  O5  UNL     1      34.411  35.688  14.893  1.00  0.00    -0.393 OA
ATOM     36  H5  UNL     1      33.532  35.957  15.135  1.00  0.00     0.210 HD
ENDBRANCH  29  35
BRANCH  30  37
HETATM   37  C25 UNL     1      32.027  34.489  14.237  1.00  0.00     0.012 C 
BRANCH  37  38
HETATM   38  C26 UNL     1      31.064  35.563  13.847  1.00  0.00    -0.014 C 
HETATM   39  C27 UNL     1      30.805  36.516  15.032  1.00  0.00     0.005 C 
HETATM   40  C28 UNL     1      30.170  37.695  14.314  1.00  0.00     0.000 C 
HETATM   41  C29 UNL     1      30.729  37.693  12.919  1.00  0.00     0.000 C 
HETATM   42  C30 UNL     1      31.771  36.596  12.934  1.00  0.00     0.005 C 
ENDBRANCH  37  38
ENDBRANCH  30  37
ENDBRANCH   1  23
TORSDOF 15
ENDMDL
MODEL 4
REMARK VINA RESULT: -7.687476611      1.450      1.886
REMARK  15 active torsions:
REMARK  status: ('A' for Active; 'I' for Inactive)
REMARK    1  A    between atoms: C2_2  and  O1_3 
REMARK    2  A    between atoms: O1_3  and  C3_4 
REMARK       I    between atoms: C3_4  and  N1_6 
REMARK    3  A    between atoms: N1_6  and  C4_8 
REMARK    4  A    between atoms: C4_8  and  C5_9 
REMARK    5  A    between atoms: C5_9  and  C6_10 
REMARK    6  A    between atoms: C6_10  and  C7_11 
REMARK       I    between atoms: C7_11  and  N2_13 
REMARK    7  A    between atoms: N2_13  and  C8_15 
REMARK    8  A    between atoms: C8_15  and  C9_16 
REMARK    9  A    between atoms: C8_15  and  C16_23 
REMARK   10  A    between atoms: C9_16  and  C10_17 
REMARK   11  A    between atoms: C18_28  and  C19_29 
REMARK   12  A    between atoms: C19_29  and  C21_31 
REMARK   13  A    between atoms: C23_33  and  O5_34 
REMARK   14  A    between atoms: C24_36  and  C25_37 
REMARK   15  A    between atoms: C25_37  and  C26_38 
ROOT
HETATM    1  C8  UNL     1      31.807  32.786  11.871  1.00  0.00     0.098 C 
ENDROOT
BRANCH   1   2
HETATM    2  N2  UNL     1      30.671  32.166  12.526  1.00  0.00    -0.356 N 
HETATM    3  C7  UNL     1      29.387  32.180  11.924  1.00  0.00     0.217 C 
HETATM    4  O3  UNL     1      29.264  32.747  10.812  1.00  0.00    -0.274 OA
ATOM      5  H2  UNL     1      30.798  31.713  13.431  1.00  0.00     0.162 HD
BRANCH   3   6
HETATM    6  C6  UNL     1      28.200  31.547  12.572  1.00  0.00     0.104 C 
BRANCH   6   7
HETATM    7  C5  UNL     1      28.477  30.048  12.720  1.00  0.00     0.029 C 
BRANCH   7   8
HETATM    8  C4  UNL     1      28.283  29.418  11.370  1.00  0.00     0.125 C 
BRANCH   8   9
HETATM    9  N1  UNL     1      29.400  28.607  10.969  1.00  0.00    -0.337 N 
HETATM   10  C3  UNL     1      29.358  27.631   9.944  1.00  0.00     0.360 C 
HETATM   11  O2  UNL     1      28.291  27.441   9.329  1.00  0.00    -0.239 OA
ATOM     12  H1  UNL     1      30.285  28.745  11.456  1.00  0.00     0.164 HD
BRANCH  10  13
HETATM   13  O1  UNL     1      30.467  26.883   9.609  1.00  0.00    -0.304 OA
BRANCH  13  14
HETATM   14  C2  UNL     1      30.532  25.478   9.714  1.00  0.00     0.176 C 
HETATM   15  C1  UNL     1      30.293  25.103  11.162  1.00  0.00     0.034 C 
ENDBRANCH  13  14
ENDBRANCH  10  13
ENDBRANCH   8   9
ENDBRANCH   7   8
ENDBRANCH   6   7
ENDBRANCH   3   6
ENDBRANCH   1   2
BRANCH   1  16
HETATM   16  C9  UNL     1      32.268  33.877  12.796  1.00  0.00     0.030 C 
BRANCH  16  17
HETATM   17  C10 UNL     1      31.390  35.088  12.826  1.00  0.00    -0.013 C 
HETATM   18  C11 UNL     1      30.684  35.229  14.181  1.00  0.00     0.005 C 
HETATM   19  C12 UNL     1      30.484  36.705  14.487  1.00  0.00     0.000 C 
HETATM   20  C13 UNL     1      31.813  37.296  14.945  1.00  0.00     0.000 C 
HETATM   21  C14 UNL     1      32.883  36.679  14.078  1.00  0.00     0.000 C 
HETATM   22  C15 UNL     1      32.317  36.302  12.728  1.00  0.00     0.005 C 
ENDBRANCH  16  17
ENDBRANCH   1  16
BRANCH   1  23
HETATM   23  C16 UNL     1      32.875  31.835  11.481  1.00  0.00     0.107 C 
HETATM   24  C17 UNL     1      32.604  31.138  10.198  1.00  0.00     0.224 C 
HETATM   25  O4  UNL     1      31.567  30.452   9.970  1.00  0.00    -0.273 OA
HETATM   26  N3  UNL     1      33.525  31.186   9.077  1.00  0.00    -0.353 N 
HETATM   27  C18 UNL     1      34.932  31.419   9.286  1.00  0.00     0.117 C 
ATOM     28  H3  UNL     1      33.173  31.053   8.130  1.00  0.00     0.163 HD
HETATM   29  C23 UNL     1      35.101  31.356  10.789  1.00  0.00     0.146 C 
HETATM   30  C24 UNL     1      34.239  32.490  11.308  1.00  0.00     0.032 C 
BRANCH  27  31
HETATM   31  C19 UNL     1      35.851  30.623   8.489  1.00  0.00     0.006 C 
HETATM   32  C20 UNL     1      35.193  29.576   7.609  1.00  0.00     0.012 C 
BRANCH  31  33
HETATM   33  C21 UNL     1      36.853  31.326   7.630  1.00  0.00     0.002 C 
HETATM   34  C22 UNL     1      37.076  32.782   7.947  1.00  0.00     0.005 C 
ENDBRANCH  31  33
ENDBRANCH  27  31
BRANCH  29  35
HETATM   35  O5  UNL     1      36.371  31.314  11.225  1.00  0.00    -0.393 OA
ATOM     36  H5  UNL     1      36.779  32.159  11.376  1.00  0.00     0.210 HD
ENDBRANCH  29  35
BRANCH  30  37
HETATM   37  C25 UNL     1      34.751  33.106  12.535  1.00  0.00     0.012 C 
BRANCH  37  38
HETATM   38  C26 UNL     1      35.293  34.493  12.414  1.00  0.00    -0.014 C 
HETATM   39  C27 UNL     1      35.894  34.960  13.756  1.00  0.00     0.005 C 
HETATM   40  C28 UNL     1      36.712  36.155  13.300  1.00  0.00     0.000 C 
HETATM   41  C29 UNL     1      37.110  35.879  11.877  1.00  0.00     0.000 C 
HETATM   42  C30 UNL     1      36.622  34.470  11.618  1.00  0.00     0.005 C 
ENDBRANCH  37  38
ENDBRANCH  30  37
ENDBRANCH   1  23
TORSDOF 15
ENDMDL
MODEL 5
REMARK VINA RESULT: -7.681404184      1.337      2.179
REMARK  15 active torsions:
REMARK  status: ('A' for Active; 'I' for Inactive)
REMARK    1  A    between atoms: C2_2  and  O1_3 
REMARK    2  A    between atoms: O1_3  and  C3_4 
REMARK       I    between atoms: C3_4  and  N1_6 
REMARK    3  A    between atoms: N1_6  and  C4_8 
REMARK    4  A    between atoms: C4_8  and  C5_9 
REMARK    5  A    between atoms: C5_9  and  C6_10 
REMARK    6  A    between atoms: C6_10  and  C7_11 
REMARK       I    between atoms: C7_11  and  N2_13 
REMARK    7  A    between atoms: N2_13  and  C8_15 
REMARK    8  A    between atoms: C8_15  and  C9_16 
REMARK    9  A    between atoms: C8_15  and  C16_23 
REMARK   10  A    between atoms: C9_16  and  C10_17 
REMARK   11  A    between atoms: C18_28  and  C19_29 
REMARK   12  A    between atoms: C19_29  and  C21_31 
REMARK   13  A    between atoms: C23_33  and  O5_34 
REMARK   14  A    between atoms: C24_36  and  C25_37 
REMARK   15  A    between atoms: C25_37  and  C26_38 
ROOT
HETATM    1  C8  UNL     1      31.738  31.740  11.621  1.00  0.00     0.098 C 
ENDROOT
BRANCH   1   2
HETATM    2  N2  UNL     1      30.665  30.808  11.911  1.00  0.00    -0.356 N 
HETATM    3  C7  UNL     1      29.412  30.914  11.253  1.00  0.00     0.217 C 
HETATM    4  O3  UNL     1      29.261  31.837  10.418  1.00  0.00    -0.274 OA
ATOM      5  H2  UNL     1      30.812  30.067  12.597  1.00  0.00     0.162 HD
BRANCH   3   6
HETATM    6  C6  UNL     1      28.290  29.968  11.528  1.00  0.00     0.104 C 
BRANCH   6   7
HETATM    7  C5  UNL     1      28.191  28.987  10.355  1.00  0.00     0.029 C 
BRANCH   7   8
HETATM    8  C4  UNL     1      29.021  27.784  10.702  1.00  0.00     0.125 C 
BRANCH   8   9
HETATM    9  N1  UNL     1      30.194  27.662   9.880  1.00  0.00    -0.337 N 
HETATM   10  C3  UNL     1      30.871  26.445   9.623  1.00  0.00     0.360 C 
HETATM   11  O2  UNL     1      30.442  25.391  10.131  1.00  0.00    -0.239 OA
ATOM     12  H1  UNL     1      30.563  28.510   9.451  1.00  0.00     0.164 HD
BRANCH  10  13
HETATM   13  O1  UNL     1      31.995  26.396   8.825  1.00  0.00    -0.304 OA
BRANCH  13  14
HETATM   14  C2  UNL     1      32.012  26.765   7.464  1.00  0.00     0.176 C 
HETATM   15  C1  UNL     1      33.368  27.363   7.155  1.00  0.00     0.034 C 
ENDBRANCH  13  14
ENDBRANCH  10  13
ENDBRANCH   8   9
ENDBRANCH   7   8
ENDBRANCH   6   7
ENDBRANCH   3   6
ENDBRANCH   1   2
BRANCH   1  16
HETATM   16  C9  UNL     1      31.930  32.545  12.874  1.00  0.00     0.030 C 
BRANCH  16  17
HETATM   17  C10 UNL     1      30.909  33.615  13.097  1.00  0.00    -0.013 C 
HETATM   18  C11 UNL     1      31.150  34.346  14.424  1.00  0.00     0.005 C 
HETATM   19  C12 UNL     1      30.703  35.793  14.284  1.00  0.00     0.000 C 
HETATM   20  C13 UNL     1      31.760  36.558  13.495  1.00  0.00     0.000 C 
HETATM   21  C14 UNL     1      32.232  35.637  12.397  1.00  0.00     0.000 C 
HETATM   22  C15 UNL     1      31.136  34.670  12.011  1.00  0.00     0.005 C 
ENDBRANCH  16  17
ENDBRANCH   1  16
BRANCH   1  23
HETATM   23  C16 UNL     1      32.977  31.099  11.121  1.00  0.00     0.107 C 
HETATM   24  C17 UNL     1      32.874  30.637   9.713  1.00  0.00     0.224 C 
HETATM   25  O4  UNL     1      31.994  29.833   9.293  1.00  0.00    -0.273 OA
HETATM   26  N3  UNL     1      33.796  31.078   8.681  1.00  0.00    -0.353 N 
HETATM   27  C18 UNL     1      35.126  31.517   9.017  1.00  0.00     0.117 C 
ATOM     28  H3  UNL     1      33.497  31.076   7.706  1.00  0.00     0.163 HD
HETATM   29  C23 UNL     1      35.270  31.184  10.486  1.00  0.00     0.146 C 
HETATM   30  C24 UNL     1      34.195  32.013  11.161  1.00  0.00     0.032 C 
BRANCH  27  31
HETATM   31  C19 UNL     1      36.200  31.081   8.138  1.00  0.00     0.006 C 
HETATM   32  C20 UNL     1      35.757  30.223   6.966  1.00  0.00     0.012 C 
BRANCH  31  33
HETATM   33  C21 UNL     1      37.136  32.105   7.581  1.00  0.00     0.002 C 
HETATM   34  C22 UNL     1      36.931  33.513   8.077  1.00  0.00     0.005 C 
ENDBRANCH  31  33
ENDBRANCH  27  31
BRANCH  29  35
HETATM   35  O5  UNL     1      36.513  31.289  10.982  1.00  0.00    -0.393 OA
ATOM     36  H5  UNL     1      36.630  30.954  11.864  1.00  0.00     0.210 HD
ENDBRANCH  29  35
BRANCH  30  37
HETATM   37  C25 UNL     1      34.550  32.452  12.513  1.00  0.00     0.012 C 
BRANCH  37  38
HETATM   38  C26 UNL     1      34.828  33.908  12.695  1.00  0.00    -0.014 C 
HETATM   39  C27 UNL     1      35.224  34.207  14.155  1.00  0.00     0.005 C 
HETATM   40  C28 UNL     1      35.835  35.590  14.007  1.00  0.00     0.000 C 
HETATM   41  C29 UNL     1      36.387  35.662  12.610  1.00  0.00     0.000 C 
HETATM   42  C30 UNL     1      36.195  34.265  12.059  1.00  0.00     0.005 C 
ENDBRANCH  37  38
ENDBRANCH  30  37
ENDBRANCH   1  23
TORSDOF 15
ENDMDL
