MODEL 1
REMARK VINA RESULT: -7.666539314      0.000      0.000
REMARK  15 active torsions:
REMARK  status: ('A' for Active; 'I' for Inactive)
REMARK    1  A    between atoms: C2_2  and  C4_4 
REMARK    2  A    between atoms: C4_4  and  C6_6 
REMARK    3  A    between atoms: C6_6  and  O1_7 
REMARK    4  A    between atoms: C6_6  and  N1_9 
REMARK    5  A    between atoms: C9_12  and  N2_13 
REMARK    6  A    between atoms: N2_13  and  C10_15 
REMARK    7  A    between atoms: C10_15  and  C11_16 
REMARK    8  A    between atoms: C11_16  and  C12_17 
REMARK    9  A    between atoms: C11_16  and  C15_20 
REMARK   10  A    between atoms: C15_20  and  N3_21 
REMARK   11  A    between atoms: C15_20  and  C27_36 
REMARK       I    between atoms: N3_21  and  C16_22 
REMARK   12  A    between atoms: C16_22  and  C17_24 
REMARK   13  A    between atoms: C17_24  and  C18_25 
REMARK   14  A    between atoms: C18_25  and  C19_26 
REMARK   15  A    between atoms: C19_26  and  C20_27 
ROOT
HETATM    1  C11 UNL     1      33.887  28.759   9.128  1.00  0.00    -0.025 C 
ENDROOT
BRANCH   1   2
HETATM    2  C10 UNL     1      32.403  28.628   9.262  1.00  0.00     0.089 C 
BRANCH   2   3
HETATM    3  N2  UNL     1      31.915  27.457   9.868  1.00  0.00    -0.393 N 
ATOM      4  H2  UNL     1      32.137  27.360  10.858  1.00  0.00     0.159 HD
BRANCH   3   5
HETATM    5  C9  UNL     1      31.193  26.433   9.338  1.00  0.00     0.090 C 
HETATM    6  C8  UNL     1      30.431  26.887   8.082  1.00  0.00     0.070 C 
HETATM    7  C7  UNL     1      29.010  27.279   8.464  1.00  0.00     0.068 C 
HETATM    8  N1  UNL     1      28.869  27.676   9.808  1.00  0.00    -0.347 N 
HETATM    9  C32 UNL     1      29.301  26.825  10.839  1.00  0.00     0.068 C 
HETATM   10  C31 UNL     1      30.194  25.760  10.251  1.00  0.00     0.070 C 
BRANCH   8  11
HETATM   11  C6  UNL     1      27.928  28.701  10.113  1.00  0.00     0.227 C 
BRANCH  11  12
HETATM   12  C4  UNL     1      28.545  29.997  10.524  1.00  0.00     0.034 C 
HETATM   13  C5  UNL     1      28.129  31.081   9.567  1.00  0.00     0.015 C 
BRANCH  12  14
HETATM   14  C2  UNL     1      28.138  30.447  11.906  1.00  0.00    -0.015 C 
HETATM   15  C1  UNL     1      29.129  30.125  12.975  1.00  0.00     0.010 C 
HETATM   16  C3  UNL     1      27.977  31.967  11.863  1.00  0.00     0.010 C 
ENDBRANCH  12  14
ENDBRANCH  11  12
BRANCH  11  17
HETATM   17  O1  UNL     1      27.033  28.857   9.047  1.00  0.00    -0.376 OA
ATOM     18  H1  UNL     1      26.374  28.172   9.029  1.00  0.00     0.212 HD
ENDBRANCH  11  17
ENDBRANCH   8  11
ENDBRANCH   3   5
ENDBRANCH   2   3
ENDBRANCH   1   2
BRANCH   1  19
HETATM   19  C12 UNL     1      34.094  28.630   7.695  1.00  0.00     0.011 C 
HETATM   20  C13 UNL     1      34.243  27.361   6.974  1.00  0.00     0.014 C 
HETATM   21  C14 UNL     1      32.953  29.356   6.993  1.00  0.00     0.014 C 
ENDBRANCH   1  19
BRANCH   1  22
HETATM   22  C15 UNL     1      34.580  29.616  10.034  1.00  0.00     0.205 C 
BRANCH  22  23
HETATM   23  N3  UNL     1      33.836  30.599  10.760  1.00  0.00    -0.404 NA
HETATM   24  C16 UNL     1      33.154  31.502  11.429  1.00  0.00     0.287 C 
HETATM   25  O2  UNL     1      33.440  31.909  12.624  1.00  0.00    -0.258 OA
BRANCH  24  26
HETATM   26  C17 UNL     1      31.882  32.287  11.017  1.00  0.00     0.119 C 
BRANCH  26  27
HETATM   27  C18 UNL     1      31.360  32.995  12.201  1.00  0.00     0.011 C 
BRANCH  27  28
HETATM   28  C19 UNL     1      31.289  34.440  12.186  1.00  0.00     0.005 C 
BRANCH  28  29
HETATM   29  C20 UNL     1      31.964  35.288  13.173  1.00  0.00    -0.011 C 
HETATM   30  C21 UNL     1      33.407  35.477  13.220  1.00  0.00     0.024 C 
HETATM   31  C22 UNL     1      33.742  36.172  14.551  1.00  0.00     0.115 C 
HETATM   32  N4  UNL     1      32.629  36.767  15.201  1.00  0.00    -0.413 N 
HETATM   33  C23 UNL     1      31.731  37.502  14.333  1.00  0.00     0.018 C 
ATOM     34  H4  UNL     1      32.473  36.683  16.206  1.00  0.00     0.153 HD
HETATM   35  C24 UNL     1      32.365  38.823  13.894  1.00  0.00     0.037 C 
HETATM   36  C25 UNL     1      30.503  37.867  15.144  1.00  0.00     0.037 C 
HETATM   37  C26 UNL     1      31.297  36.705  13.152  1.00  0.00     0.034 C 
ENDBRANCH  28  29
ENDBRANCH  27  28
ENDBRANCH  26  27
ENDBRANCH  24  26
ENDBRANCH  22  23
BRANCH  22  38
HETATM   38  C27 UNL     1      35.690  30.501   9.421  1.00  0.00    -0.015 C 
HETATM   39  C28 UNL     1      35.258  31.634   8.597  1.00  0.00     0.018 C 
HETATM   40  C29 UNL     1      36.851  29.797   8.819  1.00  0.00     0.018 C 
HETATM   41  C30 UNL     1      36.386  31.233  10.645  1.00  0.00     0.018 C 
ENDBRANCH  22  38
ENDBRANCH   1  22
TORSDOF 15
ENDMDL
MODEL 2
REMARK VINA RESULT: -7.594573190      2.035      5.847
REMARK  15 active torsions:
REMARK  status: ('A' for Active; 'I' for Inactive)
REMARK    1  A    between atoms: C2_2  and  C4_4 
REMARK    2  A    between atoms: C4_4  and  C6_6 
REMARK    3  A    between atoms: C6_6  and  O1_7 
REMARK    4  A    between atoms: C6_6  and  N1_9 
REMARK    5  A    between atoms: C9_12  and  N2_13 
REMARK    6  A    between atoms: N2_13  and  C10_15 
REMARK    7  A    between atoms: C10_15  and  C11_16 
REMARK    8  A    between atoms: C11_16  and  C12_17 
REMARK    9  A    between atoms: C11_16  and  C15_20 
REMARK   10  A    between atoms: C15_20  and  N3_21 
REMARK   11  A    between atoms: C15_20  and  C27_36 
REMARK       I    between atoms: N3_21  and  C16_22 
REMARK   12  A    between atoms: C16_22  and  C17_24 
REMARK   13  A    between atoms: C17_24  and  C18_25 
REMARK   14  A    between atoms: C18_25  and  C19_26 
REMARK   15  A    between atoms: C19_26  and  C20_27 
ROOT
HETATM    1  C11 UNL     1      29.737  28.593   9.146  1.00  0.00    -0.025 C 
ENDROOT
BRANCH   1   2
HETATM    2  C10 UNL     1      30.400  28.230   7.855  1.00  0.00     0.089 C 
BRANCH   2   3
HETATM    3  N2  UNL     1      31.168  29.226   7.228  1.00  0.00    -0.393 N 
ATOM      4  H2  UNL     1      31.363  30.046   7.802  1.00  0.00     0.159 HD
BRANCH   3   5
HETATM    5  C9  UNL     1      31.694  29.265   5.973  1.00  0.00     0.090 C 
HETATM    6  C8  UNL     1      31.961  27.848   5.442  1.00  0.00     0.070 C 
HETATM    7  C7  UNL     1      33.413  27.473   5.700  1.00  0.00     0.068 C 
HETATM    8  N1  UNL     1      33.998  28.166   6.778  1.00  0.00    -0.347 N 
HETATM    9  C32 UNL     1      33.975  29.571   6.803  1.00  0.00     0.068 C 
HETATM   10  C31 UNL     1      32.967  30.061   5.793  1.00  0.00     0.070 C 
BRANCH   8  11
HETATM   11  C6  UNL     1      34.955  27.481   7.580  1.00  0.00     0.227 C 
BRANCH  11  12
HETATM   12  C4  UNL     1      36.352  27.985   7.431  1.00  0.00     0.034 C 
HETATM   13  C5  UNL     1      36.988  28.122   8.788  1.00  0.00     0.015 C 
BRANCH  12  14
HETATM   14  C2  UNL     1      37.239  27.073   6.618  1.00  0.00    -0.015 C 
HETATM   15  C1  UNL     1      36.771  25.656   6.555  1.00  0.00     0.010 C 
HETATM   16  C3  UNL     1      37.269  27.616   5.190  1.00  0.00     0.010 C 
ENDBRANCH  12  14
ENDBRANCH  11  12
BRANCH  11  17
HETATM   17  O1  UNL     1      34.536  27.471   8.917  1.00  0.00    -0.376 OA
ATOM     18  H1  UNL     1      33.830  26.854   9.067  1.00  0.00     0.212 HD
ENDBRANCH  11  17
ENDBRANCH   8  11
ENDBRANCH   3   5
ENDBRANCH   2   3
ENDBRANCH   1   2
BRANCH   1  19
HETATM   19  C12 UNL     1      30.134  27.509  10.028  1.00  0.00     0.011 C 
HETATM   20  C13 UNL     1      29.221  26.518  10.613  1.00  0.00     0.014 C 
HETATM   21  C14 UNL     1      31.201  26.692   9.312  1.00  0.00     0.014 C 
ENDBRANCH   1  19
BRANCH   1  22
HETATM   22  C15 UNL     1      29.594  29.974   9.474  1.00  0.00     0.205 C 
BRANCH  22  23
HETATM   23  N3  UNL     1      30.562  30.583  10.335  1.00  0.00    -0.404 NA
HETATM   24  C16 UNL     1      31.454  31.140  11.123  1.00  0.00     0.287 C 
HETATM   25  O2  UNL     1      32.718  31.234  10.861  1.00  0.00    -0.258 OA
BRANCH  24  26
HETATM   26  C17 UNL     1      31.270  31.799  12.515  1.00  0.00     0.119 C 
BRANCH  26  27
HETATM   27  C18 UNL     1      30.549  33.074  12.342  1.00  0.00     0.011 C 
BRANCH  27  28
HETATM   28  C19 UNL     1      31.297  34.272  12.034  1.00  0.00     0.005 C 
BRANCH  28  29
HETATM   29  C20 UNL     1      31.997  35.066  13.048  1.00  0.00    -0.011 C 
HETATM   30  C21 UNL     1      33.445  35.200  13.107  1.00  0.00     0.024 C 
HETATM   31  C22 UNL     1      33.798  35.844  14.459  1.00  0.00     0.115 C 
HETATM   32  N4  UNL     1      32.704  36.462  15.121  1.00  0.00    -0.413 N 
HETATM   33  C23 UNL     1      31.839  37.254  14.269  1.00  0.00     0.018 C 
ATOM     34  H4  UNL     1      32.540  36.355  16.122  1.00  0.00     0.153 HD
HETATM   35  C24 UNL     1      32.525  38.562  13.871  1.00  0.00     0.037 C 
HETATM   36  C25 UNL     1      30.621  37.642  15.084  1.00  0.00     0.037 C 
HETATM   37  C26 UNL     1      31.383  36.507  13.064  1.00  0.00     0.034 C 
ENDBRANCH  28  29
ENDBRANCH  27  28
ENDBRANCH  26  27
ENDBRANCH  24  26
ENDBRANCH  22  23
BRANCH  22  38
HETATM   38  C27 UNL     1      28.287  30.371  10.198  1.00  0.00    -0.015 C 
HETATM   39  C28 UNL     1      27.835  31.758  10.046  1.00  0.00     0.018 C 
HETATM   40  C29 UNL     1      28.124  29.893  11.595  1.00  0.00     0.018 C 
HETATM   41  C30 UNL     1      27.128  29.568   9.471  1.00  0.00     0.018 C 
ENDBRANCH  22  38
ENDBRANCH   1  22
TORSDOF 15
ENDMDL
MODEL 3
REMARK VINA RESULT: -7.525034676      1.754      5.493
REMARK  15 active torsions:
REMARK  status: ('A' for Active; 'I' for Inactive)
REMARK    1  A    between atoms: C2_2  and  C4_4 
REMARK    2  A    between atoms: C4_4  and  C6_6 
REMARK    3  A    between atoms: C6_6  and  O1_7 
REMARK    4  A    between atoms: C6_6  and  N1_9 
REMARK    5  A    between atoms: C9_12  and  N2_13 
REMARK    6  A    between atoms: N2_13  and  C10_15 
REMARK    7  A    between atoms: C10_15  and  C11_16 
REMARK    8  A    between atoms: C11_16  and  C12_17 
REMARK    9  A    between atoms: C11_16  and  C15_20 
REMARK   10  A    between atoms: C15_20  and  N3_21 
REMARK   11  A    between atoms: C15_20  and  C27_36 
REMARK       I    between atoms: N3_21  and  C16_22 
REMARK   12  A    between atoms: C16_22  and  C17_24 
REMARK   13  A    between atoms: C17_24  and  C18_25 
REMARK   14  A    between atoms: C18_25  and  C19_26 
REMARK   15  A    between atoms: C19_26  and  C20_27 
ROOT
HETATM    1  C11 UNL     1      29.753  28.433   8.975  1.00  0.00    -0.025 C 
ENDROOT
BRANCH   1   2
HETATM    2  C10 UNL     1      30.646  28.200   7.798  1.00  0.00     0.089 C 
BRANCH   2   3
HETATM    3  N2  UNL     1      31.632  29.168   7.541  1.00  0.00    -0.393 N 
ATOM      4  H2  UNL     1      31.525  30.040   8.058  1.00  0.00     0.159 HD
BRANCH   3   5
HETATM    5  C9  UNL     1      32.709  29.122   6.709  1.00  0.00     0.090 C 
HETATM    6  C8  UNL     1      33.746  28.102   7.205  1.00  0.00     0.070 C 
HETATM    7  C7  UNL     1      34.807  28.816   8.030  1.00  0.00     0.068 C 
HETATM    8  N1  UNL     1      34.363  30.019   8.612  1.00  0.00    -0.347 N 
HETATM    9  C32 UNL     1      33.795  31.020   7.806  1.00  0.00     0.068 C 
HETATM   10  C31 UNL     1      33.438  30.424   6.466  1.00  0.00     0.070 C 
BRANCH   8  11
HETATM   11  C6  UNL     1      34.875  30.378   9.892  1.00  0.00     0.227 C 
BRANCH  11  12
HETATM   12  C4  UNL     1      35.309  31.802  10.001  1.00  0.00     0.034 C 
HETATM   13  C5  UNL     1      35.057  32.302  11.398  1.00  0.00     0.015 C 
BRANCH  12  14
HETATM   14  C2  UNL     1      36.777  32.007   9.717  1.00  0.00    -0.015 C 
HETATM   15  C1  UNL     1      37.562  30.743   9.587  1.00  0.00     0.010 C 
HETATM   16  C3  UNL     1      36.886  32.760   8.390  1.00  0.00     0.010 C 
ENDBRANCH  12  14
ENDBRANCH  11  12
BRANCH  11  17
HETATM   17  O1  UNL     1      33.953  30.029  10.887  1.00  0.00    -0.376 OA
ATOM     18  H1  UNL     1      33.902  29.089  11.016  1.00  0.00     0.212 HD
ENDBRANCH  11  17
ENDBRANCH   8  11
ENDBRANCH   3   5
ENDBRANCH   2   3
ENDBRANCH   1   2
BRANCH   1  19
HETATM   19  C12 UNL     1      30.178  27.405   9.910  1.00  0.00     0.011 C 
HETATM   20  C13 UNL     1      29.281  26.620  10.767  1.00  0.00     0.014 C 
HETATM   21  C14 UNL     1      30.989  26.375   9.134  1.00  0.00     0.014 C 
ENDBRANCH   1  19
BRANCH   1  22
HETATM   22  C15 UNL     1      29.353  29.770   9.273  1.00  0.00     0.205 C 
BRANCH  22  23
HETATM   23  N3  UNL     1      30.173  30.558  10.141  1.00  0.00    -0.404 NA
HETATM   24  C16 UNL     1      30.929  31.283  10.935  1.00  0.00     0.287 C 
HETATM   25  O2  UNL     1      31.779  32.174  10.538  1.00  0.00    -0.258 OA
BRANCH  24  26
HETATM   26  C17 UNL     1      31.027  31.279  12.483  1.00  0.00     0.119 C 
BRANCH  26  27
HETATM   27  C18 UNL     1      30.995  32.674  12.962  1.00  0.00     0.011 C 
BRANCH  27  28
HETATM   28  C19 UNL     1      31.845  33.061  14.066  1.00  0.00     0.005 C 
BRANCH  28  29
HETATM   29  C20 UNL     1      32.309  34.435  14.281  1.00  0.00    -0.011 C 
HETATM   30  C21 UNL     1      33.623  34.913  13.880  1.00  0.00     0.024 C 
HETATM   31  C22 UNL     1      33.839  36.287  14.537  1.00  0.00     0.115 C 
HETATM   32  N4  UNL     1      32.655  36.897  15.030  1.00  0.00    -0.413 N 
HETATM   33  C23 UNL     1      31.508  36.811  14.149  1.00  0.00     0.018 C 
ATOM     34  H4  UNL     1      32.616  37.362  15.937  1.00  0.00     0.153 HD
HETATM   35  C24 UNL     1      31.671  37.754  12.955  1.00  0.00     0.037 C 
HETATM   36  C25 UNL     1      30.298  37.302  14.919  1.00  0.00     0.037 C 
HETATM   37  C26 UNL     1      31.242  35.419  13.691  1.00  0.00     0.034 C 
ENDBRANCH  28  29
ENDBRANCH  27  28
ENDBRANCH  26  27
ENDBRANCH  24  26
ENDBRANCH  22  23
BRANCH  22  38
HETATM   38  C27 UNL     1      27.979  29.932   9.963  1.00  0.00    -0.015 C 
HETATM   39  C28 UNL     1      27.951  29.828  11.425  1.00  0.00     0.018 C 
HETATM   40  C29 UNL     1      26.830  29.224   9.341  1.00  0.00     0.018 C 
HETATM   41  C30 UNL     1      27.556  31.444   9.735  1.00  0.00     0.018 C 
ENDBRANCH  22  38
ENDBRANCH   1  22
TORSDOF 15
ENDMDL
MODEL 4
REMARK VINA RESULT: -7.436078760      2.023      6.018
REMARK  15 active torsions:
REMARK  status: ('A' for Active; 'I' for Inactive)
REMARK    1  A    between atoms: C2_2  and  C4_4 
REMARK    2  A    between atoms: C4_4  and  C6_6 
REMARK    3  A    between atoms: C6_6  and  O1_7 
REMARK    4  A    between atoms: C6_6  and  N1_9 
REMARK    5  A    between atoms: C9_12  and  N2_13 
REMARK    6  A    between atoms: N2_13  and  C10_15 
REMARK    7  A    between atoms: C10_15  and  C11_16 
REMARK    8  A    between atoms: C11_16  and  C12_17 
REMARK    9  A    between atoms: C11_16  and  C15_20 
REMARK   10  A    between atoms: C15_20  and  N3_21 
REMARK   11  A    between atoms: C15_20  and  C27_36 
REMARK       I    between atoms: N3_21  and  C16_22 
REMARK   12  A    between atoms: C16_22  and  C17_24 
REMARK   13  A    between atoms: C17_24  and  C18_25 
REMARK   14  A    between atoms: C18_25  and  C19_26 
REMARK   15  A    between atoms: C19_26  and  C20_27 
ROOT
HETATM    1  C11 UNL     1      29.961  27.568   9.366  1.00  0.00    -0.025 C 
ENDROOT
BRANCH   1   2
HETATM    2  C10 UNL     1      31.275  27.414   8.667  1.00  0.00     0.089 C 
BRANCH   2   3
HETATM    3  N2  UNL     1      32.184  28.481   8.769  1.00  0.00    -0.393 N 
ATOM      4  H2  UNL     1      32.149  29.151   8.001  1.00  0.00     0.159 HD
BRANCH   3   5
HETATM    5  C9  UNL     1      33.103  28.760   9.733  1.00  0.00     0.090 C 
HETATM    6  C8  UNL     1      32.854  30.146  10.348  1.00  0.00     0.070 C 
HETATM    7  C7  UNL     1      33.733  31.176   9.651  1.00  0.00     0.068 C 
HETATM    8  N1  UNL     1      34.109  30.814   8.343  1.00  0.00    -0.347 N 
HETATM    9  C32 UNL     1      34.740  29.581   8.111  1.00  0.00     0.068 C 
HETATM   10  C31 UNL     1      34.558  28.703   9.325  1.00  0.00     0.070 C 
BRANCH   8  11
HETATM   11  C6  UNL     1      34.239  31.846   7.370  1.00  0.00     0.227 C 
BRANCH  11  12
HETATM   12  C4  UNL     1      35.633  32.047   6.874  1.00  0.00     0.034 C 
HETATM   13  C5  UNL     1      35.604  32.822   5.584  1.00  0.00     0.015 C 
BRANCH  12  14
HETATM   14  C2  UNL     1      36.508  32.818   7.833  1.00  0.00    -0.015 C 
HETATM   15  C1  UNL     1      37.443  31.969   8.631  1.00  0.00     0.010 C 
HETATM   16  C3  UNL     1      37.353  33.786   7.004  1.00  0.00     0.010 C 
ENDBRANCH  12  14
ENDBRANCH  11  12
BRANCH  11  17
HETATM   17  O1  UNL     1      33.333  31.631   6.324  1.00  0.00    -0.376 OA
ATOM     18  H1  UNL     1      32.745  32.367   6.202  1.00  0.00     0.212 HD
ENDBRANCH  11  17
ENDBRANCH   8  11
ENDBRANCH   3   5
ENDBRANCH   2   3
ENDBRANCH   1   2
BRANCH   1  19
HETATM   19  C12 UNL     1      30.083  26.652  10.487  1.00  0.00     0.011 C 
HETATM   20  C13 UNL     1      28.974  26.215  11.345  1.00  0.00     0.014 C 
HETATM   21  C14 UNL     1      30.717  25.366   9.972  1.00  0.00     0.014 C 
ENDBRANCH   1  19
BRANCH   1  22
HETATM   22  C15 UNL     1      29.328  28.846   9.350  1.00  0.00     0.205 C 
BRANCH  22  23
HETATM   23  N3  UNL     1      29.034  29.486  10.596  1.00  0.00    -0.404 NA
HETATM   24  C16 UNL     1      28.765  30.070  11.743  1.00  0.00     0.287 C 
HETATM   25  O2  UNL     1      28.954  29.537  12.907  1.00  0.00    -0.258 OA
BRANCH  24  26
HETATM   26  C17 UNL     1      28.170  31.474  12.022  1.00  0.00     0.119 C 
BRANCH  26  27
HETATM   27  C18 UNL     1      28.693  32.417  11.015  1.00  0.00     0.011 C 
BRANCH  27  28
HETATM   28  C19 UNL     1      30.085  32.808  11.070  1.00  0.00     0.005 C 
BRANCH  28  29
HETATM   29  C20 UNL     1      30.744  33.265  12.298  1.00  0.00    -0.011 C 
HETATM   30  C21 UNL     1      31.570  32.407  13.134  1.00  0.00     0.024 C 
HETATM   31  C22 UNL     1      31.822  33.152  14.457  1.00  0.00     0.115 C 
HETATM   32  N4  UNL     1      31.540  34.542  14.414  1.00  0.00    -0.413 N 
HETATM   33  C23 UNL     1      32.006  35.227  13.224  1.00  0.00     0.018 C 
ATOM     34  H4  UNL     1      31.045  35.023  15.164  1.00  0.00     0.153 HD
HETATM   35  C24 UNL     1      33.527  35.389  13.256  1.00  0.00     0.037 C 
HETATM   36  C25 UNL     1      31.427  36.628  13.243  1.00  0.00     0.037 C 
HETATM   37  C26 UNL     1      31.572  34.553  11.969  1.00  0.00     0.034 C 
ENDBRANCH  28  29
ENDBRANCH  27  28
ENDBRANCH  26  27
ENDBRANCH  24  26
ENDBRANCH  22  23
BRANCH  22  38
HETATM   38  C27 UNL     1      27.941  28.912   8.668  1.00  0.00    -0.015 C 
HETATM   39  C28 UNL     1      26.816  29.366   9.491  1.00  0.00     0.018 C 
HETATM   40  C29 UNL     1      27.563  27.760   7.810  1.00  0.00     0.018 C 
HETATM   41  C30 UNL     1      28.044  30.069   7.588  1.00  0.00     0.018 C 
ENDBRANCH  22  38
ENDBRANCH   1  22
TORSDOF 15
ENDMDL
MODEL 5
REMARK VINA RESULT: -7.404900554      2.664      7.032
REMARK  15 active torsions:
REMARK  status: ('A' for Active; 'I' for Inactive)
REMARK    1  A    between atoms: C2_2  and  C4_4 
REMARK    2  A    between atoms: C4_4  and  C6_6 
REMARK    3  A    between atoms: C6_6  and  O1_7 
REMARK    4  A    between atoms: C6_6  and  N1_9 
REMARK    5  A    between atoms: C9_12  and  N2_13 
REMARK    6  A    between atoms: N2_13  and  C10_15 
REMARK    7  A    between atoms: C10_15  and  C11_16 
REMARK    8  A    between atoms: C11_16  and  C12_17 
REMARK    9  A    between atoms: C11_16  and  C15_20 
REMARK   10  A    between atoms: C15_20  and  N3_21 
REMARK   11  A    between atoms: C15_20  and  C27_36 
REMARK       I    between atoms: N3_21  and  C16_22 
REMARK   12  A    between atoms: C16_22  and  C17_24 
REMARK   13  A    between atoms: C17_24  and  C18_25 
REMARK   14  A    between atoms: C18_25  and  C19_26 
REMARK   15  A    between atoms: C19_26  and  C20_27 
ROOT
HETATM    1  C11 UNL     1      34.386  30.426   9.550  1.00  0.00    -0.025 C 
ENDROOT
BRANCH   1   2
HETATM    2  C10 UNL     1      33.373  30.615  10.635  1.00  0.00     0.089 C 
BRANCH   2   3
HETATM    3  N2  UNL     1      33.016  31.935  10.955  1.00  0.00    -0.393 N 
ATOM      4  H2  UNL     1      32.822  32.536  10.154  1.00  0.00     0.159 HD
BRANCH   3   5
HETATM    5  C9  UNL     1      32.887  32.538  12.169  1.00  0.00     0.090 C 
HETATM    6  C8  UNL     1      32.376  31.546  13.226  1.00  0.00     0.070 C 
HETATM    7  C7  UNL     1      30.865  31.671  13.352  1.00  0.00     0.068 C 
HETATM    8  N1  UNL     1      30.236  32.175  12.197  1.00  0.00    -0.347 N 
HETATM    9  C32 UNL     1      30.657  33.396  11.646  1.00  0.00     0.068 C 
HETATM   10  C31 UNL     1      31.999  33.760  12.232  1.00  0.00     0.070 C 
BRANCH   8  11
HETATM   11  C6  UNL     1      28.940  31.683  11.867  1.00  0.00     0.227 C 
BRANCH  11  12
HETATM   12  C4  UNL     1      28.943  30.570  10.872  1.00  0.00     0.034 C 
HETATM   13  C5  UNL     1      28.476  29.301  11.532  1.00  0.00     0.015 C 
BRANCH  12  14
HETATM   14  C2  UNL     1      28.035  30.814   9.692  1.00  0.00    -0.015 C 
HETATM   15  C1  UNL     1      26.836  29.925   9.644  1.00  0.00     0.010 C 
HETATM   16  C3  UNL     1      27.540  32.258   9.786  1.00  0.00     0.010 C 
ENDBRANCH  12  14
ENDBRANCH  11  12
BRANCH  11  17
HETATM   17  O1  UNL     1      28.247  31.344  13.037  1.00  0.00    -0.376 OA
ATOM     18  H1  UNL     1      28.469  31.916  13.763  1.00  0.00     0.212 HD
ENDBRANCH  11  17
ENDBRANCH   8  11
ENDBRANCH   3   5
ENDBRANCH   2   3
ENDBRANCH   1   2
BRANCH   1  19
HETATM   19  C12 UNL     1      34.075  29.100   9.045  1.00  0.00     0.011 C 
HETATM   20  C13 UNL     1      35.023  27.982   8.965  1.00  0.00     0.014 C 
HETATM   21  C14 UNL     1      32.894  28.563   9.844  1.00  0.00     0.014 C 
ENDBRANCH   1  19
BRANCH   1  22
HETATM   22  C15 UNL     1      34.803  31.567   8.802  1.00  0.00     0.205 C 
BRANCH  22  23
HETATM   23  N3  UNL     1      34.342  31.715   7.455  1.00  0.00    -0.404 NA
HETATM   24  C16 UNL     1      33.916  31.854   6.219  1.00  0.00     0.287 C 
HETATM   25  O2  UNL     1      33.288  32.890   5.765  1.00  0.00    -0.258 OA
BRANCH  24  26
HETATM   26  C17 UNL     1      34.024  30.877   5.020  1.00  0.00     0.119 C 
BRANCH  26  27
HETATM   27  C18 UNL     1      33.496  29.563   5.433  1.00  0.00     0.011 C 
BRANCH  27  28
HETATM   28  C19 UNL     1      32.075  29.413   5.660  1.00  0.00     0.005 C 
BRANCH  28  29
HETATM   29  C20 UNL     1      31.462  28.162   6.117  1.00  0.00    -0.011 C 
HETATM   30  C21 UNL     1      32.225  27.020   6.600  1.00  0.00     0.024 C 
HETATM   31  C22 UNL     1      31.263  25.823   6.692  1.00  0.00     0.115 C 
HETATM   32  N4  UNL     1      29.887  26.169   6.656  1.00  0.00    -0.413 N 
HETATM   33  C23 UNL     1      29.520  27.315   7.465  1.00  0.00     0.018 C 
ATOM     34  H4  UNL     1      29.206  25.649   6.103  1.00  0.00     0.153 HD
HETATM   35  C24 UNL     1      29.542  26.956   8.952  1.00  0.00     0.037 C 
HETATM   36  C25 UNL     1      28.086  27.674   7.133  1.00  0.00     0.037 C 
HETATM   37  C26 UNL     1      30.378  28.503   7.195  1.00  0.00     0.034 C 
ENDBRANCH  28  29
ENDBRANCH  27  28
ENDBRANCH  26  27
ENDBRANCH  24  26
ENDBRANCH  22  23
BRANCH  22  38
HETATM   38  C27 UNL     1      36.327  31.727   8.595  1.00  0.00    -0.015 C 
HETATM   39  C28 UNL     1      36.837  33.091   8.429  1.00  0.00     0.018 C 
HETATM   40  C29 UNL     1      36.977  30.781   7.652  1.00  0.00     0.018 C 
HETATM   41  C30 UNL     1      36.998  31.291   9.965  1.00  0.00     0.018 C 
ENDBRANCH  22  38
ENDBRANCH   1  22
TORSDOF 15
ENDMDL
