MODEL 1
REMARK VINA RESULT: -7.675800649      0.000      0.000
REMARK  1 active torsions:
REMARK  status: ('A' for Active; 'I' for Inactive)
REMARK    1  A    between atoms: C4_7  and  C5_8 
ROOT
HETATM    1  F1  UNL     1      25.568  28.335  11.905  1.00  0.00    -0.186 F 
HETATM    2  C1  UNL     1      25.378  27.154  12.577  1.00  0.00     0.190 A 
HETATM    3  C2  UNL     1      24.904  27.130  13.878  1.00  0.00     0.093 A 
HETATM    4  C3  UNL     1      24.714  25.929  14.553  1.00  0.00     0.066 A 
HETATM    5  N1  UNL     1      24.280  25.649  15.777  1.00  0.00    -0.344 N 
ATOM      6  H1  UNL     1      23.996  26.342  16.469  1.00  0.00     0.167 HD
HETATM    7  C4  UNL     1      24.271  24.317  15.973  1.00  0.00     0.086 A 
HETATM    8  N2  UNL     1      24.717  23.779  14.817  1.00  0.00    -0.343 N 
ATOM      9  H2  UNL     1      24.826  22.780  14.644  1.00  0.00     0.167 HD
HETATM   10  C11 UNL     1      24.998  24.749  13.925  1.00  0.00     0.076 A 
HETATM   11  C12 UNL     1      25.468  24.799  12.631  1.00  0.00     0.122 A 
HETATM   12  N3  UNL     1      25.650  25.974  11.981  1.00  0.00    -0.341 N 
ATOM     13  H3  UNL     1      26.000  25.966  11.023  1.00  0.00     0.167 HD
ENDROOT
BRANCH   7  14
HETATM   14  C5  UNL     1      23.854  23.607  17.207  1.00  0.00     0.053 C 
HETATM   15  C6  UNL     1      23.401  24.647  18.241  1.00  0.00     0.012 C 
HETATM   16  C7  UNL     1      23.093  23.795  19.481  1.00  0.00     0.001 C 
HETATM   17  C8  UNL     1      21.767  23.155  19.206  1.00  0.00     0.000 C 
HETATM   18  C9  UNL     1      21.563  22.738  17.790  1.00  0.00     0.001 C 
HETATM   19  C10 UNL     1      22.792  22.581  16.972  1.00  0.00     0.012 C 
ENDBRANCH   7  14
TORSDOF 1
ENDMDL
MODEL 2
REMARK VINA RESULT: -7.474470297      3.963      6.055
REMARK  1 active torsions:
REMARK  status: ('A' for Active; 'I' for Inactive)
REMARK    1  A    between atoms: C4_7  and  C5_8 
ROOT
HETATM    1  F1  UNL     1      19.691  18.906  16.122  1.00  0.00    -0.186 F 
HETATM    2  C1  UNL     1      20.790  19.713  16.277  1.00  0.00     0.190 A 
HETATM    3  C2  UNL     1      20.670  21.090  16.358  1.00  0.00     0.093 A 
HETATM    4  C3  UNL     1      21.787  21.902  16.515  1.00  0.00     0.066 A 
HETATM    5  N1  UNL     1      21.931  23.220  16.616  1.00  0.00    -0.344 N 
ATOM      6  H1  UNL     1      21.166  23.894  16.591  1.00  0.00     0.167 HD
HETATM    7  C4  UNL     1      23.232  23.536  16.757  1.00  0.00     0.086 A 
HETATM    8  N2  UNL     1      23.893  22.358  16.740  1.00  0.00    -0.343 N 
ATOM      9  H2  UNL     1      24.904  22.258  16.827  1.00  0.00     0.167 HD
HETATM   10  C11 UNL     1      23.029  21.335  16.591  1.00  0.00     0.076 A 
HETATM   11  C12 UNL     1      23.122  19.964  16.508  1.00  0.00     0.122 A 
HETATM   12  N3  UNL     1      22.027  19.180  16.355  1.00  0.00    -0.341 N 
ATOM     13  H3  UNL     1      22.141  18.168  16.298  1.00  0.00     0.167 HD
ENDROOT
BRANCH   7  14
HETATM   14  C5  UNL     1      23.800  24.898  16.900  1.00  0.00     0.053 C 
HETATM   15  C6  UNL     1      24.992  24.833  17.865  1.00  0.00     0.012 C 
HETATM   16  C7  UNL     1      25.418  26.303  17.994  1.00  0.00     0.001 C 
HETATM   17  C8  UNL     1      26.162  26.615  16.733  1.00  0.00     0.000 C 
HETATM   18  C9  UNL     1      25.602  25.974  15.509  1.00  0.00     0.001 C 
HETATM   19  C10 UNL     1      24.193  25.519  15.597  1.00  0.00     0.012 C 
ENDBRANCH   7  14
TORSDOF 1
ENDMDL
MODEL 3
REMARK VINA RESULT: -7.135170988      3.137      6.207
REMARK  1 active torsions:
REMARK  status: ('A' for Active; 'I' for Inactive)
REMARK    1  A    between atoms: C4_7  and  C5_8 
ROOT
HETATM    1  F1  UNL     1      22.019  23.042  20.535  1.00  0.00    -0.186 F 
HETATM    2  C1  UNL     1      22.447  23.351  19.269  1.00  0.00     0.190 A 
HETATM    3  C2  UNL     1      23.324  24.398  19.038  1.00  0.00     0.093 A 
HETATM    4  C3  UNL     1      23.753  24.707  17.752  1.00  0.00     0.066 A 
HETATM    5  N1  UNL     1      24.573  25.641  17.281  1.00  0.00    -0.344 N 
ATOM      6  H1  UNL     1      25.054  26.337  17.851  1.00  0.00     0.167 HD
HETATM    7  C4  UNL     1      24.677  25.536  15.942  1.00  0.00     0.086 A 
HETATM    8  N2  UNL     1      23.887  24.496  15.600  1.00  0.00    -0.343 N 
ATOM      9  H2  UNL     1      23.750  24.159  14.647  1.00  0.00     0.167 HD
HETATM   10  C11 UNL     1      23.305  23.966  16.694  1.00  0.00     0.076 A 
HETATM   11  C12 UNL     1      22.434  22.930  16.949  1.00  0.00     0.122 A 
HETATM   12  N3  UNL     1      22.021  22.636  18.206  1.00  0.00    -0.341 N 
ATOM     13  H3  UNL     1      21.375  21.860  18.352  1.00  0.00     0.167 HD
ENDROOT
BRANCH   7  14
HETATM   14  C5  UNL     1      25.494  26.393  15.049  1.00  0.00     0.053 C 
HETATM   15  C6  UNL     1      26.737  25.605  14.616  1.00  0.00     0.012 C 
HETATM   16  C7  UNL     1      27.527  26.628  13.786  1.00  0.00     0.001 C 
HETATM   17  C8  UNL     1      26.828  26.695  12.464  1.00  0.00     0.000 C 
HETATM   18  C9  UNL     1      25.343  26.599  12.544  1.00  0.00     0.001 C 
HETATM   19  C10 UNL     1      24.739  26.906  13.864  1.00  0.00     0.012 C 
ENDBRANCH   7  14
TORSDOF 1
ENDMDL
MODEL 4
REMARK VINA RESULT: -7.118086127      1.264      1.264
REMARK  1 active torsions:
REMARK  status: ('A' for Active; 'I' for Inactive)
REMARK    1  A    between atoms: C4_7  and  C5_8 
ROOT
HETATM    1  F1  UNL     1      27.706  26.885  11.519  1.00  0.00    -0.186 F 
HETATM    2  C1  UNL     1      26.909  25.984  12.180  1.00  0.00     0.190 A 
HETATM    3  C2  UNL     1      26.753  26.030  13.555  1.00  0.00     0.093 A 
HETATM    4  C3  UNL     1      25.945  25.114  14.218  1.00  0.00     0.066 A 
HETATM    5  N1  UNL     1      25.639  24.952  15.502  1.00  0.00    -0.344 N 
ATOM      6  H1  UNL     1      25.989  25.535  16.263  1.00  0.00     0.167 HD
HETATM    7  C4  UNL     1      24.801  23.909  15.653  1.00  0.00     0.086 A 
HETATM    8  N2  UNL     1      24.598  23.427  14.407  1.00  0.00    -0.343 N 
ATOM      9  H2  UNL     1      24.004  22.629  14.183  1.00  0.00     0.167 HD
HETATM   10  C11 UNL     1      25.289  24.149  13.504  1.00  0.00     0.076 A 
HETATM   11  C12 UNL     1      25.460  24.125  12.138  1.00  0.00     0.122 A 
HETATM   12  N3  UNL     1      26.251  25.022  11.499  1.00  0.00    -0.341 N 
ATOM     13  H3  UNL     1      26.350  24.969  10.486  1.00  0.00     0.167 HD
ENDROOT
BRANCH   7  14
HETATM   14  C5  UNL     1      24.233  23.409  16.928  1.00  0.00     0.053 C 
HETATM   15  C6  UNL     1      23.639  24.596  17.698  1.00  0.00     0.012 C 
HETATM   16  C7  UNL     1      23.179  23.960  19.018  1.00  0.00     0.001 C 
HETATM   17  C8  UNL     1      21.906  23.242  18.692  1.00  0.00     0.000 C 
HETATM   18  C9  UNL     1      21.894  22.581  17.356  1.00  0.00     0.001 C 
HETATM   19  C10 UNL     1      23.220  22.325  16.742  1.00  0.00     0.012 C 
ENDBRANCH   7  14
TORSDOF 1
ENDMDL
MODEL 5
REMARK VINA RESULT: -7.005355585      3.062      6.278
REMARK  1 active torsions:
REMARK  status: ('A' for Active; 'I' for Inactive)
REMARK    1  A    between atoms: C4_7  and  C5_8 
ROOT
HETATM    1  F1  UNL     1      21.694  22.897  20.151  1.00  0.00    -0.186 F 
HETATM    2  C1  UNL     1      22.387  23.565  19.172  1.00  0.00     0.190 A 
HETATM    3  C2  UNL     1      22.702  22.960  17.968  1.00  0.00     0.093 A 
HETATM    4  C3  UNL     1      23.405  23.642  16.981  1.00  0.00     0.066 A 
HETATM    5  N1  UNL     1      23.818  23.289  15.768  1.00  0.00    -0.344 N 
ATOM      6  H1  UNL     1      23.666  22.375  15.343  1.00  0.00     0.167 HD
HETATM    7  C4  UNL     1      24.468  24.313  15.182  1.00  0.00     0.086 A 
HETATM    8  N2  UNL     1      24.441  25.319  16.083  1.00  0.00    -0.343 N 
ATOM      9  H2  UNL     1      24.853  26.241  15.937  1.00  0.00     0.167 HD
HETATM   10  C11 UNL     1      23.793  24.935  17.200  1.00  0.00     0.076 A 
HETATM   11  C12 UNL     1      23.467  25.515  18.405  1.00  0.00     0.122 A 
HETATM   12  N3  UNL     1      22.782  24.842  19.362  1.00  0.00    -0.341 N 
ATOM     13  H3  UNL     1      22.561  25.309  20.241  1.00  0.00     0.167 HD
ENDROOT
BRANCH   7  14
HETATM   14  C5  UNL     1      25.078  24.315  13.831  1.00  0.00     0.053 C 
HETATM   15  C6  UNL     1      25.305  25.770  13.398  1.00  0.00     0.012 C 
HETATM   16  C7  UNL     1      25.843  25.628  11.967  1.00  0.00     0.001 C 
HETATM   17  C8  UNL     1      27.274  25.211  12.118  1.00  0.00     0.000 C 
HETATM   18  C9  UNL     1      27.526  24.265  13.241  1.00  0.00     0.001 C 
HETATM   19  C10 UNL     1      26.345  23.524  13.749  1.00  0.00     0.012 C 
ENDBRANCH   7  14
TORSDOF 1
ENDMDL
