MODEL 1
REMARK VINA RESULT: -5.982275245      0.000      0.000
REMARK  2 active torsions:
REMARK  status: ('A' for Active; 'I' for Inactive)
REMARK    1  A    between atoms: C2_2  and  C6_11 
REMARK    2  A    between atoms: C4_6  and  O1_7 
ROOT
HETATM    1  C1  UNL     1      24.955  22.681  15.181  1.00  0.00     0.046 C 
HETATM    2  C2  UNL     1      24.629  24.116  15.236  1.00  0.00    -0.046 C 
HETATM    3  C3  UNL     1      25.072  24.914  14.291  1.00  0.00     0.078 A 
HETATM    4  N1  UNL     1      25.864  24.617  13.148  1.00  0.00    -0.331 N 
ATOM      5  H1  UNL     1      26.184  23.670  12.951  1.00  0.00     0.168 HD
HETATM    6  C4  UNL     1      26.179  25.673  12.321  1.00  0.00     0.147 A 
HETATM    7  C5  UNL     1      25.742  26.866  12.627  1.00  0.00     0.107 A 
HETATM    8  S1  UNL     1      24.809  26.692  14.139  1.00  0.00    -0.080 SA
ENDROOT
BRANCH   2   9
HETATM    9  C6  UNL     1      23.815  24.677  16.329  1.00  0.00     0.017 C 
HETATM   10  C7  UNL     1      22.870  23.663  16.926  1.00  0.00     0.009 C 
HETATM   11  C8  UNL     1      22.998  23.570  18.430  1.00  0.00     0.001 C 
HETATM   12  C9  UNL     1      22.800  24.928  19.025  1.00  0.00     0.000 C 
HETATM   13  C10 UNL     1      23.870  25.844  18.490  1.00  0.00     0.001 C 
HETATM   14  C11 UNL     1      24.735  25.162  17.457  1.00  0.00     0.009 C 
ENDBRANCH   2   9
BRANCH   6  15
HETATM   15  O1  UNL     1      26.962  25.518  11.146  1.00  0.00    -0.346 OA
ATOM     16  H1  UNL     1      27.812  25.929  11.040  1.00  0.00     0.219 HD
ENDBRANCH   6  15
TORSDOF 2
ENDMDL
MODEL 2
REMARK VINA RESULT: -5.952502088      3.671      5.127
REMARK  2 active torsions:
REMARK  status: ('A' for Active; 'I' for Inactive)
REMARK    1  A    between atoms: C2_2  and  C6_11 
REMARK    2  A    between atoms: C4_6  and  O1_7 
ROOT
HETATM    1  C1  UNL     1      25.636  24.631  15.432  1.00  0.00     0.046 C 
HETATM    2  C2  UNL     1      25.205  24.704  16.838  1.00  0.00    -0.046 C 
HETATM    3  C3  UNL     1      24.072  24.142  17.194  1.00  0.00     0.078 A 
HETATM    4  N1  UNL     1      23.125  23.429  16.409  1.00  0.00    -0.331 N 
ATOM      5  H1  UNL     1      23.261  23.283  15.410  1.00  0.00     0.168 HD
HETATM    6  C4  UNL     1      22.014  22.947  17.066  1.00  0.00     0.147 A 
HETATM    7  C5  UNL     1      21.893  23.168  18.348  1.00  0.00     0.107 A 
HETATM    8  S1  UNL     1      23.336  24.097  18.840  1.00  0.00    -0.080 SA
ENDROOT
BRANCH   2   9
HETATM    9  C6  UNL     1      26.018  25.394  17.855  1.00  0.00     0.017 C 
HETATM   10  C7  UNL     1      27.424  24.852  17.938  1.00  0.00     0.009 C 
HETATM   11  C8  UNL     1      28.469  25.939  17.828  1.00  0.00     0.001 C 
HETATM   12  C9  UNL     1      28.213  26.975  18.877  1.00  0.00     0.000 C 
HETATM   13  C10 UNL     1      26.849  27.570  18.637  1.00  0.00     0.001 C 
HETATM   14  C11 UNL     1      26.123  26.884  17.504  1.00  0.00     0.009 C 
ENDBRANCH   2   9
BRANCH   6  15
HETATM   15  O1  UNL     1      20.990  22.217  16.404  1.00  0.00    -0.346 OA
ATOM     16  H1  UNL     1      20.254  21.835  16.866  1.00  0.00     0.219 HD
ENDBRANCH   6  15
TORSDOF 2
ENDMDL
MODEL 3
REMARK VINA RESULT: -5.913623993      2.898      5.217
REMARK  2 active torsions:
REMARK  status: ('A' for Active; 'I' for Inactive)
REMARK    1  A    between atoms: C2_2  and  C6_11 
REMARK    2  A    between atoms: C4_6  and  O1_7 
ROOT
HETATM    1  C1  UNL     1      25.664  24.018  13.170  1.00  0.00     0.046 C 
HETATM    2  C2  UNL     1      25.018  24.802  14.236  1.00  0.00    -0.046 C 
HETATM    3  C3  UNL     1      24.385  24.177  15.202  1.00  0.00     0.078 A 
HETATM    4  N1  UNL     1      24.200  22.784  15.415  1.00  0.00    -0.331 N 
ATOM      5  H1  UNL     1      24.580  22.090  14.772  1.00  0.00     0.168 HD
HETATM    6  C4  UNL     1      23.482  22.417  16.532  1.00  0.00     0.147 A 
HETATM    7  C5  UNL     1      23.017  23.351  17.318  1.00  0.00     0.107 A 
HETATM    8  S1  UNL     1      23.522  24.909  16.607  1.00  0.00    -0.080 SA
ENDROOT
BRANCH   2   9
HETATM    9  C6  UNL     1      25.066  26.276  14.242  1.00  0.00     0.017 C 
HETATM   10  C7  UNL     1      26.254  26.812  15.002  1.00  0.00     0.009 C 
HETATM   11  C8  UNL     1      27.062  27.800  14.189  1.00  0.00     0.001 C 
HETATM   12  C9  UNL     1      26.163  28.900  13.719  1.00  0.00     0.000 C 
HETATM   13  C10 UNL     1      25.089  28.299  12.849  1.00  0.00     0.001 C 
HETATM   14  C11 UNL     1      25.175  26.792  12.801  1.00  0.00     0.009 C 
ENDBRANCH   2   9
BRANCH   6  15
HETATM   15  O1  UNL     1      23.224  21.060  16.864  1.00  0.00    -0.346 OA
ATOM     16  H1  UNL     1      22.347  20.694  16.878  1.00  0.00     0.219 HD
ENDBRANCH   6  15
TORSDOF 2
ENDMDL
MODEL 4
REMARK VINA RESULT: -5.861901987      3.596      5.883
REMARK  2 active torsions:
REMARK  status: ('A' for Active; 'I' for Inactive)
REMARK    1  A    between atoms: C2_2  and  C6_11 
REMARK    2  A    between atoms: C4_6  and  O1_7 
ROOT
HETATM    1  C1  UNL     1      25.758  26.112  16.898  1.00  0.00     0.046 C 
HETATM    2  C2  UNL     1      24.788  25.153  16.345  1.00  0.00    -0.046 C 
HETATM    3  C3  UNL     1      24.024  24.465  17.164  1.00  0.00     0.078 A 
HETATM    4  N1  UNL     1      23.967  24.484  18.584  1.00  0.00    -0.331 N 
ATOM      5  H1  UNL     1      24.572  25.091  19.136  1.00  0.00     0.168 HD
HETATM    6  C4  UNL     1      23.053  23.641  19.179  1.00  0.00     0.147 A 
HETATM    7  C5  UNL     1      22.307  22.884  18.420  1.00  0.00     0.107 A 
HETATM    8  S1  UNL     1      22.772  23.240  16.734  1.00  0.00    -0.080 SA
ENDROOT
BRANCH   2   9
HETATM    9  C6  UNL     1      24.653  24.947  14.892  1.00  0.00     0.017 C 
HETATM   10  C7  UNL     1      24.846  26.221  14.107  1.00  0.00     0.009 C 
HETATM   11  C8  UNL     1      25.875  26.073  13.009  1.00  0.00     0.001 C 
HETATM   12  C9  UNL     1      25.487  24.931  12.123  1.00  0.00     0.000 C 
HETATM   13  C10 UNL     1      25.459  23.673  12.952  1.00  0.00     0.001 C 
HETATM   14  C11 UNL     1      25.718  23.951  14.414  1.00  0.00     0.009 C 
ENDBRANCH   2   9
BRANCH   6  15
HETATM   15  O1  UNL     1      22.891  23.560  20.588  1.00  0.00    -0.346 OA
ATOM     16  H1  UNL     1      22.757  22.736  21.041  1.00  0.00     0.219 HD
ENDBRANCH   6  15
TORSDOF 2
ENDMDL
MODEL 5
REMARK VINA RESULT: -5.844219759      2.700      5.561
REMARK  2 active torsions:
REMARK  status: ('A' for Active; 'I' for Inactive)
REMARK    1  A    between atoms: C2_2  and  C6_11 
REMARK    2  A    between atoms: C4_6  and  O1_7 
ROOT
HETATM    1  C1  UNL     1      25.380  23.549  12.698  1.00  0.00     0.046 C 
HETATM    2  C2  UNL     1      25.357  24.563  13.764  1.00  0.00    -0.046 C 
HETATM    3  C3  UNL     1      24.773  24.282  14.908  1.00  0.00     0.078 A 
HETATM    4  N1  UNL     1      24.116  23.093  15.325  1.00  0.00    -0.331 N 
ATOM      5  H1  UNL     1      24.036  22.283  14.711  1.00  0.00     0.168 HD
HETATM    6  C4  UNL     1      23.592  23.088  16.599  1.00  0.00     0.147 A 
HETATM    7  C5  UNL     1      23.724  24.157  17.339  1.00  0.00     0.107 A 
HETATM    8  S1  UNL     1      24.615  25.350  16.354  1.00  0.00    -0.080 SA
ENDROOT
BRANCH   2   9
HETATM    9  C6  UNL     1      25.975  25.888  13.577  1.00  0.00     0.017 C 
HETATM   10  C7  UNL     1      27.357  25.803  12.979  1.00  0.00     0.009 C 
HETATM   11  C8  UNL     1      27.513  26.681  11.758  1.00  0.00     0.001 C 
HETATM   12  C9  UNL     1      27.151  28.088  12.115  1.00  0.00     0.000 C 
HETATM   13  C10 UNL     1      25.713  28.111  12.564  1.00  0.00     0.001 C 
HETATM   14  C11 UNL     1      25.115  26.725  12.621  1.00  0.00     0.009 C 
ENDBRANCH   2   9
BRANCH   6  15
HETATM   15  O1  UNL     1      22.911  21.966  17.143  1.00  0.00    -0.346 OA
ATOM     16  H1  UNL     1      22.624  21.234  16.610  1.00  0.00     0.219 HD
ENDBRANCH   6  15
TORSDOF 2
ENDMDL
