MODEL 1
REMARK VINA RESULT: -5.917160960      0.000      0.000
REMARK  3 active torsions:
REMARK  status: ('A' for Active; 'I' for Inactive)
REMARK    1  A    between atoms: N1_1  and  N2_4 
REMARK    2  A    between atoms: N2_4  and  N3_5 
REMARK    3  A    between atoms: N3_5  and  C1_7 
ROOT
HETATM    1  C1  UNL     1      25.196  25.706  13.505  1.00  0.00     0.103 A 
HETATM    2  C2  UNL     1      24.649  26.129  14.699  1.00  0.00     0.067 A 
HETATM    3  C3  UNL     1      24.255  25.227  15.684  1.00  0.00     0.063 A 
HETATM    4  N4  UNL     1      23.707  25.386  16.904  1.00  0.00    -0.331 N 
ATOM      5  H4  UNL     1      23.466  26.269  17.354  1.00  0.00     0.168 HD
HETATM    6  C4  UNL     1      23.538  24.143  17.415  1.00  0.00     0.176 A 
HETATM    7  S1  UNL     1      22.904  23.775  18.886  1.00  0.00    -0.041 SA
HETATM    8  N5  UNL     1      23.963  23.223  16.548  1.00  0.00    -0.331 N 
ATOM      9  H5  UNL     1      23.946  22.214  16.692  1.00  0.00     0.168 HD
HETATM   10  C5  UNL     1      24.424  23.863  15.440  1.00  0.00     0.064 A 
HETATM   11  C6  UNL     1      24.972  23.460  14.242  1.00  0.00     0.076 A 
HETATM   12  C7  UNL     1      25.365  24.362  13.261  1.00  0.00     0.147 A 
HETATM   13  F1  UNL     1      25.899  23.893  12.102  1.00  0.00    -0.204 F 
ENDROOT
BRANCH   1  14
HETATM   14  N3  UNL     1      25.607  26.607  12.482  1.00  0.00    -0.214 N 
ATOM     15  H3  UNL     1      26.226  26.269  11.745  1.00  0.00     0.204 HD
BRANCH  14  16
HETATM   16  N2  UNL     1      25.238  27.780  12.463  1.00  0.00    -0.243 NA
BRANCH  16  17
HETATM   17  N1  UNL     1      25.012  28.986  12.219  1.00  0.00    -0.260 N 
ATOM     18  H12 UNL     1      25.011  28.802  11.216  1.00  0.00     0.193 HD
ATOM     19  H11 UNL     1      24.832  29.990  12.240  1.00  0.00     0.193 HD
ENDBRANCH  16  17
ENDBRANCH  14  16
ENDBRANCH   1  14
TORSDOF 3
ENDMDL
MODEL 2
REMARK VINA RESULT: -5.906446622      0.953      1.307
REMARK  3 active torsions:
REMARK  status: ('A' for Active; 'I' for Inactive)
REMARK    1  A    between atoms: N1_1  and  N2_4 
REMARK    2  A    between atoms: N2_4  and  N3_5 
REMARK    3  A    between atoms: N3_5  and  C1_7 
ROOT
HETATM    1  C1  UNL     1      25.233  25.364  13.287  1.00  0.00     0.103 A 
HETATM    2  C2  UNL     1      24.717  25.920  14.440  1.00  0.00     0.067 A 
HETATM    3  C3  UNL     1      24.358  25.136  15.534  1.00  0.00     0.063 A 
HETATM    4  N4  UNL     1      23.845  25.434  16.742  1.00  0.00    -0.331 N 
ATOM      5  H4  UNL     1      23.611  26.362  17.095  1.00  0.00     0.168 HD
HETATM    6  C4  UNL     1      23.700  24.257  17.398  1.00  0.00     0.176 A 
HETATM    7  S1  UNL     1      23.112  24.058  18.920  1.00  0.00    -0.041 SA
HETATM    8  N5  UNL     1      24.107  23.245  16.631  1.00  0.00    -0.331 N 
ATOM      9  H5  UNL     1      24.101  22.259  16.891  1.00  0.00     0.168 HD
HETATM   10  C5  UNL     1      24.531  23.754  15.444  1.00  0.00     0.064 A 
HETATM   11  C6  UNL     1      25.047  23.218  14.285  1.00  0.00     0.076 A 
HETATM   12  C7  UNL     1      25.405  24.002  13.195  1.00  0.00     0.147 A 
HETATM   13  F1  UNL     1      25.909  23.405  12.083  1.00  0.00    -0.204 F 
ENDROOT
BRANCH   1  14
HETATM   14  N3  UNL     1      25.608  26.143  12.155  1.00  0.00    -0.214 N 
ATOM     15  H3  UNL     1      24.895  26.690  11.673  1.00  0.00     0.204 HD
BRANCH  14  16
HETATM   16  N2  UNL     1      26.767  26.174  11.743  1.00  0.00    -0.243 NA
BRANCH  16  17
HETATM   17  N1  UNL     1      27.829  26.177  11.082  1.00  0.00    -0.260 N 
ATOM     18  H12 UNL     1      27.305  26.198  10.208  1.00  0.00     0.193 HD
ATOM     19  H11 UNL     1      28.790  26.176  10.742  1.00  0.00     0.193 HD
ENDBRANCH  16  17
ENDBRANCH  14  16
ENDBRANCH   1  14
TORSDOF 3
ENDMDL
MODEL 3
REMARK VINA RESULT: -5.797382706      1.818      2.382
REMARK  3 active torsions:
REMARK  status: ('A' for Active; 'I' for Inactive)
REMARK    1  A    between atoms: N1_1  and  N2_4 
REMARK    2  A    between atoms: N2_4  and  N3_5 
REMARK    3  A    between atoms: N3_5  and  C1_7 
ROOT
HETATM    1  C1  UNL     1      25.462  25.077  12.919  1.00  0.00     0.103 A 
HETATM    2  C2  UNL     1      25.132  23.978  13.685  1.00  0.00     0.067 A 
HETATM    3  C3  UNL     1      24.499  24.109  14.919  1.00  0.00     0.063 A 
HETATM    4  N4  UNL     1      24.084  23.212  15.834  1.00  0.00    -0.331 N 
ATOM      5  H4  UNL     1      24.170  22.197  15.777  1.00  0.00     0.168 HD
HETATM    6  C4  UNL     1      23.531  23.923  16.846  1.00  0.00     0.176 A 
HETATM    7  S1  UNL     1      22.868  23.308  18.218  1.00  0.00    -0.041 SA
HETATM    8  N5  UNL     1      23.593  25.229  16.583  1.00  0.00    -0.331 N 
ATOM      9  H5  UNL     1      23.247  25.977  17.185  1.00  0.00     0.168 HD
HETATM   10  C5  UNL     1      24.197  25.393  15.376  1.00  0.00     0.064 A 
HETATM   11  C6  UNL     1      24.534  26.477  14.596  1.00  0.00     0.076 A 
HETATM   12  C7  UNL     1      25.165  26.344  13.366  1.00  0.00     0.147 A 
HETATM   13  F1  UNL     1      25.468  27.459  12.649  1.00  0.00    -0.204 F 
ENDROOT
BRANCH   1  14
HETATM   14  N3  UNL     1      26.109  24.970  11.655  1.00  0.00    -0.214 N 
ATOM     15  H3  UNL     1      25.729  24.332  10.957  1.00  0.00     0.204 HD
BRANCH  14  16
HETATM   16  N2  UNL     1      27.114  25.626  11.382  1.00  0.00    -0.243 NA
BRANCH  16  17
HETATM   17  N1  UNL     1      28.000  26.351  10.879  1.00  0.00    -0.260 N 
ATOM     18  H12 UNL     1      28.421  25.546  10.416  1.00  0.00     0.193 HD
ATOM     19  H11 UNL     1      28.618  27.103  10.575  1.00  0.00     0.193 HD
ENDBRANCH  16  17
ENDBRANCH  14  16
ENDBRANCH   1  14
TORSDOF 3
ENDMDL
MODEL 4
REMARK VINA RESULT: -5.786590216      2.088      2.987
REMARK  3 active torsions:
REMARK  status: ('A' for Active; 'I' for Inactive)
REMARK    1  A    between atoms: N1_1  and  N2_4 
REMARK    2  A    between atoms: N2_4  and  N3_5 
REMARK    3  A    between atoms: N3_5  and  C1_7 
ROOT
HETATM    1  C1  UNL     1      25.313  24.176  13.439  1.00  0.00     0.103 A 
HETATM    2  C2  UNL     1      24.960  23.315  14.457  1.00  0.00     0.067 A 
HETATM    3  C3  UNL     1      24.405  23.777  15.648  1.00  0.00     0.063 A 
HETATM    4  N4  UNL     1      23.987  23.152  16.765  1.00  0.00    -0.331 N 
ATOM      5  H4  UNL     1      24.007  22.149  16.948  1.00  0.00     0.168 HD
HETATM    6  C4  UNL     1      23.536  24.119  17.600  1.00  0.00     0.176 A 
HETATM    7  S1  UNL     1      22.913  23.892  19.104  1.00  0.00    -0.041 SA
HETATM    8  N5  UNL     1      23.663  25.319  17.033  1.00  0.00    -0.331 N 
ATOM      9  H5  UNL     1      23.398  26.210  17.452  1.00  0.00     0.168 HD
HETATM   10  C5  UNL     1      24.209  25.151  15.798  1.00  0.00     0.064 A 
HETATM   11  C6  UNL     1      24.568  25.995  14.771  1.00  0.00     0.076 A 
HETATM   12  C7  UNL     1      25.121  25.531  13.583  1.00  0.00     0.147 A 
HETATM   13  F1  UNL     1      25.451  26.422  12.611  1.00  0.00    -0.204 F 
ENDROOT
BRANCH   1  14
HETATM   14  N3  UNL     1      25.882  23.730  12.212  1.00  0.00    -0.214 N 
ATOM     15  H3  UNL     1      25.424  23.976  11.336  1.00  0.00     0.204 HD
BRANCH  14  16
HETATM   16  N2  UNL     1      26.911  23.054  12.181  1.00  0.00    -0.243 NA
BRANCH  16  17
HETATM   17  N1  UNL     1      27.954  22.432  11.886  1.00  0.00    -0.260 N 
ATOM     18  H12 UNL     1      27.485  21.539  12.034  1.00  0.00     0.193 HD
ATOM     19  H11 UNL     1      28.890  22.126  11.618  1.00  0.00     0.193 HD
ENDBRANCH  16  17
ENDBRANCH  14  16
ENDBRANCH   1  14
TORSDOF 3
ENDMDL
MODEL 5
REMARK VINA RESULT: -5.776306008      4.236      5.937
REMARK  3 active torsions:
REMARK  status: ('A' for Active; 'I' for Inactive)
REMARK    1  A    between atoms: N1_1  and  N2_4 
REMARK    2  A    between atoms: N2_4  and  N3_5 
REMARK    3  A    between atoms: N3_5  and  C1_7 
ROOT
HETATM    1  C1  UNL     1      22.577  22.404  16.811  1.00  0.00     0.103 A 
HETATM    2  C2  UNL     1      23.766  22.560  16.128  1.00  0.00     0.067 A 
HETATM    3  C3  UNL     1      24.752  23.442  16.565  1.00  0.00     0.063 A 
HETATM    4  N4  UNL     1      25.967  23.766  16.084  1.00  0.00    -0.331 N 
ATOM      5  H4  UNL     1      26.412  23.391  15.246  1.00  0.00     0.168 HD
HETATM    6  C4  UNL     1      26.482  24.689  16.931  1.00  0.00     0.176 A 
HETATM    7  S1  UNL     1      27.950  25.417  16.801  1.00  0.00    -0.041 SA
HETATM    8  N5  UNL     1      25.622  24.945  17.917  1.00  0.00    -0.331 N 
ATOM      9  H5  UNL     1      25.769  25.602  18.684  1.00  0.00     0.168 HD
HETATM   10  C5  UNL     1      24.514  24.179  17.726  1.00  0.00     0.064 A 
HETATM   11  C6  UNL     1      23.322  24.010  18.394  1.00  0.00     0.076 A 
HETATM   12  C7  UNL     1      22.340  23.129  17.957  1.00  0.00     0.147 A 
HETATM   13  F1  UNL     1      21.187  23.012  18.667  1.00  0.00    -0.204 F 
ENDROOT
BRANCH   1  14
HETATM   14  N3  UNL     1      21.554  21.511  16.386  1.00  0.00    -0.214 N 
ATOM     15  H3  UNL     1      20.637  21.886  16.148  1.00  0.00     0.204 HD
BRANCH  14  16
HETATM   16  N2  UNL     1      21.747  20.298  16.297  1.00  0.00    -0.243 NA
BRANCH  16  17
HETATM   17  N1  UNL     1      22.168  19.122  16.342  1.00  0.00    -0.260 N 
ATOM     18  H12 UNL     1      21.253  18.786  16.641  1.00  0.00     0.193 HD
ATOM     19  H11 UNL     1      22.702  18.253  16.314  1.00  0.00     0.193 HD
ENDBRANCH  16  17
ENDBRANCH  14  16
ENDBRANCH   1  14
TORSDOF 3
ENDMDL
