MODEL 1
REMARK VINA RESULT: -3.291293822      0.000      0.000
REMARK  1 active torsions:
REMARK  status: ('A' for Active; 'I' for Inactive)
REMARK    1  A    between atoms: C1_2  and  C2_4 
ROOT
HETATM    1  O1  UNL     1      26.298   3.867   3.810  1.00  0.00    -0.283 OA
HETATM    2  C1  UNL     1      26.335   5.080   3.687  1.00  0.00     0.210 C 
HETATM    3  S1  UNL     1      27.497   5.895   2.599  1.00  0.00    -0.011 SA
ENDROOT
BRANCH   2   4
HETATM    4  C2  UNL     1      25.359   5.850   4.497  1.00  0.00     0.206 C 
HETATM    5 CL1  UNL     1      25.540   5.575   6.228  1.00  0.00    -0.122 Cl
ENDBRANCH   2   4
TORSDOF 1
ENDMDL
MODEL 2
REMARK VINA RESULT: -3.228793320      1.045      1.045
REMARK  1 active torsions:
REMARK  status: ('A' for Active; 'I' for Inactive)
REMARK    1  A    between atoms: C1_2  and  C2_4 
ROOT
HETATM    1  O1  UNL     1      25.548   4.485   4.357  1.00  0.00    -0.283 OA
HETATM    2  C1  UNL     1      26.241   5.348   3.842  1.00  0.00     0.210 C 
HETATM    3  S1  UNL     1      27.313   5.009   2.452  1.00  0.00    -0.011 SA
ENDROOT
BRANCH   2   4
HETATM    4  C2  UNL     1      26.148   6.704   4.438  1.00  0.00     0.206 C 
HETATM    5 CL1  UNL     1      26.355   6.696   6.188  1.00  0.00    -0.122 Cl
ENDBRANCH   2   4
TORSDOF 1
ENDMDL
MODEL 3
REMARK VINA RESULT: -3.110074432      2.766      2.914
REMARK  1 active torsions:
REMARK  status: ('A' for Active; 'I' for Inactive)
REMARK    1  A    between atoms: C1_2  and  C2_4 
ROOT
HETATM    1  O1  UNL     1      24.483   5.853   4.026  1.00  0.00    -0.283 OA
HETATM    2  C1  UNL     1      25.558   5.567   4.529  1.00  0.00     0.210 C 
HETATM    3  S1  UNL     1      26.210   6.437   5.948  1.00  0.00    -0.011 SA
ENDROOT
BRANCH   2   4
HETATM    4  C2  UNL     1      26.302   4.452   3.893  1.00  0.00     0.206 C 
HETATM    5 CL1  UNL     1      27.227   4.964   2.484  1.00  0.00    -0.122 Cl
ENDBRANCH   2   4
TORSDOF 1
ENDMDL
MODEL 4
REMARK VINA RESULT: -3.082385551      1.603      1.603
REMARK  1 active torsions:
REMARK  status: ('A' for Active; 'I' for Inactive)
REMARK    1  A    between atoms: C1_2  and  C2_4 
ROOT
HETATM    1  O1  UNL     1      26.841   7.125   4.074  1.00  0.00    -0.283 OA
HETATM    2  C1  UNL     1      26.444   6.014   3.764  1.00  0.00     0.210 C 
HETATM    3  S1  UNL     1      27.243   5.032   2.500  1.00  0.00    -0.011 SA
ENDROOT
BRANCH   2   4
HETATM    4  C2  UNL     1      25.252   5.517   4.494  1.00  0.00     0.206 C 
HETATM    5 CL1  UNL     1      25.514   5.408   6.233  1.00  0.00    -0.122 Cl
ENDBRANCH   2   4
TORSDOF 1
ENDMDL
MODEL 5
REMARK VINA RESULT: -3.073812768      1.647      1.706
REMARK  1 active torsions:
REMARK  status: ('A' for Active; 'I' for Inactive)
REMARK    1  A    between atoms: C1_2  and  C2_4 
ROOT
HETATM    1  O1  UNL     1      24.336   5.785   3.894  1.00  0.00    -0.283 OA
HETATM    2  C1  UNL     1      25.472   5.492   4.228  1.00  0.00     0.210 C 
HETATM    3  S1  UNL     1      26.750   5.108   3.038  1.00  0.00    -0.011 SA
ENDROOT
BRANCH   2   4
HETATM    4  C2  UNL     1      25.739   5.469   5.688  1.00  0.00     0.206 C 
HETATM    5 CL1  UNL     1      26.394   6.991   6.286  1.00  0.00    -0.122 Cl
ENDBRANCH   2   4
TORSDOF 1
ENDMDL
