MODEL 1
REMARK VINA RESULT: -3.525523368      0.000      0.000
REMARK  1 active torsions:
REMARK  status: ('A' for Active; 'I' for Inactive)
REMARK    1  A    between atoms: O1_2  and  C2_3 
ROOT
HETATM    1  C2  UNL     1      26.652   6.208   4.163  1.00  0.00     0.149 C 
HETATM    2 CL1  UNL     1      26.371   4.584   3.575  1.00  0.00    -0.056 Cl
HETATM    3  C3  UNL     1      26.216   6.539   5.357  1.00  0.00     0.134 C 
HETATM    4 CL2  UNL     1      25.360   5.427   6.403  1.00  0.00    -0.093 Cl
ENDROOT
BRANCH   1   5
HETATM    5  O1  UNL     1      27.315   7.105   3.382  1.00  0.00    -0.344 OA
HETATM    6  C1  UNL     1      28.076   6.760   2.235  1.00  0.00     0.211 C 
ENDBRANCH   1   5
TORSDOF 1
ENDMDL
MODEL 2
REMARK VINA RESULT: -3.485008743      2.420      3.410
REMARK  1 active torsions:
REMARK  status: ('A' for Active; 'I' for Inactive)
REMARK    1  A    between atoms: O1_2  and  C2_3 
ROOT
HETATM    1  C2  UNL     1      26.585   6.108   4.021  1.00  0.00     0.149 C 
HETATM    2 CL1  UNL     1      27.790   7.278   3.531  1.00  0.00    -0.056 Cl
HETATM    3  C3  UNL     1      26.485   4.979   3.355  1.00  0.00     0.134 C 
HETATM    4 CL2  UNL     1      27.505   4.581   1.991  1.00  0.00    -0.093 Cl
ENDROOT
BRANCH   1   5
HETATM    5  O1  UNL     1      25.770   6.377   5.077  1.00  0.00    -0.344 OA
HETATM    6  C1  UNL     1      25.588   5.514   6.190  1.00  0.00     0.211 C 
ENDBRANCH   1   5
TORSDOF 1
ENDMDL
MODEL 3
REMARK VINA RESULT: -3.445517050      1.633      1.773
REMARK  1 active torsions:
REMARK  status: ('A' for Active; 'I' for Inactive)
REMARK    1  A    between atoms: O1_2  and  C2_3 
ROOT
HETATM    1  C2  UNL     1      26.735   6.209   4.191  1.00  0.00     0.149 C 
HETATM    2 CL1  UNL     1      27.366   7.466   5.231  1.00  0.00    -0.056 Cl
HETATM    3  C3  UNL     1      25.865   5.354   4.679  1.00  0.00     0.134 C 
HETATM    4 CL2  UNL     1      25.298   5.409   6.334  1.00  0.00    -0.093 Cl
ENDROOT
BRANCH   1   5
HETATM    5  O1  UNL     1      27.149   6.131   2.897  1.00  0.00    -0.344 OA
HETATM    6  C1  UNL     1      27.564   4.932   2.259  1.00  0.00     0.211 C 
ENDBRANCH   1   5
TORSDOF 1
ENDMDL
MODEL 4
REMARK VINA RESULT: -3.427356288      1.259      1.761
REMARK  1 active torsions:
REMARK  status: ('A' for Active; 'I' for Inactive)
REMARK    1  A    between atoms: O1_2  and  C2_3 
ROOT
HETATM    1  C2  UNL     1      26.717   6.835   4.466  1.00  0.00     0.149 C 
HETATM    2 CL1  UNL     1      26.748   7.792   5.931  1.00  0.00    -0.056 Cl
HETATM    3  C3  UNL     1      26.080   5.687   4.467  1.00  0.00     0.134 C 
HETATM    4 CL2  UNL     1      25.250   5.057   5.873  1.00  0.00    -0.093 Cl
ENDROOT
BRANCH   1   5
HETATM    5  O1  UNL     1      27.349   7.289   3.349  1.00  0.00    -0.344 OA
HETATM    6  C1  UNL     1      28.008   6.456   2.406  1.00  0.00     0.211 C 
ENDBRANCH   1   5
TORSDOF 1
ENDMDL
MODEL 5
REMARK VINA RESULT: -3.415412794      1.822      2.119
REMARK  1 active torsions:
REMARK  status: ('A' for Active; 'I' for Inactive)
REMARK    1  A    between atoms: O1_2  and  C2_3 
ROOT
HETATM    1  C2  UNL     1      26.156   5.671   4.498  1.00  0.00     0.149 C 
HETATM    2 CL1  UNL     1      25.392   5.072   5.954  1.00  0.00    -0.056 Cl
HETATM    3  C3  UNL     1      26.663   6.883   4.497  1.00  0.00     0.134 C 
HETATM    4 CL2  UNL     1      26.616   7.940   5.890  1.00  0.00    -0.093 Cl
ENDROOT
BRANCH   1   5
HETATM    5  O1  UNL     1      26.215   4.882   3.391  1.00  0.00    -0.344 OA
HETATM    6  C1  UNL     1      27.261   4.922   2.432  1.00  0.00     0.211 C 
ENDBRANCH   1   5
TORSDOF 1
ENDMDL
