MODEL 1
REMARK VINA RESULT: -4.666338212      0.000      0.000
REMARK  0 active torsions:
REMARK  status: ('A' for Active; 'I' for Inactive)
ROOT
HETATM    1  C1  UNL     1      26.104   5.375   6.075  1.00  0.00     0.035 C 
HETATM    2  C2  UNL     1      26.412   6.856   5.799  1.00  0.00     0.035 C 
HETATM    3  C3  UNL     1      26.148   6.904   4.306  1.00  0.00     0.186 C 
HETATM    4  C4  UNL     1      27.023   5.916   3.600  1.00  0.00     0.035 C 
HETATM    5  C5  UNL     1      26.338   4.554   3.803  1.00  0.00     0.035 C 
HETATM    6  C6  UNL     1      25.328   4.948   4.875  1.00  0.00     0.186 C 
HETATM    7  N1  UNL     1      24.848   6.207   4.276  1.00  0.00    -0.067 N 
ATOM      8  H11 UNL     1      24.369   6.147   3.378  1.00  0.00     0.278 HD
ATOM      9  H12 UNL     1      24.058   6.669   4.726  1.00  0.00     0.278 HD
ENDROOT
TORSDOF 0
ENDMDL
MODEL 2
REMARK VINA RESULT: -4.654008766      0.180      2.468
REMARK  0 active torsions:
REMARK  status: ('A' for Active; 'I' for Inactive)
ROOT
HETATM    1  C1  UNL     1      27.066   6.145   3.609  1.00  0.00     0.035 C 
HETATM    2  C2  UNL     1      26.469   4.728   3.607  1.00  0.00     0.035 C 
HETATM    3  C3  UNL     1      25.442   4.874   4.713  1.00  0.00     0.186 C 
HETATM    4  C4  UNL     1      26.114   5.293   5.983  1.00  0.00     0.035 C 
HETATM    5  C5  UNL     1      26.351   6.805   5.833  1.00  0.00     0.035 C 
HETATM    6  C6  UNL     1      26.051   6.952   4.346  1.00  0.00     0.186 C 
HETATM    7  N1  UNL     1      24.820   6.142   4.287  1.00  0.00    -0.067 N 
ATOM      8  H11 UNL     1      24.015   6.472   4.820  1.00  0.00     0.278 HD
ATOM      9  H12 UNL     1      24.302   6.139   3.409  1.00  0.00     0.278 HD
ENDROOT
TORSDOF 0
ENDMDL
MODEL 3
REMARK VINA RESULT: -4.206998357      0.816      1.885
REMARK  0 active torsions:
REMARK  status: ('A' for Active; 'I' for Inactive)
ROOT
HETATM    1  C1  UNL     1      26.835   7.066   4.945  1.00  0.00     0.035 C 
HETATM    2  C2  UNL     1      27.039   6.508   3.527  1.00  0.00     0.035 C 
HETATM    3  C3  UNL     1      26.087   5.327   3.570  1.00  0.00     0.186 C 
HETATM    4  C4  UNL     1      26.464   4.408   4.690  1.00  0.00     0.035 C 
HETATM    5  C5  UNL     1      25.901   5.069   5.960  1.00  0.00     0.035 C 
HETATM    6  C6  UNL     1      25.556   6.439   5.389  1.00  0.00     0.186 C 
HETATM    7  N1  UNL     1      24.905   6.001   4.140  1.00  0.00    -0.067 N 
ATOM      8  H11 UNL     1      24.049   5.454   4.224  1.00  0.00     0.278 HD
ATOM      9  H12 UNL     1      24.454   6.717   3.571  1.00  0.00     0.278 HD
ENDROOT
TORSDOF 0
ENDMDL
MODEL 4
REMARK VINA RESULT: -4.140893694      0.806      1.592
REMARK  0 active torsions:
REMARK  status: ('A' for Active; 'I' for Inactive)
ROOT
HETATM    1  C1  UNL     1      26.483   4.409   4.704  1.00  0.00     0.035 C 
HETATM    2  C2  UNL     1      25.900   5.059   5.969  1.00  0.00     0.035 C 
HETATM    3  C3  UNL     1      25.588   6.444   5.434  1.00  0.00     0.186 C 
HETATM    4  C4  UNL     1      26.834   7.075   4.895  1.00  0.00     0.035 C 
HETATM    5  C5  UNL     1      27.035   6.446   3.505  1.00  0.00     0.035 C 
HETATM    6  C6  UNL     1      26.026   5.308   3.605  1.00  0.00     0.186 C 
HETATM    7  N1  UNL     1      24.899   6.061   4.187  1.00  0.00    -0.067 N 
ATOM      8  H11 UNL     1      24.496   6.811   3.625  1.00  0.00     0.278 HD
ATOM      9  H12 UNL     1      24.006   5.577   4.274  1.00  0.00     0.278 HD
ENDROOT
TORSDOF 0
ENDMDL
MODEL 5
REMARK VINA RESULT: -3.799895652      1.151      2.174
REMARK  0 active torsions:
REMARK  status: ('A' for Active; 'I' for Inactive)
ROOT
HETATM    1  C1  UNL     1      26.442   6.688   6.057  1.00  0.00     0.035 C 
HETATM    2  C2  UNL     1      25.957   5.233   6.166  1.00  0.00     0.035 C 
HETATM    3  C3  UNL     1      25.716   4.927   4.700  1.00  0.00     0.186 C 
HETATM    4  C4  UNL     1      24.731   5.899   4.129  1.00  0.00     0.035 C 
HETATM    5  C5  UNL     1      25.541   7.179   3.858  1.00  0.00     0.035 C 
HETATM    6  C6  UNL     1      26.814   6.828   4.620  1.00  0.00     0.186 C 
HETATM    7  N1  UNL     1      26.982   5.442   4.144  1.00  0.00    -0.067 N 
ATOM      8  H11 UNL     1      27.146   5.305   3.147  1.00  0.00     0.278 HD
ATOM      9  H12 UNL     1      27.840   4.957   4.405  1.00  0.00     0.278 HD
ENDROOT
TORSDOF 0
ENDMDL
