MODEL 1
REMARK VINA RESULT: -7.068256632      0.000      0.000
REMARK  5 active torsions:
REMARK  status: ('A' for Active; 'I' for Inactive)
REMARK    1  A    between atoms: C2_2  and  N1_5 
REMARK    2  A    between atoms: N1_5  and  C5_7 
REMARK    3  A    between atoms: C5_7  and  O1_8 
REMARK    4  A    between atoms: N2_10  and  C6_12 
REMARK    5  A    between atoms: C8_16  and  C9_17 
ROOT
HETATM    1  C5  UNL     1      25.627  11.102  31.026  1.00  0.00     0.219 C 
HETATM    2  N2  UNL     1      24.481  10.399  30.853  1.00  0.00    -0.303 N 
ATOM      3  H2  UNL     1      24.349  10.093  29.889  1.00  0.00     0.171 HD
ENDROOT
BRANCH   2   4
HETATM    4  C6  UNL     1      23.530  10.032  31.616  1.00  0.00     0.151 A 
HETATM    5  N3  UNL     1      23.469   9.156  32.608  1.00  0.00    -0.345 N 
HETATM    6  C7  UNL     1      22.353   8.975  33.256  1.00  0.00     0.105 A 
ATOM      7  H3  UNL     1      24.299   8.620  32.866  1.00  0.00     0.167 HD
HETATM    8  C8  UNL     1      21.267   9.726  32.865  1.00  0.00     0.009 A 
HETATM    9  S1  UNL     1      21.886  10.650  31.594  1.00  0.00    -0.056 SA
BRANCH   8  10
HETATM   10  C9  UNL     1      19.878   9.684  33.466  1.00  0.00    -0.016 C 
HETATM   11  C10 UNL     1      19.359  11.058  33.759  1.00  0.00     0.020 C 
HETATM   12  C11 UNL     1      19.009   9.000  32.416  1.00  0.00     0.020 C 
HETATM   13  C12 UNL     1      19.821   8.808  34.693  1.00  0.00     0.020 C 
ENDBRANCH   8  10
ENDBRANCH   2   4
BRANCH   1  14
HETATM   14  N1  UNL     1      25.987  12.117  31.951  1.00  0.00    -0.348 N 
ATOM     15  H1  UNL     1      26.713  11.939  32.644  1.00  0.00     0.163 HD
BRANCH  14  16
HETATM   16  C2  UNL     1      25.332  13.390  31.910  1.00  0.00     0.022 C 
HETATM   17  C1  UNL     1      24.181  13.367  32.897  1.00  0.00     0.037 C 
HETATM   18  C3  UNL     1      24.763  13.639  30.529  1.00  0.00     0.037 C 
HETATM   19  C4  UNL     1      26.345  14.450  32.298  1.00  0.00     0.037 C 
ENDBRANCH  14  16
ENDBRANCH   1  14
BRANCH   1  20
HETATM   20  O1  UNL     1      26.586  10.779  30.168  1.00  0.00    -0.332 OA
ATOM     21  H1  UNL     1      27.146  10.068  30.457  1.00  0.00     0.220 HD
ENDBRANCH   1  20
TORSDOF 5
ENDMDL
MODEL 2
REMARK VINA RESULT: -7.054486125      0.084      1.041
REMARK  5 active torsions:
REMARK  status: ('A' for Active; 'I' for Inactive)
REMARK    1  A    between atoms: C2_2  and  N1_5 
REMARK    2  A    between atoms: N1_5  and  C5_7 
REMARK    3  A    between atoms: C5_7  and  O1_8 
REMARK    4  A    between atoms: N2_10  and  C6_12 
REMARK    5  A    between atoms: C8_16  and  C9_17 
ROOT
HETATM    1  C5  UNL     1      25.668  11.131  30.949  1.00  0.00     0.219 C 
HETATM    2  N2  UNL     1      24.522  10.423  30.793  1.00  0.00    -0.303 N 
ATOM      3  H2  UNL     1      24.380  10.115  29.830  1.00  0.00     0.171 HD
ENDROOT
BRANCH   2   4
HETATM    4  C6  UNL     1      23.584  10.053  31.568  1.00  0.00     0.151 A 
HETATM    5  N3  UNL     1      23.551   9.216  32.595  1.00  0.00    -0.345 N 
HETATM    6  C7  UNL     1      22.440   9.023  33.249  1.00  0.00     0.105 A 
ATOM      7  H3  UNL     1      24.398   8.722  32.875  1.00  0.00     0.167 HD
HETATM    8  C8  UNL     1      21.329   9.718  32.825  1.00  0.00     0.009 A 
HETATM    9  S1  UNL     1      21.919  10.611  31.519  1.00  0.00    -0.056 SA
BRANCH   8  10
HETATM   10  C9  UNL     1      19.941   9.651  33.425  1.00  0.00    -0.016 C 
HETATM   11  C10 UNL     1      19.398  11.016  33.721  1.00  0.00     0.020 C 
HETATM   12  C11 UNL     1      19.084   8.954  32.374  1.00  0.00     0.020 C 
HETATM   13  C12 UNL     1      19.898   8.772  34.651  1.00  0.00     0.020 C 
ENDBRANCH   8  10
ENDBRANCH   2   4
BRANCH   1  14
HETATM   14  N1  UNL     1      26.036  12.148  31.868  1.00  0.00    -0.348 N 
ATOM     15  H1  UNL     1      26.817  11.999  32.507  1.00  0.00     0.163 HD
BRANCH  14  16
HETATM   16  C2  UNL     1      25.313  13.384  31.897  1.00  0.00     0.022 C 
HETATM   17  C1  UNL     1      26.263  14.484  32.329  1.00  0.00     0.037 C 
HETATM   18  C3  UNL     1      24.190  13.306  32.910  1.00  0.00     0.037 C 
HETATM   19  C4  UNL     1      24.789  13.653  30.499  1.00  0.00     0.037 C 
ENDBRANCH  14  16
ENDBRANCH   1  14
BRANCH   1  20
HETATM   20  O1  UNL     1      26.617  10.810  30.079  1.00  0.00    -0.332 OA
ATOM     21  H1  UNL     1      26.407  11.018  29.177  1.00  0.00     0.220 HD
ENDBRANCH   1  20
TORSDOF 5
ENDMDL
MODEL 3
REMARK VINA RESULT: -6.996292217      2.536      5.955
REMARK  5 active torsions:
REMARK  status: ('A' for Active; 'I' for Inactive)
REMARK    1  A    between atoms: C2_2  and  N1_5 
REMARK    2  A    between atoms: N1_5  and  C5_7 
REMARK    3  A    between atoms: C5_7  and  O1_8 
REMARK    4  A    between atoms: N2_10  and  C6_12 
REMARK    5  A    between atoms: C8_16  and  C9_17 
ROOT
HETATM    1  C5  UNL     1      20.126   9.483  32.373  1.00  0.00     0.219 C 
HETATM    2  N2  UNL     1      21.418   9.231  32.699  1.00  0.00    -0.303 N 
ATOM      3  H2  UNL     1      21.539   8.320  33.143  1.00  0.00     0.171 HD
ENDROOT
BRANCH   2   4
HETATM    4  C6  UNL     1      22.514   9.866  32.578  1.00  0.00     0.151 A 
HETATM    5  N3  UNL     1      23.584   9.955  33.355  1.00  0.00    -0.345 N 
HETATM    6  C7  UNL     1      24.605  10.675  32.984  1.00  0.00     0.105 A 
ATOM      7  H3  UNL     1      23.609   9.458  34.246  1.00  0.00     0.167 HD
HETATM    8  C8  UNL     1      24.515  11.323  31.772  1.00  0.00     0.009 A 
HETATM    9  S1  UNL     1      22.983  10.876  31.220  1.00  0.00    -0.056 SA
BRANCH   8  10
HETATM   10  C9  UNL     1      25.568  12.209  31.143  1.00  0.00    -0.016 C 
HETATM   11  C10 UNL     1      25.018  13.555  30.783  1.00  0.00     0.020 C 
HETATM   12  C11 UNL     1      26.659  12.346  32.200  1.00  0.00     0.020 C 
HETATM   13  C12 UNL     1      26.220  11.552  29.951  1.00  0.00     0.020 C 
ENDBRANCH   8  10
ENDBRANCH   2   4
BRANCH   1  14
HETATM   14  N1  UNL     1      19.400  10.696  32.245  1.00  0.00    -0.348 N 
ATOM     15  H1  UNL     1      19.036  10.977  31.334  1.00  0.00     0.163 HD
BRANCH  14  16
HETATM   16  C2  UNL     1      19.179  11.525  33.392  1.00  0.00     0.022 C 
HETATM   17  C1  UNL     1      17.992  12.425  33.109  1.00  0.00     0.037 C 
HETATM   18  C3  UNL     1      20.388  12.402  33.642  1.00  0.00     0.037 C 
HETATM   19  C4  UNL     1      18.890  10.619  34.574  1.00  0.00     0.037 C 
ENDBRANCH  14  16
ENDBRANCH   1  14
BRANCH   1  20
HETATM   20  O1  UNL     1      19.413   8.391  32.132  1.00  0.00    -0.332 OA
ATOM     21  H1  UNL     1      19.775   7.828  31.458  1.00  0.00     0.220 HD
ENDBRANCH   1  20
TORSDOF 5
ENDMDL
MODEL 4
REMARK VINA RESULT: -6.915669169      0.195      1.046
REMARK  5 active torsions:
REMARK  status: ('A' for Active; 'I' for Inactive)
REMARK    1  A    between atoms: C2_2  and  N1_5 
REMARK    2  A    between atoms: N1_5  and  C5_7 
REMARK    3  A    between atoms: C5_7  and  O1_8 
REMARK    4  A    between atoms: N2_10  and  C6_12 
REMARK    5  A    between atoms: C8_16  and  C9_17 
ROOT
HETATM    1  C5  UNL     1      25.739  11.224  31.189  1.00  0.00     0.219 C 
HETATM    2  N2  UNL     1      24.648  10.447  30.978  1.00  0.00    -0.303 N 
ATOM      3  H2  UNL     1      24.585  10.111  30.016  1.00  0.00     0.171 HD
ENDROOT
BRANCH   2   4
HETATM    4  C6  UNL     1      23.684  10.038  31.701  1.00  0.00     0.151 A 
HETATM    5  N3  UNL     1      23.624   9.178  32.707  1.00  0.00    -0.345 N 
HETATM    6  C7  UNL     1      22.489   8.945  33.305  1.00  0.00     0.105 A 
ATOM      7  H3  UNL     1      24.469   8.697  33.016  1.00  0.00     0.167 HD
HETATM    8  C8  UNL     1      21.382   9.624  32.845  1.00  0.00     0.009 A 
HETATM    9  S1  UNL     1      22.010  10.560  31.587  1.00  0.00    -0.056 SA
BRANCH   8  10
HETATM   10  C9  UNL     1      19.971   9.512  33.379  1.00  0.00    -0.016 C 
HETATM   11  C10 UNL     1      19.922   8.747  34.666  1.00  0.00     0.020 C 
HETATM   12  C11 UNL     1      19.512  10.950  33.598  1.00  0.00     0.020 C 
HETATM   13  C12 UNL     1      19.027   8.922  32.360  1.00  0.00     0.020 C 
ENDBRANCH   8  10
ENDBRANCH   2   4
BRANCH   1  14
HETATM   14  N1  UNL     1      25.988  12.280  32.104  1.00  0.00    -0.348 N 
ATOM     15  H1  UNL     1      26.651  12.146  32.867  1.00  0.00     0.163 HD
BRANCH  14  16
HETATM   16  C2  UNL     1      25.309  13.532  31.956  1.00  0.00     0.022 C 
HETATM   17  C1  UNL     1      24.073  13.513  32.833  1.00  0.00     0.037 C 
HETATM   18  C3  UNL     1      24.865  13.718  30.519  1.00  0.00     0.037 C 
HETATM   19  C4  UNL     1      26.256  14.632  32.395  1.00  0.00     0.037 C 
ENDBRANCH  14  16
ENDBRANCH   1  14
BRANCH   1  20
HETATM   20  O1  UNL     1      26.759  10.941  30.389  1.00  0.00    -0.332 OA
ATOM     21  H1  UNL     1      27.281  10.198  30.668  1.00  0.00     0.220 HD
ENDBRANCH   1  20
TORSDOF 5
ENDMDL
MODEL 5
REMARK VINA RESULT: -6.890466958      2.519      5.904
REMARK  5 active torsions:
REMARK  status: ('A' for Active; 'I' for Inactive)
REMARK    1  A    between atoms: C2_2  and  N1_5 
REMARK    2  A    between atoms: N1_5  and  C5_7 
REMARK    3  A    between atoms: C5_7  and  O1_8 
REMARK    4  A    between atoms: N2_10  and  C6_12 
REMARK    5  A    between atoms: C8_16  and  C9_17 
ROOT
HETATM    1  C5  UNL     1      20.537   9.137  33.270  1.00  0.00     0.219 C 
HETATM    2  N2  UNL     1      21.840   8.998  32.923  1.00  0.00    -0.303 N 
ATOM      3  H2  UNL     1      22.093   8.028  32.729  1.00  0.00     0.171 HD
ENDROOT
BRANCH   2   4
HETATM    4  C6  UNL     1      22.822   9.795  32.782  1.00  0.00     0.151 A 
HETATM    5  N3  UNL     1      23.685  10.310  33.646  1.00  0.00    -0.345 N 
HETATM    6  C7  UNL     1      24.631  11.106  33.233  1.00  0.00     0.105 A 
ATOM      7  H3  UNL     1      23.609  10.082  34.637  1.00  0.00     0.167 HD
HETATM    8  C8  UNL     1      24.684  11.377  31.884  1.00  0.00     0.009 A 
HETATM    9  S1  UNL     1      23.386  10.487  31.269  1.00  0.00    -0.056 SA
BRANCH   8  10
HETATM   10  C9  UNL     1      25.686  12.268  31.182  1.00  0.00    -0.016 C 
HETATM   11  C10 UNL     1      25.097  13.601  30.836  1.00  0.00     0.020 C 
HETATM   12  C11 UNL     1      26.834  12.435  32.171  1.00  0.00     0.020 C 
HETATM   13  C12 UNL     1      26.277  11.602  29.963  1.00  0.00     0.020 C 
ENDBRANCH   8  10
ENDBRANCH   2   4
BRANCH   1  14
HETATM   14  N1  UNL     1      19.870  10.090  34.084  1.00  0.00    -0.348 N 
ATOM     15  H1  UNL     1      19.750   9.912  35.081  1.00  0.00     0.163 HD
BRANCH  14  16
HETATM   16  C2  UNL     1      19.365  11.299  33.505  1.00  0.00     0.022 C 
HETATM   17  C1  UNL     1      18.415  11.942  34.497  1.00  0.00     0.037 C 
HETATM   18  C3  UNL     1      18.589  10.988  32.242  1.00  0.00     0.037 C 
HETATM   19  C4  UNL     1      20.543  12.212  33.227  1.00  0.00     0.037 C 
ENDBRANCH  14  16
ENDBRANCH   1  14
BRANCH   1  20
HETATM   20  O1  UNL     1      19.744   8.209  32.752  1.00  0.00    -0.332 OA
ATOM     21  H1  UNL     1      20.164   7.649  32.110  1.00  0.00     0.220 HD
ENDBRANCH   1  20
TORSDOF 5
ENDMDL
