MODEL 1
REMARK VINA RESULT: -10.808778850      0.000      0.000
REMARK  1 active torsions:
REMARK  status: ('A' for Active; 'I' for Inactive)
REMARK       I    between atoms: C1_4  and  N3_6 
REMARK    1  A    between atoms: N3_6  and  N4_8 
ROOT
HETATM    1  N4  UNL     1      22.949  13.276  32.754  1.00  0.00    -0.297 N 
ATOM      2  H4  UNL     1      22.138  13.843  33.001  1.00  0.00     0.187 HD
HETATM    3  C2  UNL     1      22.645  12.101  32.898  1.00  0.00     0.070 A 
HETATM    4  C3  UNL     1      23.489  10.945  32.661  1.00  0.00     0.004 A 
HETATM    5  C4  UNL     1      24.794  11.071  32.225  1.00  0.00     0.014 A 
HETATM    6  C5  UNL     1      25.632  10.018  31.988  1.00  0.00     0.001 A 
HETATM    7  C6  UNL     1      25.166   8.758  32.188  1.00  0.00     0.001 A 
HETATM    8  C7  UNL     1      23.850   8.565  32.630  1.00  0.00     0.013 A 
HETATM    9  C8  UNL     1      23.026   9.641  32.862  1.00  0.00    -0.013 A 
HETATM   10  C9  UNL     1      21.648   9.383  33.328  1.00  0.00    -0.013 A 
HETATM   11  C10 UNL     1      21.145   8.124  33.540  1.00  0.00     0.013 A 
HETATM   12  C11 UNL     1      19.838   7.913  33.979  1.00  0.00     0.002 A 
HETATM   13  C12 UNL     1      19.042   8.995  34.202  1.00  0.00     0.012 A 
HETATM   14  C13 UNL     1      19.549  10.257  33.988  1.00  0.00    -0.024 A 
HETATM   15  C14 UNL     1      18.675  11.309  34.239  1.00  0.00     0.012 A 
HETATM   16  C15 UNL     1      19.130  12.580  34.041  1.00  0.00     0.002 A 
HETATM   17  C16 UNL     1      20.403  12.815  33.612  1.00  0.00     0.014 A 
HETATM   18  C17 UNL     1      21.274  11.787  33.362  1.00  0.00     0.005 A 
HETATM   19  C18 UNL     1      20.851  10.492  33.550  1.00  0.00    -0.002 A 
ENDROOT
BRANCH   1  20
HETATM   20  N3  UNL     1      23.937  14.100  32.397  1.00  0.00    -0.273 N 
HETATM   21  C1  UNL     1      25.071  13.815  31.610  1.00  0.00     0.200 C 
HETATM   22  N1  UNL     1      25.014  13.992  30.353  1.00  0.00    -0.372 N 
HETATM   23  N2  UNL     1      26.244  13.341  32.218  1.00  0.00    -0.062 NA
ATOM     24  H12 UNL     1      25.834  13.786  29.783  1.00  0.00     0.158 HD
ATOM     25  H11 UNL     1      24.161  14.336  29.911  1.00  0.00     0.158 HD
ATOM     26  H3  UNL     1      23.861  15.059  32.738  1.00  0.00     0.189 HD
ENDBRANCH   1  20
TORSDOF 1
ENDMDL
MODEL 2
REMARK VINA RESULT: -10.795486617      2.051      5.214
REMARK  1 active torsions:
REMARK  status: ('A' for Active; 'I' for Inactive)
REMARK       I    between atoms: C1_4  and  N3_6 
REMARK    1  A    between atoms: N3_6  and  N4_8 
ROOT
HETATM    1  N4  UNL     1      20.818  12.751  33.751  1.00  0.00    -0.297 N 
ATOM      2  H4  UNL     1      21.307  13.629  33.576  1.00  0.00     0.187 HD
HETATM    3  C2  UNL     1      21.570  11.834  33.455  1.00  0.00     0.070 A 
HETATM    4  C3  UNL     1      21.294  10.413  33.543  1.00  0.00     0.004 A 
HETATM    5  C4  UNL     1      20.080   9.933  33.997  1.00  0.00     0.014 A 
HETATM    6  C5  UNL     1      19.766   8.606  34.099  1.00  0.00     0.001 A 
HETATM    7  C6  UNL     1      20.698   7.688  33.735  1.00  0.00     0.001 A 
HETATM    8  C7  UNL     1      21.949   8.114  33.267  1.00  0.00     0.013 A 
HETATM    9  C8  UNL     1      22.240   9.453  33.172  1.00  0.00    -0.013 A 
HETATM   10  C9  UNL     1      23.573   9.850  32.672  1.00  0.00    -0.013 A 
HETATM   11  C10 UNL     1      24.537   8.948  32.296  1.00  0.00     0.013 A 
HETATM   12  C11 UNL     1      25.787   9.353  31.827  1.00  0.00     0.002 A 
HETATM   13  C12 UNL     1      26.052  10.686  31.744  1.00  0.00     0.012 A 
HETATM   14  C13 UNL     1      25.083  11.588  32.122  1.00  0.00    -0.024 A 
HETATM   15  C14 UNL     1      25.429  12.930  32.006  1.00  0.00     0.012 A 
HETATM   16  C15 UNL     1      24.503  13.863  32.369  1.00  0.00     0.002 A 
HETATM   17  C16 UNL     1      23.273  13.495  32.830  1.00  0.00     0.014 A 
HETATM   18  C17 UNL     1      22.920  12.176  32.948  1.00  0.00     0.005 A 
HETATM   19  C18 UNL     1      23.827  11.206  32.592  1.00  0.00    -0.002 A 
ENDROOT
BRANCH   1  20
HETATM   20  N3  UNL     1      19.600  13.042  34.216  1.00  0.00    -0.273 N 
HETATM   21  C1  UNL     1      18.385  12.377  33.956  1.00  0.00     0.200 C 
HETATM   22  N1  UNL     1      18.013  11.438  34.728  1.00  0.00    -0.372 N 
HETATM   23  N2  UNL     1      17.601  12.754  32.854  1.00  0.00    -0.062 NA
ATOM     24  H12 UNL     1      17.134  10.957  34.541  1.00  0.00     0.158 HD
ATOM     25  H11 UNL     1      18.583  11.164  35.529  1.00  0.00     0.158 HD
ATOM     26  H3  UNL     1      19.543  13.848  34.838  1.00  0.00     0.189 HD
ENDBRANCH   1  20
TORSDOF 1
ENDMDL
MODEL 3
REMARK VINA RESULT: -10.671648508      1.834      3.664
REMARK  1 active torsions:
REMARK  status: ('A' for Active; 'I' for Inactive)
REMARK       I    between atoms: C1_4  and  N3_6 
REMARK    1  A    between atoms: N3_6  and  N4_8 
ROOT
HETATM    1  N4  UNL     1      23.905   9.519  32.641  1.00  0.00    -0.297 N 
ATOM      2  H4  UNL     1      23.528   8.573  32.695  1.00  0.00     0.187 HD
HETATM    3  C2  UNL     1      23.019  10.298  32.958  1.00  0.00     0.070 A 
HETATM    4  C3  UNL     1      23.108  11.744  33.023  1.00  0.00     0.004 A 
HETATM    5  C4  UNL     1      24.274  12.418  32.713  1.00  0.00     0.014 A 
HETATM    6  C5  UNL     1      24.413  13.777  32.757  1.00  0.00     0.001 A 
HETATM    7  C6  UNL     1      23.344  14.528  33.127  1.00  0.00     0.001 A 
HETATM    8  C7  UNL     1      22.133  13.902  33.455  1.00  0.00     0.013 A 
HETATM    9  C8  UNL     1      22.018  12.534  33.403  1.00  0.00    -0.013 A 
HETATM   10  C9  UNL     1      20.720  11.923  33.756  1.00  0.00    -0.013 A 
HETATM   11  C10 UNL     1      19.621  12.653  34.135  1.00  0.00     0.013 A 
HETATM   12  C11 UNL     1      18.407  12.047  34.464  1.00  0.00     0.002 A 
HETATM   13  C12 UNL     1      18.319  10.689  34.405  1.00  0.00     0.012 A 
HETATM   14  C13 UNL     1      19.424   9.960  34.025  1.00  0.00    -0.024 A 
HETATM   15  C14 UNL     1      19.253   8.581  33.989  1.00  0.00     0.012 A 
HETATM   16  C15 UNL     1      20.319   7.814  33.618  1.00  0.00     0.002 A 
HETATM   17  C16 UNL     1      21.516   8.380  33.292  1.00  0.00     0.014 A 
HETATM   18  C17 UNL     1      21.697   9.738  33.323  1.00  0.00     0.005 A 
HETATM   19  C18 UNL     1      20.645  10.544  33.692  1.00  0.00    -0.002 A 
ENDROOT
BRANCH   1  20
HETATM   20  N3  UNL     1      25.179   9.433  32.251  1.00  0.00    -0.273 N 
HETATM   21  C1  UNL     1      25.836  10.172  31.245  1.00  0.00     0.200 C 
HETATM   22  N1  UNL     1      26.426  11.254  31.554  1.00  0.00    -0.372 N 
HETATM   23  N2  UNL     1      25.831   9.709  29.920  1.00  0.00    -0.062 NA
ATOM     24  H12 UNL     1      26.901  11.788  30.827  1.00  0.00     0.158 HD
ATOM     25  H11 UNL     1      26.429  11.590  32.517  1.00  0.00     0.158 HD
ATOM     26  H3  UNL     1      25.751   8.746  32.743  1.00  0.00     0.189 HD
ENDBRANCH   1  20
TORSDOF 1
ENDMDL
MODEL 4
REMARK VINA RESULT: -10.219024147      2.777      6.334
REMARK  1 active torsions:
REMARK  status: ('A' for Active; 'I' for Inactive)
REMARK       I    between atoms: C1_4  and  N3_6 
REMARK    1  A    between atoms: N3_6  and  N4_8 
ROOT
HETATM    1  N4  UNL     1      21.509   8.491  33.246  1.00  0.00    -0.297 N 
ATOM      2  H4  UNL     1      22.312   7.896  33.044  1.00  0.00     0.187 HD
HETATM    3  C2  UNL     1      21.864   9.655  33.132  1.00  0.00     0.070 A 
HETATM    4  C3  UNL     1      21.051  10.840  33.327  1.00  0.00     0.004 A 
HETATM    5  C4  UNL     1      19.718  10.759  33.682  1.00  0.00     0.014 A 
HETATM    6  C5  UNL     1      18.907  11.842  33.879  1.00  0.00     0.001 A 
HETATM    7  C6  UNL     1      19.431  13.085  33.719  1.00  0.00     0.001 A 
HETATM    8  C7  UNL     1      20.777  13.231  33.358  1.00  0.00     0.013 A 
HETATM    9  C8  UNL     1      21.573  12.127  33.166  1.00  0.00    -0.013 A 
HETATM   10  C9  UNL     1      22.986  12.336  32.787  1.00  0.00    -0.013 A 
HETATM   11  C10 UNL     1      23.546  13.577  32.616  1.00  0.00     0.013 A 
HETATM   12  C11 UNL     1      24.885  13.742  32.257  1.00  0.00     0.002 A 
HETATM   13  C12 UNL     1      25.652  12.632  32.072  1.00  0.00     0.012 A 
HETATM   14  C13 UNL     1      25.087  11.388  32.244  1.00  0.00    -0.024 A 
HETATM   15  C14 UNL     1      25.935  10.306  32.039  1.00  0.00     0.012 A 
HETATM   16  C15 UNL     1      25.422   9.052  32.197  1.00  0.00     0.002 A 
HETATM   17  C16 UNL     1      24.117   8.862  32.547  1.00  0.00     0.014 A 
HETATM   18  C17 UNL     1      23.272   9.920  32.753  1.00  0.00     0.005 A 
HETATM   19  C18 UNL     1      23.753  11.200  32.603  1.00  0.00    -0.002 A 
ENDROOT
BRANCH   1  20
HETATM   20  N3  UNL     1      20.472   7.702  33.535  1.00  0.00    -0.273 N 
HETATM   21  C1  UNL     1      19.139   8.074  33.802  1.00  0.00     0.200 C 
HETATM   22  N1  UNL     1      18.307   8.134  32.843  1.00  0.00    -0.372 N 
HETATM   23  N2  UNL     1      18.745   8.375  35.115  1.00  0.00    -0.062 NA
ATOM     24  H12 UNL     1      17.343   8.403  33.036  1.00  0.00     0.158 HD
ATOM     25  H11 UNL     1      18.594   7.915  31.889  1.00  0.00     0.158 HD
ATOM     26  H3  UNL     1      20.670   6.701  33.567  1.00  0.00     0.189 HD
ENDBRANCH   1  20
TORSDOF 1
ENDMDL
MODEL 5
REMARK VINA RESULT: -9.368015564      0.826      1.034
REMARK  1 active torsions:
REMARK  status: ('A' for Active; 'I' for Inactive)
REMARK       I    between atoms: C1_4  and  N3_6 
REMARK    1  A    between atoms: N3_6  and  N4_8 
ROOT
HETATM    1  N4  UNL     1      23.566  13.187  32.127  1.00  0.00    -0.297 N 
ATOM      2  H4  UNL     1      22.873  13.898  32.360  1.00  0.00     0.187 HD
HETATM    3  C2  UNL     1      23.100  12.096  32.417  1.00  0.00     0.070 A 
HETATM    4  C3  UNL     1      23.737  10.803  32.257  1.00  0.00     0.004 A 
HETATM    5  C4  UNL     1      25.009  10.676  31.730  1.00  0.00     0.014 A 
HETATM    6  C5  UNL     1      25.656   9.484  31.559  1.00  0.00     0.001 A 
HETATM    7  C6  UNL     1      25.020   8.340  31.925  1.00  0.00     0.001 A 
HETATM    8  C7  UNL     1      23.728   8.404  32.465  1.00  0.00     0.013 A 
HETATM    9  C8  UNL     1      23.099   9.615  32.628  1.00  0.00    -0.013 A 
HETATM   10  C9  UNL     1      21.737   9.628  33.203  1.00  0.00    -0.013 A 
HETATM   11  C10 UNL     1      21.068   8.492  33.582  1.00  0.00     0.013 A 
HETATM   12  C11 UNL     1      19.781   8.536  34.122  1.00  0.00     0.002 A 
HETATM   13  C12 UNL     1      19.179   9.747  34.272  1.00  0.00     0.012 A 
HETATM   14  C13 UNL     1      19.853  10.886  33.891  1.00  0.00    -0.024 A 
HETATM   15  C14 UNL     1      19.172  12.083  34.078  1.00  0.00     0.012 A 
HETATM   16  C15 UNL     1      19.798  13.239  33.715  1.00  0.00     0.002 A 
HETATM   17  C16 UNL     1      21.055  13.224  33.185  1.00  0.00     0.014 A 
HETATM   18  C17 UNL     1      21.737  12.052  32.996  1.00  0.00     0.005 A 
HETATM   19  C18 UNL     1      21.138  10.865  33.350  1.00  0.00    -0.002 A 
ENDROOT
BRANCH   1  20
HETATM   20  N3  UNL     1      24.637  13.805  31.622  1.00  0.00    -0.273 N 
HETATM   21  C1  UNL     1      25.773  14.282  32.306  1.00  0.00     0.200 C 
HETATM   22  N1  UNL     1      26.781  13.520  32.444  1.00  0.00    -0.372 N 
HETATM   23  N2  UNL     1      25.781  15.586  32.827  1.00  0.00    -0.062 NA
ATOM     24  H12 UNL     1      27.602  13.865  32.939  1.00  0.00     0.158 HD
ATOM     25  H11 UNL     1      26.775  12.572  32.066  1.00  0.00     0.158 HD
ATOM     26  H3  UNL     1      24.632  13.950  30.612  1.00  0.00     0.189 HD
ENDBRANCH   1  20
TORSDOF 1
ENDMDL
