MODEL 1
REMARK VINA RESULT: -4.926000503      0.000      0.000
REMARK  2 active torsions:
REMARK  status: ('A' for Active; 'I' for Inactive)
REMARK    1  A    between atoms: N2_4  and  C1_6 
REMARK    2  A    between atoms: C1_6  and  C2_10 
ROOT
HETATM    1  C1  UNL     1      26.893   6.005   3.714  1.00  0.00     0.093 C 
HETATM    2  N3  UNL     1      26.866   4.909   3.031  1.00  0.00    -0.388 N 
ATOM      3  H31 UNL     1      26.169   4.195   3.239  1.00  0.00     0.157 HD
ATOM      4  H32 UNL     1      27.520   4.707   2.274  1.00  0.00     0.157 HD
ENDROOT
BRANCH   1   5
HETATM    5  N2  UNL     1      27.872   7.007   3.420  1.00  0.00    -0.296 N 
HETATM    6  N1  UNL     1      28.156   7.138   2.182  1.00  0.00    -0.344 N 
ATOM      7  H12 UNL     1      27.709   6.564   1.467  1.00  0.00     0.176 HD
ATOM      8  H11 UNL     1      28.854   7.852   1.973  1.00  0.00     0.176 HD
ATOM      9  H2  UNL     1      28.311   7.573   4.146  1.00  0.00     0.187 HD
ENDBRANCH   1   5
BRANCH   1  10
HETATM   10  C2  UNL     1      25.947   6.298   4.810  1.00  0.00     0.054 A 
HETATM   11  C3  UNL     1      26.418   6.850   6.102  1.00  0.00     0.013 A 
HETATM   12  C4  UNL     1      26.132   5.388   6.031  1.00  0.00     0.013 A 
ENDBRANCH   1  10
TORSDOF 2
ENDMDL
MODEL 2
REMARK VINA RESULT: -4.846685396      1.363      1.900
REMARK  2 active torsions:
REMARK  status: ('A' for Active; 'I' for Inactive)
REMARK    1  A    between atoms: N2_4  and  C1_6 
REMARK    2  A    between atoms: C1_6  and  C2_10 
ROOT
HETATM    1  C1  UNL     1      27.236   6.874   4.076  1.00  0.00     0.093 C 
HETATM    2  N3  UNL     1      27.762   7.001   2.903  1.00  0.00    -0.388 N 
ATOM      3  H31 UNL     1      27.298   6.598   2.090  1.00  0.00     0.157 HD
ATOM      4  H32 UNL     1      28.640   7.492   2.735  1.00  0.00     0.157 HD
ENDROOT
BRANCH   1   5
HETATM    5  N2  UNL     1      27.889   7.440   5.218  1.00  0.00    -0.296 N 
HETATM    6  N1  UNL     1      28.876   8.206   4.951  1.00  0.00    -0.344 N 
ATOM      7  H12 UNL     1      29.165   8.390   3.990  1.00  0.00     0.176 HD
ATOM      8  H11 UNL     1      29.341   8.609   5.764  1.00  0.00     0.176 HD
ATOM      9  H2  UNL     1      27.589   7.246   6.173  1.00  0.00     0.187 HD
ENDBRANCH   1   5
BRANCH   1  10
HETATM   10  C2  UNL     1      25.966   6.162   4.320  1.00  0.00     0.054 A 
HETATM   11  C3  UNL     1      25.731   5.424   5.584  1.00  0.00     0.013 A 
HETATM   12  C4  UNL     1      26.126   4.637   4.379  1.00  0.00     0.013 A 
ENDBRANCH   1  10
TORSDOF 2
ENDMDL
MODEL 3
REMARK VINA RESULT: -4.823286247      1.103      1.677
REMARK  2 active torsions:
REMARK  status: ('A' for Active; 'I' for Inactive)
REMARK    1  A    between atoms: N2_4  and  C1_6 
REMARK    2  A    between atoms: C1_6  and  C2_10 
ROOT
HETATM    1  C1  UNL     1      27.710   7.110   4.127  1.00  0.00     0.093 C 
HETATM    2  N3  UNL     1      28.501   7.847   4.833  1.00  0.00    -0.388 N 
ATOM      3  H31 UNL     1      28.196   8.201   5.739  1.00  0.00     0.157 HD
ATOM      4  H32 UNL     1      29.441   8.106   4.531  1.00  0.00     0.157 HD
ENDROOT
BRANCH   1   5
HETATM    5  N2  UNL     1      28.140   6.613   2.855  1.00  0.00    -0.296 N 
HETATM    6  N1  UNL     1      28.010   7.432   1.884  1.00  0.00    -0.344 N 
ATOM      7  H12 UNL     1      27.626   8.368   2.021  1.00  0.00     0.176 HD
ATOM      8  H11 UNL     1      28.315   7.079   0.978  1.00  0.00     0.176 HD
ATOM      9  H2  UNL     1      28.521   5.675   2.734  1.00  0.00     0.187 HD
ENDBRANCH   1   5
BRANCH   1  10
HETATM   10  C2  UNL     1      26.350   6.735   4.564  1.00  0.00     0.054 A 
HETATM   11  C3  UNL     1      26.094   6.247   5.940  1.00  0.00     0.013 A 
HETATM   12  C4  UNL     1      26.195   5.235   4.848  1.00  0.00     0.013 A 
ENDBRANCH   1  10
TORSDOF 2
ENDMDL
MODEL 4
REMARK VINA RESULT: -4.626933741      0.584      1.580
REMARK  2 active torsions:
REMARK  status: ('A' for Active; 'I' for Inactive)
REMARK    1  A    between atoms: N2_4  and  C1_6 
REMARK    2  A    between atoms: C1_6  and  C2_10 
ROOT
HETATM    1  C1  UNL     1      26.967   6.327   3.766  1.00  0.00     0.093 C 
HETATM    2  N3  UNL     1      27.959   7.138   3.596  1.00  0.00    -0.388 N 
ATOM      3  H31 UNL     1      28.088   7.926   4.229  1.00  0.00     0.157 HD
ATOM      4  H32 UNL     1      28.640   7.035   2.844  1.00  0.00     0.157 HD
ENDROOT
BRANCH   1   5
HETATM    5  N2  UNL     1      26.787   5.221   2.876  1.00  0.00    -0.296 N 
HETATM    6  N1  UNL     1      27.867   4.689   2.450  1.00  0.00    -0.344 N 
ATOM      7  H12 UNL     1      28.783   5.040   2.731  1.00  0.00     0.176 HD
ATOM      8  H11 UNL     1      27.739   3.901   1.816  1.00  0.00     0.176 HD
ATOM      9  H2  UNL     1      25.865   4.882   2.603  1.00  0.00     0.187 HD
ENDBRANCH   1   5
BRANCH   1  10
HETATM   10  C2  UNL     1      25.980   6.475   4.855  1.00  0.00     0.054 A 
HETATM   11  C3  UNL     1      26.403   6.841   6.228  1.00  0.00     0.013 A 
HETATM   12  C4  UNL     1      26.115   5.404   5.946  1.00  0.00     0.013 A 
ENDBRANCH   1  10
TORSDOF 2
ENDMDL
MODEL 5
REMARK VINA RESULT: -4.556029821      0.881      1.337
REMARK  2 active torsions:
REMARK  status: ('A' for Active; 'I' for Inactive)
REMARK    1  A    between atoms: N2_4  and  C1_6 
REMARK    2  A    between atoms: C1_6  and  C2_10 
ROOT
HETATM    1  C1  UNL     1      27.235   6.340   3.639  1.00  0.00     0.093 C 
HETATM    2  N3  UNL     1      27.285   5.332   2.833  1.00  0.00    -0.388 N 
ATOM      3  H31 UNL     1      26.582   4.595   2.893  1.00  0.00     0.157 HD
ATOM      4  H32 UNL     1      28.005   5.223   2.119  1.00  0.00     0.157 HD
ENDROOT
BRANCH   1   5
HETATM    5  N2  UNL     1      28.222   7.373   3.554  1.00  0.00    -0.296 N 
HETATM    6  N1  UNL     1      28.604   7.848   4.676  1.00  0.00    -0.344 N 
ATOM      7  H12 UNL     1      28.225   7.505   5.559  1.00  0.00     0.176 HD
ATOM      8  H11 UNL     1      29.307   8.585   4.616  1.00  0.00     0.176 HD
ATOM      9  H2  UNL     1      28.591   7.706   2.664  1.00  0.00     0.187 HD
ENDBRANCH   1   5
BRANCH   1  10
HETATM   10  C2  UNL     1      26.192   6.497   4.673  1.00  0.00     0.054 A 
HETATM   11  C3  UNL     1      26.108   5.567   5.824  1.00  0.00     0.013 A 
HETATM   12  C4  UNL     1      25.170   5.353   4.683  1.00  0.00     0.013 A 
ENDBRANCH   1  10
TORSDOF 2
ENDMDL
