MODEL 1
REMARK VINA RESULT: -3.428509224      0.000      0.000
REMARK  0 active torsions:
REMARK  status: ('A' for Active; 'I' for Inactive)
ROOT
HETATM    1  C1  UNL     1      26.450   6.828   6.120  1.00  0.00     0.028 C 
HETATM    2  C2  UNL     1      27.258   7.165   4.965  1.00  0.00     0.123 C 
HETATM    3  N1  UNL     1      26.977   6.394   3.822  1.00  0.00    -0.179 NA
HETATM    4  S1  UNL     1      25.703   5.236   4.278  1.00  0.00    -0.066 SA
HETATM    5  C3  UNL     1      25.970   5.425   6.084  1.00  0.00     0.094 C 
ENDROOT
TORSDOF 0
ENDMDL
MODEL 2
REMARK VINA RESULT: -3.426602198      1.292      2.004
REMARK  0 active torsions:
REMARK  status: ('A' for Active; 'I' for Inactive)
ROOT
HETATM    1  C1  UNL     1      26.573   6.536   5.734  1.00  0.00     0.028 C 
HETATM    2  C2  UNL     1      25.673   5.402   5.790  1.00  0.00     0.123 C 
HETATM    3  N1  UNL     1      25.638   4.636   4.610  1.00  0.00    -0.179 NA
HETATM    4  S1  UNL     1      26.743   5.417   3.452  1.00  0.00    -0.066 SA
HETATM    5  C3  UNL     1      26.789   7.019   4.348  1.00  0.00     0.094 C 
ENDROOT
TORSDOF 0
ENDMDL
MODEL 3
REMARK VINA RESULT: -3.377622176      1.304      1.913
REMARK  0 active torsions:
REMARK  status: ('A' for Active; 'I' for Inactive)
ROOT
HETATM    1  C1  UNL     1      26.069   5.509   6.064  1.00  0.00     0.028 C 
HETATM    2  C2  UNL     1      25.674   4.957   4.784  1.00  0.00     0.123 C 
HETATM    3  N1  UNL     1      26.250   5.605   3.676  1.00  0.00    -0.179 NA
HETATM    4  S1  UNL     1      27.258   6.927   4.315  1.00  0.00    -0.066 SA
HETATM    5  C3  UNL     1      26.461   6.936   5.968  1.00  0.00     0.094 C 
ENDROOT
TORSDOF 0
ENDMDL
MODEL 4
REMARK VINA RESULT: -3.358276860      1.857      2.285
REMARK  0 active torsions:
REMARK  status: ('A' for Active; 'I' for Inactive)
ROOT
HETATM    1  C1  UNL     1      25.484   5.102   4.765  1.00  0.00     0.028 C 
HETATM    2  C2  UNL     1      25.911   5.702   6.014  1.00  0.00     0.123 C 
HETATM    3  N1  UNL     1      26.820   6.765   5.860  1.00  0.00    -0.179 NA
HETATM    4  S1  UNL     1      27.122   6.940   4.114  1.00  0.00    -0.066 SA
HETATM    5  C3  UNL     1      26.485   5.273   3.684  1.00  0.00     0.094 C 
ENDROOT
TORSDOF 0
ENDMDL
MODEL 5
REMARK VINA RESULT: -3.251714577      2.001      2.217
REMARK  0 active torsions:
REMARK  status: ('A' for Active; 'I' for Inactive)
ROOT
HETATM    1  C1  UNL     1      26.350   4.513   3.899  1.00  0.00     0.028 C 
HETATM    2  C2  UNL     1      27.148   5.238   2.930  1.00  0.00     0.123 C 
HETATM    3  N1  UNL     1      27.455   6.558   3.308  1.00  0.00    -0.179 NA
HETATM    4  S1  UNL     1      26.680   6.838   4.888  1.00  0.00    -0.066 SA
HETATM    5  C3  UNL     1      25.528   5.415   4.742  1.00  0.00     0.094 C 
ENDROOT
TORSDOF 0
ENDMDL
