MODEL 1
REMARK VINA RESULT: -4.658119452      0.000      0.000
REMARK  1 active torsions:
REMARK  status: ('A' for Active; 'I' for Inactive)
REMARK    1  A    between atoms: O1_1  and  C1_3 
ROOT
HETATM    1  C1  UNL     1      25.808   5.199   4.376  1.00  0.00     0.118 C 
HETATM    2  C2  UNL     1      26.853   6.213   4.023  1.00  0.00     0.032 C 
HETATM    3  C3  UNL     1      26.581   7.320   5.047  1.00  0.00     0.002 C 
HETATM    4  C4  UNL     1      26.534   6.484   6.303  1.00  0.00     0.002 C 
HETATM    5  C5  UNL     1      25.766   5.241   5.879  1.00  0.00     0.032 C 
ENDROOT
BRANCH   1   6
HETATM    6  O1  UNL     1      26.265   3.949   3.922  1.00  0.00    -0.396 OA
ATOM      7  H1  UNL     1      25.600   3.306   4.143  1.00  0.00     0.210 HD
ENDBRANCH   1   6
TORSDOF 1
ENDMDL
MODEL 2
REMARK VINA RESULT: -4.610535140      1.293      1.872
REMARK  1 active torsions:
REMARK  status: ('A' for Active; 'I' for Inactive)
REMARK    1  A    between atoms: O1_1  and  C1_3 
ROOT
HETATM    1  C1  UNL     1      26.659   6.670   4.109  1.00  0.00     0.118 C 
HETATM    2  C2  UNL     1      27.305   7.071   5.401  1.00  0.00     0.032 C 
HETATM    3  C3  UNL     1      26.231   6.689   6.424  1.00  0.00     0.002 C 
HETATM    4  C4  UNL     1      25.948   5.279   5.966  1.00  0.00     0.002 C 
HETATM    5  C5  UNL     1      25.953   5.386   4.448  1.00  0.00     0.032 C 
ENDROOT
BRANCH   1   6
HETATM    6  O1  UNL     1      27.688   6.444   3.176  1.00  0.00    -0.396 OA
ATOM      7  H1  UNL     1      27.876   5.512   3.180  1.00  0.00     0.210 HD
ENDBRANCH   1   6
TORSDOF 1
ENDMDL
MODEL 3
REMARK VINA RESULT: -4.550489437      1.795      2.807
REMARK  1 active torsions:
REMARK  status: ('A' for Active; 'I' for Inactive)
REMARK    1  A    between atoms: O1_1  and  C1_3 
ROOT
HETATM    1  C1  UNL     1      26.844   7.039   4.983  1.00  0.00     0.118 C 
HETATM    2  C2  UNL     1      26.422   6.126   6.094  1.00  0.00     0.032 C 
HETATM    3  C3  UNL     1      25.407   5.219   5.391  1.00  0.00     0.002 C 
HETATM    4  C4  UNL     1      26.221   4.837   4.178  1.00  0.00     0.002 C 
HETATM    5  C5  UNL     1      26.911   6.134   3.785  1.00  0.00     0.032 C 
ENDROOT
BRANCH   1   6
HETATM    6  O1  UNL     1      28.120   7.535   5.308  1.00  0.00    -0.396 OA
ATOM      7  H1  UNL     1      28.713   6.793   5.345  1.00  0.00     0.210 HD
ENDBRANCH   1   6
TORSDOF 1
ENDMDL
MODEL 4
REMARK VINA RESULT: -4.514532628      1.836      2.726
REMARK  1 active torsions:
REMARK  status: ('A' for Active; 'I' for Inactive)
REMARK    1  A    between atoms: O1_1  and  C1_3 
ROOT
HETATM    1  C1  UNL     1      27.103   6.855   3.734  1.00  0.00     0.118 C 
HETATM    2  C2  UNL     1      26.617   6.632   5.135  1.00  0.00     0.032 C 
HETATM    3  C3  UNL     1      25.522   5.581   4.927  1.00  0.00     0.002 C 
HETATM    4  C4  UNL     1      26.288   4.595   4.077  1.00  0.00     0.002 C 
HETATM    5  C5  UNL     1      27.080   5.480   3.127  1.00  0.00     0.032 C 
ENDROOT
BRANCH   1   6
HETATM    6  O1  UNL     1      28.419   7.344   3.818  1.00  0.00    -0.396 OA
ATOM      7  H1  UNL     1      28.956   6.815   3.240  1.00  0.00     0.210 HD
ENDBRANCH   1   6
TORSDOF 1
ENDMDL
MODEL 5
REMARK VINA RESULT: -4.411811119      1.033      1.852
REMARK  1 active torsions:
REMARK  status: ('A' for Active; 'I' for Inactive)
REMARK    1  A    between atoms: O1_1  and  C1_3 
ROOT
HETATM    1  C1  UNL     1      26.166   5.125   4.943  1.00  0.00     0.118 C 
HETATM    2  C2  UNL     1      26.068   6.321   5.841  1.00  0.00     0.032 C 
HETATM    3  C3  UNL     1      27.368   7.065   5.520  1.00  0.00     0.002 C 
HETATM    4  C4  UNL     1      27.282   7.068   4.012  1.00  0.00     0.002 C 
HETATM    5  C5  UNL     1      26.766   5.676   3.680  1.00  0.00     0.032 C 
ENDROOT
BRANCH   1   6
HETATM    6  O1  UNL     1      24.858   4.661   4.716  1.00  0.00    -0.396 OA
ATOM      7  H1  UNL     1      24.702   4.699   3.779  1.00  0.00     0.210 HD
ENDBRANCH   1   6
TORSDOF 1
ENDMDL
