MODEL 1
REMARK VINA RESULT: -5.388349585      0.000      0.000
REMARK  0 active torsions:
REMARK  status: ('A' for Active; 'I' for Inactive)
ROOT
HETATM    1  C1  UNL     1      26.174   4.837   4.138  1.00  0.00    -0.030 A 
HETATM    2  C2  UNL     1      25.872   4.909   4.973  1.00  0.00    -0.030 A 
HETATM    3  C3  UNL     1      25.795   5.662   6.096  1.00  0.00     0.026 A 
HETATM    4  C4  UNL     1      26.715   6.876   5.407  1.00  0.00     0.004 A 
HETATM    5  C5  UNL     1      27.154   6.790   4.024  1.00  0.00     0.004 A 
HETATM    6  C6  UNL     1      26.870   5.406   3.114  1.00  0.00     0.026 A 
ENDROOT
TORSDOF 0
ENDMDL
MODEL 2
REMARK VINA RESULT: -5.383228753      0.035      2.083
REMARK  0 active torsions:
REMARK  status: ('A' for Active; 'I' for Inactive)
ROOT
HETATM    1  C1  UNL     1      25.883   4.882   4.998  1.00  0.00    -0.030 A 
HETATM    2  C2  UNL     1      26.175   4.807   4.159  1.00  0.00    -0.030 A 
HETATM    3  C3  UNL     1      26.844   5.377   3.130  1.00  0.00     0.026 A 
HETATM    4  C4  UNL     1      27.120   6.770   4.013  1.00  0.00     0.004 A 
HETATM    5  C5  UNL     1      26.703   6.870   5.401  1.00  0.00     0.004 A 
HETATM    6  C6  UNL     1      25.807   5.646   6.124  1.00  0.00     0.026 A 
ENDROOT
TORSDOF 0
ENDMDL
MODEL 3
REMARK VINA RESULT: -5.306861294      0.435      1.884
REMARK  0 active torsions:
REMARK  status: ('A' for Active; 'I' for Inactive)
ROOT
HETATM    1  C1  UNL     1      26.933   6.973   5.256  1.00  0.00    -0.030 A 
HETATM    2  C2  UNL     1      26.492   6.540   5.898  1.00  0.00    -0.030 A 
HETATM    3  C3  UNL     1      25.753   5.460   6.244  1.00  0.00     0.026 A 
HETATM    4  C4  UNL     1      25.809   4.858   4.685  1.00  0.00     0.004 A 
HETATM    5  C5  UNL     1      26.580   5.527   3.652  1.00  0.00     0.004 A 
HETATM    6  C6  UNL     1      27.328   7.002   3.953  1.00  0.00     0.026 A 
ENDROOT
TORSDOF 0
ENDMDL
MODEL 4
REMARK VINA RESULT: -5.297857767      0.413      2.636
REMARK  0 active torsions:
REMARK  status: ('A' for Active; 'I' for Inactive)
ROOT
HETATM    1  C1  UNL     1      26.457   6.531   5.797  1.00  0.00    -0.030 A 
HETATM    2  C2  UNL     1      26.909   6.968   5.165  1.00  0.00    -0.030 A 
HETATM    3  C3  UNL     1      27.351   6.985   3.886  1.00  0.00     0.026 A 
HETATM    4  C4  UNL     1      26.672   5.488   3.576  1.00  0.00     0.004 A 
HETATM    5  C5  UNL     1      25.880   4.804   4.584  1.00  0.00     0.004 A 
HETATM    6  C6  UNL     1      25.735   5.427   6.138  1.00  0.00     0.026 A 
ENDROOT
TORSDOF 0
ENDMDL
MODEL 5
REMARK VINA RESULT: -5.261255101      0.523      2.734
REMARK  0 active torsions:
REMARK  status: ('A' for Active; 'I' for Inactive)
ROOT
HETATM    1  C1  UNL     1      26.864   6.987   5.016  1.00  0.00    -0.030 A 
HETATM    2  C2  UNL     1      26.979   6.661   4.195  1.00  0.00    -0.030 A 
HETATM    3  C3  UNL     1      26.784   5.628   3.342  1.00  0.00     0.026 A 
HETATM    4  C4  UNL     1      26.025   4.725   4.527  1.00  0.00     0.004 A 
HETATM    5  C5  UNL     1      25.778   5.279   5.846  1.00  0.00     0.004 A 
HETATM    6  C6  UNL     1      26.369   6.794   6.270  1.00  0.00     0.026 A 
ENDROOT
TORSDOF 0
ENDMDL
