MODEL 1
REMARK VINA RESULT: -11.254544955      0.000      0.000
REMARK  1 active torsions:
REMARK  status: ('A' for Active; 'I' for Inactive)
REMARK    1  A    between atoms: C5_8  and  C6_9 
ROOT
HETATM    1  N1  UNL     1      10.094 -27.675  38.639  1.00  0.00    -0.398 N 
ATOM      2  H11 UNL     1      11.111 -27.596  38.597  1.00  0.00     0.156 HD
ATOM      3  H12 UNL     1       9.638 -28.377  39.221  1.00  0.00     0.156 HD
HETATM    4  C1  UNL     1       9.412 -26.855  37.932  1.00  0.00     0.048 A 
HETATM    5  C2  UNL     1       7.941 -26.970  37.993  1.00  0.00     0.005 A 
HETATM    6  C3  UNL     1       7.320 -27.928  38.787  1.00  0.00     0.015 A 
HETATM    7  C4  UNL     1       5.925 -28.003  38.817  1.00  0.00     0.012 A 
HETATM    8  C5  UNL     1       5.165 -27.137  38.065  1.00  0.00    -0.034 A 
HETATM    9  C11 UNL     1       5.824 -26.176  37.270  1.00  0.00     0.028 A 
HETATM   10  C12 UNL     1       7.195 -26.111  37.249  1.00  0.00     0.028 A 
HETATM   11  C13 UNL     1       7.852 -25.086  36.399  1.00  0.00     0.195 A 
HETATM   12  O4  UNL     1       7.084 -24.349  35.759  1.00  0.00    -0.287 OA
HETATM   13  C14 UNL     1       9.291 -24.956  36.324  1.00  0.00     0.038 A 
HETATM   14  C15 UNL     1      10.065 -25.850  37.098  1.00  0.00     0.006 A 
HETATM   15  C16 UNL     1      11.427 -25.739  37.037  1.00  0.00     0.015 A 
HETATM   16  C17 UNL     1      12.021 -24.787  36.247  1.00  0.00     0.013 A 
HETATM   17  C18 UNL     1      11.263 -23.923  35.498  1.00  0.00    -0.025 A 
HETATM   18  C19 UNL     1      11.882 -22.962  34.700  1.00  0.00     0.012 A 
HETATM   19  C20 UNL     1      11.143 -22.084  33.941  1.00  0.00     0.001 A 
HETATM   20  C21 UNL     1       9.761 -22.176  33.986  1.00  0.00     0.001 A 
HETATM   21  C22 UNL     1       9.127 -23.118  34.768  1.00  0.00     0.013 A 
HETATM   22  C23 UNL     1       9.874 -23.988  35.520  1.00  0.00    -0.011 A 
ENDROOT
BRANCH   8  23
HETATM   23  C6  UNL     1       3.726 -27.220  38.085  1.00  0.00     0.034 C 
HETATM   24  C7  UNL     1       2.914 -27.821  37.286  1.00  0.00     0.101 A 
HETATM   25  C8  UNL     1       3.307 -28.575  36.126  1.00  0.00     0.265 A 
HETATM   26  C10 UNL     1       1.460 -27.767  37.609  1.00  0.00     0.265 A 
HETATM   27  O1  UNL     1       4.525 -28.653  35.796  1.00  0.00    -0.267 OA
HETATM   28  N2  UNL     1       2.362 -29.270  35.280  1.00  0.00    -0.275 N 
HETATM   29  C9  UNL     1       0.999 -29.190  35.626  1.00  0.00     0.329 A 
ATOM     30  H2  UNL     1       2.671 -29.797  34.463  1.00  0.00     0.173 HD
HETATM   31  O2  UNL     1       0.148 -29.767  34.936  1.00  0.00    -0.246 OA
HETATM   32  N3  UNL     1       0.566 -28.446  36.777  1.00  0.00    -0.275 N 
ATOM     33  H3  UNL     1      -0.430 -28.412  36.994  1.00  0.00     0.173 HD
HETATM   34  O3  UNL     1       1.065 -27.117  38.616  1.00  0.00    -0.267 OA
ENDBRANCH   8  23
TORSDOF 1
ENDMDL
MODEL 2
REMARK VINA RESULT: -10.400799663      3.111      8.904
REMARK  1 active torsions:
REMARK  status: ('A' for Active; 'I' for Inactive)
REMARK    1  A    between atoms: C5_8  and  C6_9 
ROOT
HETATM    1  N1  UNL     1       2.562 -28.093  35.439  1.00  0.00    -0.398 N 
ATOM      2  H11 UNL     1       1.816 -28.757  35.227  1.00  0.00     0.156 HD
ATOM      3  H12 UNL     1       2.600 -27.175  34.996  1.00  0.00     0.156 HD
HETATM    4  C1  UNL     1       3.450 -28.457  36.285  1.00  0.00     0.048 A 
HETATM    5  C2  UNL     1       4.528 -27.497  36.592  1.00  0.00     0.005 A 
HETATM    6  C3  UNL     1       4.579 -26.245  35.988  1.00  0.00     0.015 A 
HETATM    7  C4  UNL     1       5.616 -25.365  36.305  1.00  0.00     0.012 A 
HETATM    8  C5  UNL     1       6.586 -25.730  37.210  1.00  0.00    -0.034 A 
HETATM    9  C11 UNL     1       6.508 -27.006  37.807  1.00  0.00     0.028 A 
HETATM   10  C12 UNL     1       5.483 -27.862  37.487  1.00  0.00     0.028 A 
HETATM   11  C13 UNL     1       5.434 -29.197  38.136  1.00  0.00     0.195 A 
HETATM   12  O4  UNL     1       6.352 -29.435  38.939  1.00  0.00    -0.287 OA
HETATM   13  C14 UNL     1       4.388 -30.153  37.850  1.00  0.00     0.038 A 
HETATM   14  C15 UNL     1       3.395 -29.772  36.920  1.00  0.00     0.006 A 
HETATM   15  C16 UNL     1       2.400 -30.667  36.639  1.00  0.00     0.015 A 
HETATM   16  C17 UNL     1       2.367 -31.897  37.246  1.00  0.00     0.013 A 
HETATM   17  C18 UNL     1       3.334 -32.261  38.149  1.00  0.00    -0.025 A 
HETATM   18  C19 UNL     1       3.287 -33.514  38.756  1.00  0.00     0.012 A 
HETATM   19  C20 UNL     1       4.245 -33.901  39.666  1.00  0.00     0.001 A 
HETATM   20  C21 UNL     1       5.265 -33.012  39.966  1.00  0.00     0.001 A 
HETATM   21  C22 UNL     1       5.332 -31.767  39.378  1.00  0.00     0.013 A 
HETATM   22  C23 UNL     1       4.372 -31.393  38.473  1.00  0.00    -0.011 A 
ENDROOT
BRANCH   8  23
HETATM   23  C6  UNL     1       7.664 -24.828  37.531  1.00  0.00     0.034 C 
HETATM   24  C7  UNL     1       8.901 -24.845  37.171  1.00  0.00     0.101 A 
HETATM   25  C8  UNL     1       9.499 -25.842  36.325  1.00  0.00     0.265 A 
HETATM   26  C10 UNL     1       9.770 -23.725  37.631  1.00  0.00     0.265 A 
HETATM   27  O1  UNL     1       8.816 -26.820  35.908  1.00  0.00    -0.267 OA
HETATM   28  N2  UNL     1      10.884 -25.797  35.911  1.00  0.00    -0.275 N 
HETATM   29  C9  UNL     1      11.664 -24.719  36.371  1.00  0.00     0.329 A 
ATOM     30  H2  UNL     1      11.280 -26.519  35.310  1.00  0.00     0.173 HD
HETATM   31  O2  UNL     1      12.856 -24.632  36.046  1.00  0.00    -0.246 OA
HETATM   32  N3  UNL     1      11.104 -23.703  37.219  1.00  0.00    -0.275 N 
ATOM     33  H3  UNL     1      11.703 -22.938  37.531  1.00  0.00     0.173 HD
HETATM   34  O3  UNL     1       9.291 -22.826  38.376  1.00  0.00    -0.267 OA
ENDBRANCH   8  23
TORSDOF 1
ENDMDL
MODEL 3
REMARK VINA RESULT: -10.232759511      3.296      9.213
REMARK  1 active torsions:
REMARK  status: ('A' for Active; 'I' for Inactive)
REMARK    1  A    between atoms: C5_8  and  C6_9 
ROOT
HETATM    1  N1  UNL     1       4.868 -25.599  35.132  1.00  0.00    -0.398 N 
ATOM      2  H11 UNL     1       3.888 -25.818  34.950  1.00  0.00     0.156 HD
ATOM      3  H12 UNL     1       5.320 -24.787  34.714  1.00  0.00     0.156 HD
HETATM    4  C1  UNL     1       5.510 -26.387  35.910  1.00  0.00     0.048 A 
HETATM    5  C2  UNL     1       6.928 -26.071  36.174  1.00  0.00     0.005 A 
HETATM    6  C3  UNL     1       7.543 -24.962  35.603  1.00  0.00     0.015 A 
HETATM    7  C4  UNL     1       8.887 -24.698  35.879  1.00  0.00     0.012 A 
HETATM    8  C5  UNL     1       9.604 -25.529  36.709  1.00  0.00    -0.034 A 
HETATM    9  C11 UNL     1       8.952 -26.645  37.274  1.00  0.00     0.028 A 
HETATM   10  C12 UNL     1       7.631 -26.894  36.996  1.00  0.00     0.028 A 
HETATM   11  C13 UNL     1       6.980 -28.080  37.609  1.00  0.00     0.195 A 
HETATM   12  O4  UNL     1       7.707 -28.768  38.345  1.00  0.00    -0.287 OA
HETATM   13  C14 UNL     1       5.593 -28.408  37.363  1.00  0.00     0.038 A 
HETATM   14  C15 UNL     1       4.863 -27.552  36.509  1.00  0.00     0.006 A 
HETATM   15  C16 UNL     1       3.551 -27.850  36.267  1.00  0.00     0.015 A 
HETATM   16  C17 UNL     1       2.962 -28.949  36.841  1.00  0.00     0.013 A 
HETATM   17  C18 UNL     1       3.676 -29.777  37.669  1.00  0.00    -0.025 A 
HETATM   18  C19 UNL     1       3.064 -30.890  38.243  1.00  0.00     0.012 A 
HETATM   19  C20 UNL     1       3.759 -31.734  39.078  1.00  0.00     0.001 A 
HETATM   20  C21 UNL     1       5.092 -31.453  39.338  1.00  0.00     0.001 A 
HETATM   21  C22 UNL     1       5.718 -30.358  38.782  1.00  0.00     0.013 A 
HETATM   22  C23 UNL     1       5.015 -29.524  37.951  1.00  0.00    -0.011 A 
ENDROOT
BRANCH   8  23
HETATM   23  C6  UNL     1      10.993 -25.264  36.986  1.00  0.00     0.034 C 
HETATM   24  C7  UNL     1      11.552 -24.261  37.571  1.00  0.00     0.101 A 
HETATM   25  C8  UNL     1      10.851 -23.120  38.095  1.00  0.00     0.265 A 
HETATM   26  C10 UNL     1      13.030 -24.305  37.757  1.00  0.00     0.265 A 
HETATM   27  O1  UNL     1       9.599 -23.022  37.963  1.00  0.00    -0.267 OA
HETATM   28  N2  UNL     1      11.516 -22.035  38.784  1.00  0.00    -0.275 N 
HETATM   29  C9  UNL     1      12.914 -22.122  38.935  1.00  0.00     0.329 A 
ATOM     30  H2  UNL     1      10.993 -21.238  39.145  1.00  0.00     0.173 HD
HETATM   31  O2  UNL     1      13.532 -21.221  39.518  1.00  0.00    -0.246 OA
HETATM   32  N3  UNL     1      13.650 -23.246  38.425  1.00  0.00    -0.275 N 
ATOM     33  H3  UNL     1      14.661 -23.271  38.555  1.00  0.00     0.173 HD
HETATM   34  O3  UNL     1      13.688 -25.285  37.314  1.00  0.00    -0.267 OA
ENDBRANCH   8  23
TORSDOF 1
ENDMDL
MODEL 4
REMARK VINA RESULT: -10.212824442      2.603      3.552
REMARK  1 active torsions:
REMARK  status: ('A' for Active; 'I' for Inactive)
REMARK    1  A    between atoms: C5_8  and  C6_9 
ROOT
HETATM    1  N1  UNL     1       5.733 -24.184  39.344  1.00  0.00    -0.398 N 
ATOM      2  H11 UNL     1       6.318 -23.447  39.737  1.00  0.00     0.156 HD
ATOM      3  H12 UNL     1       4.748 -24.274  39.593  1.00  0.00     0.156 HD
HETATM    4  C1  UNL     1       6.284 -24.995  38.521  1.00  0.00     0.048 A 
HETATM    5  C2  UNL     1       5.437 -26.062  37.951  1.00  0.00     0.005 A 
HETATM    6  C3  UNL     1       4.095 -26.184  38.293  1.00  0.00     0.015 A 
HETATM    7  C4  UNL     1       3.328 -27.207  37.731  1.00  0.00     0.012 A 
HETATM    8  C5  UNL     1       3.894 -28.096  36.846  1.00  0.00    -0.034 A 
HETATM    9  C11 UNL     1       5.258 -27.947  36.519  1.00  0.00     0.028 A 
HETATM   10  C12 UNL     1       6.001 -26.936  37.077  1.00  0.00     0.028 A 
HETATM   11  C13 UNL     1       7.435 -26.812  36.708  1.00  0.00     0.195 A 
HETATM   12  O4  UNL     1       7.855 -27.659  35.902  1.00  0.00    -0.287 OA
HETATM   13  C14 UNL     1       8.282 -25.775  37.254  1.00  0.00     0.038 A 
HETATM   14  C15 UNL     1       7.695 -24.867  38.163  1.00  0.00     0.006 A 
HETATM   15  C16 UNL     1       8.484 -23.881  38.688  1.00  0.00     0.015 A 
HETATM   16  C17 UNL     1       9.807 -23.778  38.339  1.00  0.00     0.013 A 
HETATM   17  C18 UNL     1      10.371 -24.664  37.455  1.00  0.00    -0.025 A 
HETATM   18  C19 UNL     1      11.717 -24.546  37.112  1.00  0.00     0.012 A 
HETATM   19  C20 UNL     1      12.305 -25.421  36.227  1.00  0.00     0.001 A 
HETATM   20  C21 UNL     1      11.525 -26.430  35.682  1.00  0.00     0.001 A 
HETATM   21  C22 UNL     1      10.193 -26.565  36.007  1.00  0.00     0.013 A 
HETATM   22  C23 UNL     1       9.618 -25.687  36.890  1.00  0.00    -0.011 A 
ENDROOT
BRANCH   8  23
HETATM   23  C6  UNL     1       3.108 -29.160  36.274  1.00  0.00     0.034 C 
HETATM   24  C7  UNL     1       3.011 -30.400  36.612  1.00  0.00     0.101 A 
HETATM   25  C8  UNL     1       3.724 -31.015  37.699  1.00  0.00     0.265 A 
HETATM   26  C10 UNL     1       2.056 -31.252  35.848  1.00  0.00     0.265 A 
HETATM   27  O1  UNL     1       4.552 -30.347  38.380  1.00  0.00    -0.267 OA
HETATM   28  N2  UNL     1       3.552 -32.402  38.070  1.00  0.00    -0.275 N 
HETATM   29  C9  UNL     1       2.638 -33.166  37.318  1.00  0.00     0.329 A 
ATOM     30  H2  UNL     1       4.072 -32.811  38.845  1.00  0.00     0.173 HD
HETATM   31  O2  UNL     1       2.451 -34.359  37.594  1.00  0.00    -0.246 OA
HETATM   32  N3  UNL     1       1.906 -32.589  36.224  1.00  0.00    -0.275 N 
ATOM     33  H3  UNL     1       1.254 -33.176  35.704  1.00  0.00     0.173 HD
HETATM   34  O3  UNL     1       1.407 -30.757  34.885  1.00  0.00    -0.267 OA
ENDBRANCH   8  23
TORSDOF 1
ENDMDL
MODEL 5
REMARK VINA RESULT: -10.171289423      3.284      8.956
REMARK  1 active torsions:
REMARK  status: ('A' for Active; 'I' for Inactive)
REMARK    1  A    between atoms: C5_8  and  C6_9 
ROOT
HETATM    1  N1  UNL     1       4.781 -25.759  34.949  1.00  0.00    -0.398 N 
ATOM      2  H11 UNL     1       4.009 -26.294  34.551  1.00  0.00     0.156 HD
ATOM      3  H12 UNL     1       5.036 -24.841  34.588  1.00  0.00     0.156 HD
HETATM    4  C1  UNL     1       5.421 -26.288  35.923  1.00  0.00     0.048 A 
HETATM    5  C2  UNL     1       6.539 -25.515  36.499  1.00  0.00     0.005 A 
HETATM    6  C3  UNL     1       6.885 -24.262  36.006  1.00  0.00     0.015 A 
HETATM    7  C4  UNL     1       7.950 -23.562  36.579  1.00  0.00     0.012 A 
HETATM    8  C5  UNL     1       8.657 -24.107  37.626  1.00  0.00    -0.034 A 
HETATM    9  C11 UNL     1       8.282 -25.379  38.105  1.00  0.00     0.028 A 
HETATM   10  C12 UNL     1       7.234 -26.057  37.534  1.00  0.00     0.028 A 
HETATM   11  C13 UNL     1       6.869 -27.395  38.066  1.00  0.00     0.195 A 
HETATM   12  O4  UNL     1       7.564 -27.802  39.012  1.00  0.00    -0.287 OA
HETATM   13  C14 UNL     1       5.778 -28.169  37.517  1.00  0.00     0.038 A 
HETATM   14  C15 UNL     1       5.057 -27.605  36.441  1.00  0.00     0.006 A 
HETATM   15  C16 UNL     1       4.023 -28.326  35.911  1.00  0.00     0.015 A 
HETATM   16  C17 UNL     1       3.697 -29.561  36.413  1.00  0.00     0.013 A 
HETATM   17  C18 UNL     1       4.402 -30.104  37.457  1.00  0.00    -0.025 A 
HETATM   18  C19 UNL     1       4.058 -31.360  37.954  1.00  0.00     0.012 A 
HETATM   19  C20 UNL     1       4.750 -31.924  39.002  1.00  0.00     0.001 A 
HETATM   20  C21 UNL     1       5.803 -31.213  39.555  1.00  0.00     0.001 A 
HETATM   21  C22 UNL     1       6.160 -29.969  39.081  1.00  0.00     0.013 A 
HETATM   22  C23 UNL     1       5.464 -29.417  38.036  1.00  0.00    -0.011 A 
ENDROOT
BRANCH   8  23
HETATM   23  C6  UNL     1       9.763 -23.391  38.211  1.00  0.00     0.034 C 
HETATM   24  C7  UNL     1      11.026 -23.464  37.967  1.00  0.00     0.101 A 
HETATM   25  C8  UNL     1      11.629 -24.341  36.999  1.00  0.00     0.265 A 
HETATM   26  C10 UNL     1      11.929 -22.541  38.713  1.00  0.00     0.265 A 
HETATM   27  O1  UNL     1      10.918 -25.151  36.340  1.00  0.00    -0.267 OA
HETATM   28  N2  UNL     1      13.049 -24.358  36.728  1.00  0.00    -0.275 N 
HETATM   29  C9  UNL     1      13.861 -23.467  37.457  1.00  0.00     0.329 A 
ATOM     30  H2  UNL     1      13.448 -24.992  36.035  1.00  0.00     0.173 HD
HETATM   31  O2  UNL     1      15.083 -23.440  37.263  1.00  0.00    -0.246 OA
HETATM   32  N3  UNL     1      13.297 -22.576  38.434  1.00  0.00    -0.275 N 
ATOM     33  H3  UNL     1      13.918 -21.946  38.941  1.00  0.00     0.173 HD
HETATM   34  O3  UNL     1      11.447 -21.753  39.572  1.00  0.00    -0.267 OA
ENDBRANCH   8  23
TORSDOF 1
ENDMDL
