MODEL 1
REMARK VINA RESULT: -9.141735550      0.000      0.000
REMARK  5 active torsions:
REMARK  status: ('A' for Active; 'I' for Inactive)
REMARK    1  A    between atoms: N2_5  and  C3_6 
REMARK    2  A    between atoms: C10_13  and  N3_14 
REMARK    3  A    between atoms: N3_14  and  C11_16 
REMARK    4  A    between atoms: C11_16  and  N4_18 
REMARK    5  A    between atoms: N4_18  and  C12_20 
ROOT
HETATM    1  C1  UNL     1      12.333 -21.983  38.776  1.00  0.00     0.071 C 
HETATM    2  C2  UNL     1      11.234 -22.957  38.484  1.00  0.00     0.038 A 
HETATM    3  N1  UNL     1       9.911 -22.818  38.683  1.00  0.00    -0.297 N 
ATOM      4  H1  UNL     1       9.469 -21.987  39.077  1.00  0.00     0.187 HD
HETATM    5  N2  UNL     1       9.263 -23.900  38.298  1.00  0.00    -0.252 N 
HETATM    6  C9  UNL     1      10.137 -24.825  37.821  1.00  0.00     0.117 A 
HETATM    7  C10 UNL     1       9.990 -26.091  37.307  1.00  0.00     0.152 A 
HETATM    8  N6  UNL     1      11.072 -26.773  36.908  1.00  0.00    -0.282 N 
ATOM      9  H6  UNL     1      10.982 -27.714  36.525  1.00  0.00     0.188 HD
HETATM   10  N7  UNL     1      12.264 -26.201  37.022  1.00  0.00    -0.288 N 
ATOM     11  H7  UNL     1      13.081 -26.728  36.715  1.00  0.00     0.188 HD
HETATM   12  C17 UNL     1      12.453 -24.968  37.517  1.00  0.00     0.130 A 
HETATM   13  S2  UNL     1      13.942 -24.295  37.642  1.00  0.00    -0.058 SA
HETATM   14  C18 UNL     1      11.383 -24.218  37.943  1.00  0.00     0.059 A 
ENDROOT
BRANCH   7  15
HETATM   15  N3  UNL     1       8.843 -26.615  37.209  1.00  0.00    -0.316 N 
ATOM     16  H3  UNL     1       8.238 -26.259  36.469  1.00  0.00     0.170 HD
BRANCH  15  17
HETATM   17  C11 UNL     1       8.315 -27.642  38.021  1.00  0.00     0.177 C 
HETATM   18  S1  UNL     1       9.041 -27.925  39.447  1.00  0.00    -0.040 SA
BRANCH  17  19
HETATM   19  N4  UNL     1       7.217 -28.397  37.635  1.00  0.00    -0.333 N 
ATOM     20  H4  UNL     1       7.332 -29.405  37.733  1.00  0.00     0.168 HD
BRANCH  19  21
HETATM   21  C12 UNL     1       6.095 -28.029  37.182  1.00  0.00     0.036 A 
HETATM   22  C13 UNL     1       4.996 -28.185  38.035  1.00  0.00     0.046 A 
HETATM   23  C14 UNL     1       3.729 -27.815  37.634  1.00  0.00     0.090 A 
HETATM   24  N5  UNL     1       3.514 -27.297  36.420  1.00  0.00    -0.375 N 
HETATM   25  C15 UNL     1       4.565 -27.139  35.584  1.00  0.00     0.090 A 
ATOM     26  H5  UNL     1       2.575 -27.026  36.130  1.00  0.00     0.164 HD
HETATM   27  C16 UNL     1       5.844 -27.501  35.957  1.00  0.00     0.046 A 
ENDBRANCH  19  21
ENDBRANCH  17  19
ENDBRANCH  15  17
ENDBRANCH   7  15
BRANCH   5  28
HETATM   28  C3  UNL     1       7.862 -24.132  38.349  1.00  0.00     0.057 A 
HETATM   29  C4  UNL     1       7.062 -23.871  37.263  1.00  0.00     0.031 A 
HETATM   30  C5  UNL     1       5.703 -24.101  37.326  1.00  0.00     0.002 A 
HETATM   31  C6  UNL     1       5.141 -24.592  38.472  1.00  0.00     0.000 A 
HETATM   32  C7  UNL     1       5.930 -24.858  39.569  1.00  0.00     0.002 A 
HETATM   33  C8  UNL     1       7.288 -24.627  39.502  1.00  0.00     0.031 A 
ENDBRANCH   5  28
TORSDOF 5
ENDMDL
MODEL 2
REMARK VINA RESULT: -8.652697051      2.148      6.775
REMARK  5 active torsions:
REMARK  status: ('A' for Active; 'I' for Inactive)
REMARK    1  A    between atoms: N2_5  and  C3_6 
REMARK    2  A    between atoms: C10_13  and  N3_14 
REMARK    3  A    between atoms: N3_14  and  C11_16 
REMARK    4  A    between atoms: C11_16  and  N4_18 
REMARK    5  A    between atoms: N4_18  and  C12_20 
ROOT
HETATM    1  C1  UNL     1       1.507 -29.284  36.891  1.00  0.00     0.071 C 
HETATM    2  C2  UNL     1       2.750 -28.562  37.311  1.00  0.00     0.038 A 
HETATM    3  N1  UNL     1       2.997 -27.240  37.309  1.00  0.00    -0.297 N 
ATOM      4  H1  UNL     1       2.333 -26.527  37.005  1.00  0.00     0.187 HD
HETATM    5  N2  UNL     1       4.213 -26.990  37.754  1.00  0.00    -0.252 N 
HETATM    6  C9  UNL     1       4.843 -28.151  38.075  1.00  0.00     0.117 A 
HETATM    7  C10 UNL     1       6.090 -28.448  38.570  1.00  0.00     0.152 A 
HETATM    8  N6  UNL     1       6.428 -29.725  38.790  1.00  0.00    -0.282 N 
ATOM      9  H6  UNL     1       7.350 -29.963  39.156  1.00  0.00     0.188 HD
HETATM   10  N7  UNL     1       5.542 -30.674  38.521  1.00  0.00    -0.288 N 
ATOM     11  H7  UNL     1       5.809 -31.644  38.693  1.00  0.00     0.188 HD
HETATM   12  C17 UNL     1       4.313 -30.431  38.037  1.00  0.00     0.130 A 
HETATM   13  S2  UNL     1       3.246 -31.631  37.718  1.00  0.00    -0.058 SA
HETATM   14  C18 UNL     1       3.907 -29.141  37.791  1.00  0.00     0.059 A 
ENDROOT
BRANCH   7  15
HETATM   15  N3  UNL     1       6.918 -27.524  38.818  1.00  0.00    -0.316 N 
ATOM     16  H3  UNL     1       6.726 -26.944  39.634  1.00  0.00     0.170 HD
BRANCH  15  17
HETATM   17  C11 UNL     1       8.080 -27.215  38.078  1.00  0.00     0.177 C 
HETATM   18  S1  UNL     1       7.999 -27.333  36.459  1.00  0.00    -0.040 SA
BRANCH  17  19
HETATM   19  N4  UNL     1       9.262 -26.824  38.691  1.00  0.00    -0.333 N 
ATOM     20  H4  UNL     1       9.658 -27.505  39.338  1.00  0.00     0.168 HD
BRANCH  19  21
HETATM   21  C12 UNL     1       9.926 -25.754  38.571  1.00  0.00     0.036 A 
HETATM   22  C13 UNL     1       9.189 -24.565  38.510  1.00  0.00     0.046 A 
HETATM   23  C14 UNL     1       9.820 -23.346  38.379  1.00  0.00     0.090 A 
HETATM   24  N5  UNL     1      11.153 -23.264  38.307  1.00  0.00    -0.375 N 
HETATM   25  C15 UNL     1      11.880 -24.402  38.364  1.00  0.00     0.090 A 
ATOM     26  H5  UNL     1      11.613 -22.359  38.210  1.00  0.00     0.164 HD
HETATM   27  C16 UNL     1      11.276 -25.637  38.494  1.00  0.00     0.046 A 
ENDBRANCH  19  21
ENDBRANCH  17  19
ENDBRANCH  15  17
ENDBRANCH   7  15
BRANCH   5  28
HETATM   28  C3  UNL     1       4.837 -25.721  37.899  1.00  0.00     0.057 A 
HETATM   29  C4  UNL     1       5.316 -25.040  36.806  1.00  0.00     0.031 A 
HETATM   30  C5  UNL     1       5.920 -23.810  36.961  1.00  0.00     0.002 A 
HETATM   31  C6  UNL     1       6.045 -23.256  38.205  1.00  0.00     0.000 A 
HETATM   32  C7  UNL     1       5.569 -23.927  39.310  1.00  0.00     0.002 A 
HETATM   33  C8  UNL     1       4.966 -25.157  39.151  1.00  0.00     0.031 A 
ENDBRANCH   5  28
TORSDOF 5
ENDMDL
MODEL 3
REMARK VINA RESULT: -8.649820356      2.337      6.661
REMARK  5 active torsions:
REMARK  status: ('A' for Active; 'I' for Inactive)
REMARK    1  A    between atoms: N2_5  and  C3_6 
REMARK    2  A    between atoms: C10_13  and  N3_14 
REMARK    3  A    between atoms: N3_14  and  C11_16 
REMARK    4  A    between atoms: C11_16  and  N4_18 
REMARK    5  A    between atoms: N4_18  and  C12_20 
ROOT
HETATM    1  C1  UNL     1       1.385 -29.300  36.725  1.00  0.00     0.071 C 
HETATM    2  C2  UNL     1       2.632 -28.612  37.189  1.00  0.00     0.038 A 
HETATM    3  N1  UNL     1       2.914 -27.297  37.199  1.00  0.00    -0.297 N 
ATOM      4  H1  UNL     1       2.279 -26.566  36.876  1.00  0.00     0.187 HD
HETATM    5  N2  UNL     1       4.121 -27.080  37.685  1.00  0.00    -0.252 N 
HETATM    6  C9  UNL     1       4.709 -28.258  38.022  1.00  0.00     0.117 A 
HETATM    7  C10 UNL     1       5.931 -28.588  38.557  1.00  0.00     0.152 A 
HETATM    8  N6  UNL     1       6.229 -29.874  38.784  1.00  0.00    -0.282 N 
ATOM      9  H6  UNL     1       7.132 -30.136  39.180  1.00  0.00     0.188 HD
HETATM   10  N7  UNL     1       5.328 -30.799  38.484  1.00  0.00    -0.288 N 
ATOM     11  H7  UNL     1       5.563 -31.776  38.660  1.00  0.00     0.188 HD
HETATM   12  C17 UNL     1       4.123 -30.522  37.960  1.00  0.00     0.130 A 
HETATM   13  S2  UNL     1       3.035 -31.694  37.602  1.00  0.00    -0.058 SA
HETATM   14  C18 UNL     1       3.757 -29.222  37.705  1.00  0.00     0.059 A 
ENDROOT
BRANCH   7  15
HETATM   15  N3  UNL     1       6.774 -27.687  38.835  1.00  0.00    -0.316 N 
ATOM     16  H3  UNL     1       6.449 -26.922  39.426  1.00  0.00     0.170 HD
BRANCH  15  17
HETATM   17  C11 UNL     1       8.119 -27.632  38.409  1.00  0.00     0.177 C 
HETATM   18  S1  UNL     1       9.273 -27.947  39.509  1.00  0.00    -0.040 SA
BRANCH  17  19
HETATM   19  N4  UNL     1       8.467 -27.320  37.102  1.00  0.00    -0.333 N 
ATOM     20  H4  UNL     1       7.900 -27.774  36.386  1.00  0.00     0.168 HD
BRANCH  19  21
HETATM   21  C12 UNL     1       9.377 -26.562  36.661  1.00  0.00     0.036 A 
HETATM   22  C13 UNL     1       9.048 -25.209  36.518  1.00  0.00     0.046 A 
HETATM   23  C14 UNL     1       9.971 -24.301  36.043  1.00  0.00     0.090 A 
HETATM   24  N5  UNL     1      11.207 -24.686  35.707  1.00  0.00    -0.375 N 
HETATM   25  C15 UNL     1      11.542 -25.989  35.840  1.00  0.00     0.090 A 
ATOM     26  H5  UNL     1      11.884 -24.009  35.357  1.00  0.00     0.164 HD
HETATM   27  C16 UNL     1      10.639 -26.921  36.311  1.00  0.00     0.046 A 
ENDBRANCH  19  21
ENDBRANCH  17  19
ENDBRANCH  15  17
ENDBRANCH   7  15
BRANCH   5  28
HETATM   28  C3  UNL     1       4.772 -25.828  37.854  1.00  0.00     0.057 A 
HETATM   29  C4  UNL     1       5.312 -25.161  36.781  1.00  0.00     0.031 A 
HETATM   30  C5  UNL     1       5.941 -23.947  36.959  1.00  0.00     0.002 A 
HETATM   31  C6  UNL     1       6.032 -23.396  38.208  1.00  0.00     0.000 A 
HETATM   32  C7  UNL     1       5.495 -24.052  39.293  1.00  0.00     0.002 A 
HETATM   33  C8  UNL     1       4.867 -25.266  39.110  1.00  0.00     0.031 A 
ENDBRANCH   5  28
TORSDOF 5
ENDMDL
MODEL 4
REMARK VINA RESULT: -8.550055045      2.138      6.673
REMARK  5 active torsions:
REMARK  status: ('A' for Active; 'I' for Inactive)
REMARK    1  A    between atoms: N2_5  and  C3_6 
REMARK    2  A    between atoms: C10_13  and  N3_14 
REMARK    3  A    between atoms: N3_14  and  C11_16 
REMARK    4  A    between atoms: C11_16  and  N4_18 
REMARK    5  A    between atoms: N4_18  and  C12_20 
ROOT
HETATM    1  C1  UNL     1       1.815 -29.236  35.626  1.00  0.00     0.071 C 
HETATM    2  C2  UNL     1       2.934 -28.596  36.388  1.00  0.00     0.038 A 
HETATM    3  N1  UNL     1       3.231 -27.289  36.510  1.00  0.00    -0.297 N 
ATOM      4  H1  UNL     1       2.702 -26.532  36.075  1.00  0.00     0.187 HD
HETATM    5  N2  UNL     1       4.297 -27.119  37.267  1.00  0.00    -0.252 N 
HETATM    6  C9  UNL     1       4.769 -28.322  37.689  1.00  0.00     0.117 A 
HETATM    7  C10 UNL     1       5.828 -28.701  38.479  1.00  0.00     0.152 A 
HETATM    8  N6  UNL     1       6.040 -30.001  38.722  1.00  0.00    -0.282 N 
ATOM      9  H6  UNL     1       6.822 -30.300  39.305  1.00  0.00     0.188 HD
HETATM   10  N7  UNL     1       5.215 -30.893  38.190  1.00  0.00    -0.288 N 
ATOM     11  H7  UNL     1       5.385 -31.880  38.381  1.00  0.00     0.188 HD
HETATM   12  C17 UNL     1       4.169 -30.568  37.413  1.00  0.00     0.130 A 
HETATM   13  S2  UNL     1       3.171 -31.698  36.773  1.00  0.00    -0.058 SA
HETATM   14  C18 UNL     1       3.898 -29.251  37.127  1.00  0.00     0.059 A 
ENDROOT
BRANCH   7  15
HETATM   15  N3  UNL     1       6.601 -27.832  38.975  1.00  0.00    -0.316 N 
ATOM     16  H3  UNL     1       6.173 -27.125  39.572  1.00  0.00     0.170 HD
BRANCH  15  17
HETATM   17  C11 UNL     1       7.997 -27.741  38.785  1.00  0.00     0.177 C 
HETATM   18  S1  UNL     1       8.958 -28.332  39.955  1.00  0.00    -0.040 SA
BRANCH  17  19
HETATM   19  N4  UNL     1       8.552 -27.170  37.649  1.00  0.00    -0.333 N 
ATOM     20  H4  UNL     1       8.528 -27.758  36.816  1.00  0.00     0.168 HD
BRANCH  19  21
HETATM   21  C12 UNL     1       9.082 -26.034  37.485  1.00  0.00     0.036 A 
HETATM   22  C13 UNL     1       9.393 -25.675  36.168  1.00  0.00     0.046 A 
HETATM   23  C14 UNL     1       9.975 -24.457  35.883  1.00  0.00     0.090 A 
HETATM   24  N5  UNL     1      10.258 -23.584  36.856  1.00  0.00    -0.375 N 
HETATM   25  C15 UNL     1       9.964 -23.915  38.134  1.00  0.00     0.090 A 
ATOM     26  H5  UNL     1      10.688 -22.686  36.639  1.00  0.00     0.164 HD
HETATM   27  C16 UNL     1       9.382 -25.127  38.449  1.00  0.00     0.046 A 
ENDBRANCH  19  21
ENDBRANCH  17  19
ENDBRANCH  15  17
ENDBRANCH   7  15
BRANCH   5  28
HETATM   28  C3  UNL     1       4.916 -25.891  37.626  1.00  0.00     0.057 A 
HETATM   29  C4  UNL     1       4.885 -25.437  38.923  1.00  0.00     0.031 A 
HETATM   30  C5  UNL     1       5.489 -24.244  39.258  1.00  0.00     0.002 A 
HETATM   31  C6  UNL     1       6.124 -23.501  38.301  1.00  0.00     0.000 A 
HETATM   32  C7  UNL     1       6.163 -23.943  36.997  1.00  0.00     0.002 A 
HETATM   33  C8  UNL     1       5.558 -25.138  36.666  1.00  0.00     0.031 A 
ENDBRANCH   5  28
TORSDOF 5
ENDMDL
MODEL 5
REMARK VINA RESULT: -8.392362661      2.145      2.998
REMARK  5 active torsions:
REMARK  status: ('A' for Active; 'I' for Inactive)
REMARK    1  A    between atoms: N2_5  and  C3_6 
REMARK    2  A    between atoms: C10_13  and  N3_14 
REMARK    3  A    between atoms: N3_14  and  C11_16 
REMARK    4  A    between atoms: C11_16  and  N4_18 
REMARK    5  A    between atoms: N4_18  and  C12_20 
ROOT
HETATM    1  C1  UNL     1      13.551 -23.761  38.093  1.00  0.00     0.071 C 
HETATM    2  C2  UNL     1      12.151 -24.255  37.894  1.00  0.00     0.038 A 
HETATM    3  N1  UNL     1      11.457 -25.139  38.633  1.00  0.00    -0.297 N 
ATOM      4  H1  UNL     1      11.817 -25.607  39.465  1.00  0.00     0.187 HD
HETATM    5  N2  UNL     1      10.248 -25.318  38.137  1.00  0.00    -0.252 N 
HETATM    6  C9  UNL     1      10.079 -24.552  37.027  1.00  0.00     0.117 A 
HETATM    7  C10 UNL     1       9.034 -24.368  36.153  1.00  0.00     0.152 A 
HETATM    8  N6  UNL     1       9.174 -23.521  35.125  1.00  0.00    -0.282 N 
ATOM      9  H6  UNL     1       8.409 -23.373  34.466  1.00  0.00     0.188 HD
HETATM   10  N7  UNL     1      10.325 -22.879  34.979  1.00  0.00    -0.288 N 
ATOM     11  H7  UNL     1      10.421 -22.236  34.193  1.00  0.00     0.188 HD
HETATM   12  C17 UNL     1      11.371 -23.028  35.808  1.00  0.00     0.130 A 
HETATM   13  S2  UNL     1      12.778 -22.217  35.595  1.00  0.00    -0.058 SA
HETATM   14  C18 UNL     1      11.290 -23.882  36.882  1.00  0.00     0.059 A 
ENDROOT
BRANCH   7  15
HETATM   15  N3  UNL     1       7.947 -24.992  36.313  1.00  0.00    -0.316 N 
ATOM     16  H3  UNL     1       7.980 -26.006  36.207  1.00  0.00     0.170 HD
BRANCH  15  17
HETATM   17  C11 UNL     1       6.691 -24.428  36.624  1.00  0.00     0.177 C 
HETATM   18  S1  UNL     1       6.656 -23.207  37.696  1.00  0.00    -0.040 SA
BRANCH  17  19
HETATM   19  N4  UNL     1       5.513 -24.885  36.049  1.00  0.00    -0.333 N 
ATOM     20  H4  UNL     1       5.101 -24.259  35.358  1.00  0.00     0.168 HD
BRANCH  19  21
HETATM   21  C12 UNL     1       4.872 -25.957  36.248  1.00  0.00     0.036 A 
HETATM   22  C13 UNL     1       4.477 -26.213  37.566  1.00  0.00     0.046 A 
HETATM   23  C14 UNL     1       3.774 -27.355  37.887  1.00  0.00     0.090 A 
HETATM   24  N5  UNL     1       3.448 -28.250  36.948  1.00  0.00    -0.375 N 
HETATM   25  C15 UNL     1       3.821 -28.018  35.669  1.00  0.00     0.090 A 
ATOM     26  H5  UNL     1       2.928 -29.092  37.192  1.00  0.00     0.164 HD
HETATM   27  C16 UNL     1       4.526 -26.884  35.319  1.00  0.00     0.046 A 
ENDBRANCH  19  21
ENDBRANCH  17  19
ENDBRANCH  15  17
ENDBRANCH   7  15
BRANCH   5  28
HETATM   28  C3  UNL     1       9.226 -26.170  38.637  1.00  0.00     0.057 A 
HETATM   29  C4  UNL     1       8.230 -25.680  39.446  1.00  0.00     0.031 A 
HETATM   30  C5  UNL     1       7.244 -26.518  39.924  1.00  0.00     0.002 A 
HETATM   31  C6  UNL     1       7.251 -27.846  39.596  1.00  0.00     0.000 A 
HETATM   32  C7  UNL     1       8.244 -28.351  38.787  1.00  0.00     0.002 A 
HETATM   33  C8  UNL     1       9.227 -27.510  38.311  1.00  0.00     0.031 A 
ENDBRANCH   5  28
TORSDOF 5
ENDMDL
