MODEL 1
REMARK VINA RESULT: -10.999973263      0.000      0.000
REMARK  3 active torsions:
REMARK  status: ('A' for Active; 'I' for Inactive)
REMARK       I    between atoms: C1_2  and  N1_3 
REMARK       I    between atoms: C1_2  and  N3_15 
REMARK    1  A    between atoms: N1_3  and  C2_5 
REMARK    2  A    between atoms: N3_15  and  C9_17 
REMARK    3  A    between atoms: N6_23  and  C11_24 
ROOT
HETATM    1  C9  UNL     1       4.838 -26.849  37.219  1.00  0.00     0.710 A 
HETATM    2  N4  UNL     1       3.925 -27.199  36.302  1.00  0.00    -0.184 N 
ATOM      3  H4  UNL     1       3.075 -26.683  36.074  1.00  0.00     0.185 HD
HETATM    4  C10 UNL     1       4.324 -28.347  35.737  1.00  0.00     0.215 A 
HETATM    5  N5  UNL     1       5.470 -28.669  36.322  1.00  0.00    -0.273 N 
ATOM      6  H5  UNL     1       6.019 -29.500  36.100  1.00  0.00     0.189 HD
HETATM    7  N6  UNL     1       5.806 -27.770  37.232  1.00  0.00    -0.068 N 
ENDROOT
BRANCH   1   8
HETATM    8  N3  UNL     1       4.849 -25.811  37.997  1.00  0.00    -0.139 N 
HETATM    9  C1  UNL     1       5.445 -24.577  37.626  1.00  0.00     0.340 C 
HETATM   10  O1  UNL     1       5.086 -23.960  36.570  1.00  0.00    -0.246 OA
HETATM   11  N1  UNL     1       6.467 -23.946  38.388  1.00  0.00    -0.288 N 
ATOM     12  H1  UNL     1       6.272 -23.608  39.330  1.00  0.00     0.172 HD
ATOM     13  H3  UNL     1       4.411 -25.885  38.916  1.00  0.00     0.189 HD
BRANCH  11  14
HETATM   14  C2  UNL     1       7.651 -23.803  37.871  1.00  0.00     0.153 A 
HETATM   15  N2  UNL     1       8.008 -23.618  36.598  1.00  0.00    -0.335 N 
HETATM   16  C3  UNL     1       9.284 -23.501  36.321  1.00  0.00     0.051 A 
ATOM     17  H2  UNL     1       7.306 -23.569  35.860  1.00  0.00     0.168 HD
HETATM   18  C4  UNL     1       9.834 -23.302  35.035  1.00  0.00     0.031 A 
HETATM   19  C8  UNL     1      10.174 -23.576  37.359  1.00  0.00     0.035 A 
HETATM   20  C5  UNL     1      11.190 -23.194  34.880  1.00  0.00     0.002 A 
HETATM   21  C6  UNL     1      12.100 -23.269  35.930  1.00  0.00     0.002 A 
HETATM   22  C7  UNL     1      11.560 -23.464  37.179  1.00  0.00     0.021 A 
HETATM   23  S1  UNL     1       9.140 -23.813  38.695  1.00  0.00    -0.052 SA
ENDBRANCH  11  14
ENDBRANCH   1   8
BRANCH   7  24
HETATM   24  C11 UNL     1       6.986 -27.811  38.049  1.00  0.00     0.156 A 
HETATM   25  N7  UNL     1       6.979 -28.143  39.350  1.00  0.00    -0.350 N 
HETATM   26  C12 UNL     1       8.091 -28.178  40.104  1.00  0.00     0.090 A 
ATOM     27  H7  UNL     1       6.088 -28.379  39.786  1.00  0.00     0.166 HD
HETATM   28  C13 UNL     1       9.326 -27.868  39.573  1.00  0.00     0.029 A 
HETATM   29  C14 UNL     1       9.371 -27.522  38.236  1.00  0.00    -0.021 A 
HETATM   30  C15 UNL     1      10.586 -27.208  37.675  1.00  0.00     0.012 A 
HETATM   31  C19 UNL     1       8.197 -27.494  37.474  1.00  0.00     0.021 A 
HETATM   32  C16 UNL     1      10.617 -26.863  36.335  1.00  0.00     0.001 A 
HETATM   33  C17 UNL     1       9.476 -26.834  35.586  1.00  0.00     0.001 A 
HETATM   34  C18 UNL     1       8.250 -27.150  36.149  1.00  0.00     0.016 A 
ENDBRANCH   7  24
TORSDOF 3
ENDMDL
MODEL 2
REMARK VINA RESULT: -9.970804643      2.040      3.176
REMARK  3 active torsions:
REMARK  status: ('A' for Active; 'I' for Inactive)
REMARK       I    between atoms: C1_2  and  N1_3 
REMARK       I    between atoms: C1_2  and  N3_15 
REMARK    1  A    between atoms: N1_3  and  C2_5 
REMARK    2  A    between atoms: N3_15  and  C9_17 
REMARK    3  A    between atoms: N6_23  and  C11_24 
ROOT
HETATM    1  C9  UNL     1       3.661 -27.700  36.365  1.00  0.00     0.710 A 
HETATM    2  N4  UNL     1       2.996 -28.822  36.056  1.00  0.00    -0.184 N 
ATOM      3  H4  UNL     1       2.562 -29.033  35.157  1.00  0.00     0.185 HD
HETATM    4  C10 UNL     1       3.000 -29.617  37.134  1.00  0.00     0.215 A 
HETATM    5  N5  UNL     1       3.668 -28.962  38.076  1.00  0.00    -0.273 N 
ATOM      6  H5  UNL     1       3.839 -29.317  39.016  1.00  0.00     0.189 HD
HETATM    7  N6  UNL     1       4.082 -27.788  37.630  1.00  0.00    -0.068 N 
ENDROOT
BRANCH   1   8
HETATM    8  N3  UNL     1       3.897 -26.665  35.619  1.00  0.00    -0.139 N 
HETATM    9  C1  UNL     1       5.166 -26.409  35.037  1.00  0.00     0.340 C 
HETATM   10  O1  UNL     1       5.730 -27.264  34.278  1.00  0.00    -0.246 OA
HETATM   11  N1  UNL     1       5.892 -25.205  35.249  1.00  0.00    -0.288 N 
ATOM     12  H1  UNL     1       5.521 -24.315  34.916  1.00  0.00     0.172 HD
ATOM     13  H3  UNL     1       3.138 -26.006  35.444  1.00  0.00     0.189 HD
BRANCH  11  14
HETATM   14  C2  UNL     1       7.032 -25.250  35.871  1.00  0.00     0.153 A 
HETATM   15  N2  UNL     1       7.926 -26.239  35.942  1.00  0.00    -0.335 N 
HETATM   16  C3  UNL     1       9.017 -26.043  36.643  1.00  0.00     0.051 A 
ATOM     17  H2  UNL     1       7.764 -27.126  35.464  1.00  0.00     0.168 HD
HETATM   18  C4  UNL     1      10.060 -26.978  36.822  1.00  0.00     0.031 A 
HETATM   19  C8  UNL     1       9.173 -24.831  37.259  1.00  0.00     0.035 A 
HETATM   20  C5  UNL     1      11.152 -26.648  37.580  1.00  0.00     0.002 A 
HETATM   21  C6  UNL     1      11.317 -25.418  38.209  1.00  0.00     0.002 A 
HETATM   22  C7  UNL     1      10.298 -24.512  38.032  1.00  0.00     0.021 A 
HETATM   23  S1  UNL     1       7.741 -24.018  36.808  1.00  0.00    -0.052 SA
ENDBRANCH  11  14
ENDBRANCH   1   8
BRANCH   7  24
HETATM   24  C11 UNL     1       4.834 -26.827  38.389  1.00  0.00     0.156 A 
HETATM   25  N7  UNL     1       4.411 -25.577  38.633  1.00  0.00    -0.350 N 
HETATM   26  C12 UNL     1       5.124 -24.686  39.343  1.00  0.00     0.090 A 
ATOM     27  H7  UNL     1       3.506 -25.289  38.260  1.00  0.00     0.166 HD
HETATM   28  C13 UNL     1       6.355 -25.015  39.872  1.00  0.00     0.029 A 
HETATM   29  C14 UNL     1       6.822 -26.294  39.641  1.00  0.00    -0.021 A 
HETATM   30  C15 UNL     1       8.045 -26.654  40.154  1.00  0.00     0.012 A 
HETATM   31  C19 UNL     1       6.058 -27.201  38.897  1.00  0.00     0.021 A 
HETATM   32  C16 UNL     1       8.502 -27.939  39.914  1.00  0.00     0.001 A 
HETATM   33  C17 UNL     1       7.762 -28.828  39.190  1.00  0.00     0.001 A 
HETATM   34  C18 UNL     1       6.528 -28.468  38.671  1.00  0.00     0.016 A 
ENDBRANCH   7  24
TORSDOF 3
ENDMDL
MODEL 3
REMARK VINA RESULT: -9.147861443      0.884      2.047
REMARK  3 active torsions:
REMARK  status: ('A' for Active; 'I' for Inactive)
REMARK       I    between atoms: C1_2  and  N1_3 
REMARK       I    between atoms: C1_2  and  N3_15 
REMARK    1  A    between atoms: N1_3  and  C2_5 
REMARK    2  A    between atoms: N3_15  and  C9_17 
REMARK    3  A    between atoms: N6_23  and  C11_24 
ROOT
HETATM    1  C9  UNL     1       4.945 -26.642  36.979  1.00  0.00     0.710 A 
HETATM    2  N4  UNL     1       3.765 -26.982  36.441  1.00  0.00    -0.184 N 
ATOM      3  H4  UNL     1       2.849 -26.653  36.748  1.00  0.00     0.185 HD
HETATM    4  C10 UNL     1       3.999 -27.830  35.431  1.00  0.00     0.215 A 
HETATM    5  N5  UNL     1       5.315 -27.988  35.376  1.00  0.00    -0.273 N 
ATOM      6  H5  UNL     1       5.799 -28.581  34.701  1.00  0.00     0.189 HD
HETATM    7  N6  UNL     1       5.916 -27.273  36.312  1.00  0.00    -0.068 N 
ENDROOT
BRANCH   1   8
HETATM    8  N3  UNL     1       5.184 -25.846  37.975  1.00  0.00    -0.139 N 
HETATM    9  C1  UNL     1       5.752 -24.556  37.810  1.00  0.00     0.340 C 
HETATM   10  O1  UNL     1       5.207 -23.684  37.057  1.00  0.00    -0.246 OA
HETATM   11  N1  UNL     1       6.949 -24.144  38.458  1.00  0.00    -0.288 N 
ATOM     12  H1  UNL     1       6.983 -24.067  39.475  1.00  0.00     0.172 HD
ATOM     13  H3  UNL     1       4.952 -26.161  38.918  1.00  0.00     0.189 HD
BRANCH  11  14
HETATM   14  C2  UNL     1       7.997 -23.866  37.742  1.00  0.00     0.153 A 
HETATM   15  N2  UNL     1       8.095 -23.611  36.436  1.00  0.00    -0.335 N 
HETATM   16  C3  UNL     1       9.280 -23.355  35.939  1.00  0.00     0.051 A 
ATOM     17  H2  UNL     1       7.267 -23.615  35.839  1.00  0.00     0.168 HD
HETATM   18  C4  UNL     1       9.561 -23.066  34.585  1.00  0.00     0.031 A 
HETATM   19  C8  UNL     1      10.349 -23.364  36.794  1.00  0.00     0.035 A 
HETATM   20  C5  UNL     1      10.848 -22.814  34.192  1.00  0.00     0.002 A 
HETATM   21  C6  UNL     1      11.939 -22.822  35.055  1.00  0.00     0.002 A 
HETATM   22  C7  UNL     1      11.660 -23.104  36.371  1.00  0.00     0.021 A 
HETATM   23  S1  UNL     1       9.607 -23.742  38.283  1.00  0.00    -0.052 SA
ENDBRANCH  11  14
ENDBRANCH   1   8
BRANCH   7  24
HETATM   24  C11 UNL     1       7.334 -27.212  36.533  1.00  0.00     0.156 A 
HETATM   25  N7  UNL     1       8.215 -26.809  35.604  1.00  0.00    -0.350 N 
HETATM   26  C12 UNL     1       9.540 -26.756  35.822  1.00  0.00     0.090 A 
ATOM     27  H7  UNL     1       7.861 -26.530  34.688  1.00  0.00     0.166 HD
HETATM   28  C13 UNL     1      10.079 -27.121  37.038  1.00  0.00     0.029 A 
HETATM   29  C14 UNL     1       9.201 -27.540  38.019  1.00  0.00    -0.021 A 
HETATM   30  C15 UNL     1       9.706 -27.910  39.243  1.00  0.00     0.012 A 
HETATM   31  C19 UNL     1       7.826 -27.585  37.764  1.00  0.00     0.021 A 
HETATM   32  C16 UNL     1       8.815 -28.329  40.217  1.00  0.00     0.001 A 
HETATM   33  C17 UNL     1       7.473 -28.376  39.974  1.00  0.00     0.001 A 
HETATM   34  C18 UNL     1       6.962 -28.004  38.742  1.00  0.00     0.016 A 
ENDBRANCH   7  24
TORSDOF 3
ENDMDL
MODEL 4
REMARK VINA RESULT: -9.062186914      2.725      6.106
REMARK  3 active torsions:
REMARK  status: ('A' for Active; 'I' for Inactive)
REMARK       I    between atoms: C1_2  and  N1_3 
REMARK       I    between atoms: C1_2  and  N3_15 
REMARK    1  A    between atoms: N1_3  and  C2_5 
REMARK    2  A    between atoms: N3_15  and  C9_17 
REMARK    3  A    between atoms: N6_23  and  C11_24 
ROOT
HETATM    1  C9  UNL     1      11.594 -23.894  35.353  1.00  0.00     0.710 A 
HETATM    2  N4  UNL     1      12.018 -23.387  34.186  1.00  0.00    -0.184 N 
ATOM      3  H4  UNL     1      12.884 -23.632  33.706  1.00  0.00     0.185 HD
HETATM    4  C10 UNL     1      11.105 -22.504  33.762  1.00  0.00     0.215 A 
HETATM    5  N5  UNL     1      10.145 -22.491  34.679  1.00  0.00    -0.273 N 
ATOM      6  H5  UNL     1       9.308 -21.911  34.631  1.00  0.00     0.189 HD
HETATM    7  N6  UNL     1      10.421 -23.332  35.662  1.00  0.00    -0.068 N 
ENDROOT
BRANCH   1   8
HETATM    8  N3  UNL     1      12.167 -24.778  36.110  1.00  0.00    -0.139 N 
HETATM    9  C1  UNL     1      11.717 -26.120  36.201  1.00  0.00     0.340 C 
HETATM   10  O1  UNL     1      11.622 -26.858  35.166  1.00  0.00    -0.246 OA
HETATM   11  N1  UNL     1      11.345 -26.736  37.428  1.00  0.00    -0.288 N 
ATOM     12  H1  UNL     1      12.039 -26.882  38.162  1.00  0.00     0.172 HD
ATOM     13  H3  UNL     1      12.976 -24.495  36.664  1.00  0.00     0.189 HD
BRANCH  11  14
HETATM   14  C2  UNL     1      10.113 -27.110  37.605  1.00  0.00     0.153 A 
HETATM   15  N2  UNL     1       9.129 -27.250  36.715  1.00  0.00    -0.335 N 
HETATM   16  C3  UNL     1       7.954 -27.646  37.143  1.00  0.00     0.051 A 
ATOM     17  H2  UNL     1       9.286 -27.054  35.726  1.00  0.00     0.168 HD
HETATM   18  C4  UNL     1       6.809 -27.845  36.341  1.00  0.00     0.031 A 
HETATM   19  C8  UNL     1       7.811 -27.892  38.482  1.00  0.00     0.035 A 
HETATM   20  C5  UNL     1       5.637 -28.263  36.914  1.00  0.00     0.002 A 
HETATM   21  C6  UNL     1       5.484 -28.515  38.273  1.00  0.00     0.002 A 
HETATM   22  C7  UNL     1       6.602 -28.320  39.049  1.00  0.00     0.021 A 
HETATM   23  S1  UNL     1       9.372 -27.544  39.075  1.00  0.00    -0.052 SA
ENDBRANCH  11  14
ENDBRANCH   1   8
BRANCH   7  24
HETATM   24  C11 UNL     1       9.596 -23.566  36.814  1.00  0.00     0.156 A 
HETATM   25  N7  UNL     1      10.044 -23.492  38.077  1.00  0.00    -0.350 N 
HETATM   26  C12 UNL     1       9.263 -23.713  39.147  1.00  0.00     0.090 A 
ATOM     27  H7  UNL     1      11.025 -23.257  38.232  1.00  0.00     0.166 HD
HETATM   28  C13 UNL     1       7.929 -24.037  39.004  1.00  0.00     0.029 A 
HETATM   29  C14 UNL     1       7.433 -24.122  37.718  1.00  0.00    -0.021 A 
HETATM   30  C15 UNL     1       6.109 -24.442  37.540  1.00  0.00     0.012 A 
HETATM   31  C19 UNL     1       8.270 -23.886  36.621  1.00  0.00     0.021 A 
HETATM   32  C16 UNL     1       5.624 -24.524  36.245  1.00  0.00     0.001 A 
HETATM   33  C17 UNL     1       6.435 -24.295  35.172  1.00  0.00     0.001 A 
HETATM   34  C18 UNL     1       7.771 -23.973  35.348  1.00  0.00     0.016 A 
ENDBRANCH   7  24
TORSDOF 3
ENDMDL
MODEL 5
REMARK VINA RESULT: -8.624208865      2.611      6.163
REMARK  3 active torsions:
REMARK  status: ('A' for Active; 'I' for Inactive)
REMARK       I    between atoms: C1_2  and  N1_3 
REMARK       I    between atoms: C1_2  and  N3_15 
REMARK    1  A    between atoms: N1_3  and  C2_5 
REMARK    2  A    between atoms: N3_15  and  C9_17 
REMARK    3  A    between atoms: N6_23  and  C11_24 
ROOT
HETATM    1  C9  UNL     1      10.541 -26.300  37.609  1.00  0.00     0.710 A 
HETATM    2  N4  UNL     1      11.724 -26.826  37.260  1.00  0.00    -0.184 N 
ATOM      3  H4  UNL     1      12.439 -27.171  37.901  1.00  0.00     0.185 HD
HETATM    4  C10 UNL     1      11.802 -26.819  35.923  1.00  0.00     0.215 A 
HETATM    5  N5  UNL     1      10.666 -26.289  35.487  1.00  0.00    -0.273 N 
ATOM      6  H5  UNL     1      10.432 -26.152  34.504  1.00  0.00     0.189 HD
HETATM    7  N6  UNL     1       9.879 -25.963  36.499  1.00  0.00    -0.068 N 
ENDROOT
BRANCH   1   8
HETATM    8  N3  UNL     1      10.054 -26.116  38.798  1.00  0.00    -0.139 N 
HETATM    9  C1  UNL     1       9.125 -27.008  39.395  1.00  0.00     0.340 C 
HETATM   10  O1  UNL     1       9.396 -28.245  39.540  1.00  0.00    -0.246 OA
HETATM   11  N1  UNL     1       7.847 -26.600  39.868  1.00  0.00    -0.288 N 
ATOM     12  H1  UNL     1       7.772 -25.946  40.646  1.00  0.00     0.172 HD
ATOM     13  H3  UNL     1      10.351 -25.295  39.326  1.00  0.00     0.189 HD
BRANCH  11  14
HETATM   14  C2  UNL     1       6.778 -27.071  39.298  1.00  0.00     0.153 A 
HETATM   15  N2  UNL     1       6.530 -28.296  38.829  1.00  0.00    -0.335 N 
HETATM   16  C3  UNL     1       5.359 -28.530  38.290  1.00  0.00     0.051 A 
ATOM     17  H2  UNL     1       7.235 -29.031  38.888  1.00  0.00     0.168 HD
HETATM   18  C4  UNL     1       4.934 -29.763  37.747  1.00  0.00     0.031 A 
HETATM   19  C8  UNL     1       4.458 -27.501  38.241  1.00  0.00     0.035 A 
HETATM   20  C5  UNL     1       3.678 -29.878  37.212  1.00  0.00     0.002 A 
HETATM   21  C6  UNL     1       2.758 -28.836  37.159  1.00  0.00     0.002 A 
HETATM   22  C7  UNL     1       3.177 -27.638  37.688  1.00  0.00     0.021 A 
HETATM   23  S1  UNL     1       5.332 -26.231  38.975  1.00  0.00    -0.052 SA
ENDBRANCH  11  14
ENDBRANCH   1   8
BRANCH   7  24
HETATM   24  C11 UNL     1       8.576 -25.368  36.383  1.00  0.00     0.156 A 
HETATM   25  N7  UNL     1       8.295 -24.114  36.769  1.00  0.00    -0.350 N 
HETATM   26  C12 UNL     1       7.072 -23.568  36.656  1.00  0.00     0.090 A 
ATOM     27  H7  UNL     1       9.044 -23.548  37.167  1.00  0.00     0.166 HD
HETATM   28  C13 UNL     1       6.017 -24.283  36.127  1.00  0.00     0.029 A 
HETATM   29  C14 UNL     1       6.270 -25.578  35.718  1.00  0.00    -0.021 A 
HETATM   30  C15 UNL     1       5.241 -26.317  35.186  1.00  0.00     0.012 A 
HETATM   31  C19 UNL     1       7.554 -26.120  35.848  1.00  0.00     0.021 A 
HETATM   32  C16 UNL     1       5.509 -27.613  34.781  1.00  0.00     0.001 A 
HETATM   33  C17 UNL     1       6.758 -28.148  34.905  1.00  0.00     0.001 A 
HETATM   34  C18 UNL     1       7.797 -27.406  35.441  1.00  0.00     0.016 A 
ENDBRANCH   7  24
TORSDOF 3
ENDMDL
