MODEL 1
REMARK VINA RESULT: -11.238883459      0.000      0.000
REMARK  2 active torsions:
REMARK  status: ('A' for Active; 'I' for Inactive)
REMARK    1  A    between atoms: C5_8  and  N2_9 
REMARK    2  A    between atoms: N2_9  and  C6_11 
ROOT
HETATM    1  N2  UNL     1       9.422 -23.887  38.443  1.00  0.00    -0.339 N 
ATOM      2  H2  UNL     1       8.873 -23.169  38.915  1.00  0.00     0.167 HD
ENDROOT
BRANCH   1   3
HETATM    3  C5  UNL     1       8.978 -25.215  38.589  1.00  0.00     0.034 A 
HETATM    4  C4  UNL     1       9.838 -26.210  38.994  1.00  0.00     0.032 A 
HETATM    5  C3  UNL     1       9.416 -27.499  39.136  1.00  0.00     0.033 A 
HETATM    6  C2  UNL     1       8.086 -27.811  38.867  1.00  0.00     0.046 A 
HETATM    7  N1  UNL     1       7.676 -29.078  39.009  1.00  0.00    -0.322 N 
HETATM    8  C16 UNL     1       7.221 -26.804  38.460  1.00  0.00     0.004 A 
HETATM    9  C1  UNL     1       6.408 -29.396  38.756  1.00  0.00     0.257 A 
ATOM     10  H1  UNL     1       8.334 -29.797  39.309  1.00  0.00     0.169 HD
HETATM   11  O1  UNL     1       6.049 -30.607  38.899  1.00  0.00    -0.267 OA
HETATM   12  C22 UNL     1       5.494 -28.454  38.348  1.00  0.00     0.043 A 
HETATM   13  C17 UNL     1       5.887 -27.118  38.190  1.00  0.00    -0.008 A 
HETATM   14  C21 UNL     1       4.195 -28.828  38.099  1.00  0.00     0.018 A 
HETATM   15  C18 UNL     1       4.964 -26.184  37.782  1.00  0.00     0.013 A 
HETATM   16  C19 UNL     1       3.656 -26.551  37.529  1.00  0.00     0.001 A 
HETATM   17  C20 UNL     1       3.281 -27.875  37.690  1.00  0.00     0.001 A 
HETATM   18  C15 UNL     1       7.632 -25.507  38.313  1.00  0.00     0.044 A 
ENDBRANCH   1   3
BRANCH   1  19
HETATM   19  C6  UNL     1      10.436 -23.486  37.784  1.00  0.00     0.153 A 
HETATM   20  N3  UNL     1      11.594 -23.279  38.461  1.00  0.00    -0.337 N 
HETATM   21  C7  UNL     1      12.675 -22.856  37.789  1.00  0.00     0.061 A 
ATOM     22  H3  UNL     1      11.642 -23.442  39.467  1.00  0.00     0.167 HD
HETATM   23  C8  UNL     1      13.860 -22.644  38.478  1.00  0.00     0.032 A 
HETATM   24  C12 UNL     1      12.619 -22.629  36.407  1.00  0.00     0.072 A 
HETATM   25  C9  UNL     1      14.950 -22.215  37.784  1.00  0.00     0.002 A 
HETATM   26  C10 UNL     1      14.898 -21.992  36.435  1.00  0.00     0.002 A 
HETATM   27  C11 UNL     1      13.725 -22.198  35.727  1.00  0.00     0.032 A 
HETATM   28  N4  UNL     1      11.462 -22.839  35.746  1.00  0.00    -0.242 N 
HETATM   29  C13 UNL     1      11.116 -22.711  34.468  1.00  0.00     0.347 A 
HETATM   30  C14 UNL     1      10.371 -23.266  36.428  1.00  0.00     0.176 A 
HETATM   31  O2  UNL     1      11.757 -22.354  33.461  1.00  0.00    -0.245 OA
HETATM   32  N5  UNL     1       9.800 -23.058  34.334  1.00  0.00    -0.249 N 
HETATM   33  N6  UNL     1       9.376 -23.389  35.538  1.00  0.00    -0.278 N 
ATOM     34  H5  UNL     1       9.254 -23.061  33.472  1.00  0.00     0.192 HD
ATOM     35  H6  UNL     1       8.428 -23.694  35.760  1.00  0.00     0.189 HD
ENDBRANCH   1  19
TORSDOF 2
ENDMDL
MODEL 2
REMARK VINA RESULT: -11.040629610      1.854      3.101
REMARK  2 active torsions:
REMARK  status: ('A' for Active; 'I' for Inactive)
REMARK    1  A    between atoms: C5_8  and  N2_9 
REMARK    2  A    between atoms: N2_9  and  C6_11 
ROOT
HETATM    1  N2  UNL     1      10.621 -26.105  38.871  1.00  0.00    -0.339 N 
ATOM      2  H2  UNL     1      11.255 -26.217  39.662  1.00  0.00     0.167 HD
ENDROOT
BRANCH   1   3
HETATM    3  C5  UNL     1       9.472 -26.919  38.865  1.00  0.00     0.034 A 
HETATM    4  C4  UNL     1       9.320 -27.937  39.777  1.00  0.00     0.032 A 
HETATM    5  C3  UNL     1       8.211 -28.731  39.777  1.00  0.00     0.033 A 
HETATM    6  C2  UNL     1       7.214 -28.503  38.832  1.00  0.00     0.046 A 
HETATM    7  N1  UNL     1       6.127 -29.284  38.835  1.00  0.00    -0.322 N 
HETATM    8  C16 UNL     1       7.371 -27.474  37.913  1.00  0.00     0.004 A 
HETATM    9  C1  UNL     1       5.162 -29.082  37.939  1.00  0.00     0.257 A 
ATOM     10  H1  UNL     1       6.037 -30.033  39.522  1.00  0.00     0.169 HD
HETATM   11  O1  UNL     1       4.142 -29.840  37.968  1.00  0.00    -0.267 OA
HETATM   12  C22 UNL     1       5.247 -28.083  36.999  1.00  0.00     0.043 A 
HETATM   13  C17 UNL     1       6.370 -27.245  36.965  1.00  0.00    -0.008 A 
HETATM   14  C21 UNL     1       4.227 -27.910  36.094  1.00  0.00     0.018 A 
HETATM   15  C18 UNL     1       6.445 -26.250  36.020  1.00  0.00     0.013 A 
HETATM   16  C19 UNL     1       5.424 -26.069  35.106  1.00  0.00     0.001 A 
HETATM   17  C20 UNL     1       4.320 -26.904  35.151  1.00  0.00     0.001 A 
HETATM   18  C15 UNL     1       8.479 -26.670  37.903  1.00  0.00     0.044 A 
ENDBRANCH   1   3
BRANCH   1  19
HETATM   19  C6  UNL     1      10.953 -25.243  37.994  1.00  0.00     0.153 A 
HETATM   20  N3  UNL     1      10.013 -24.855  37.094  1.00  0.00    -0.337 N 
HETATM   21  C7  UNL     1      10.338 -23.949  36.160  1.00  0.00     0.061 A 
ATOM     22  H3  UNL     1       9.071 -25.246  37.128  1.00  0.00     0.167 HD
HETATM   23  C8  UNL     1       9.380 -23.550  35.241  1.00  0.00     0.032 A 
HETATM   24  C12 UNL     1      11.629 -23.406  36.106  1.00  0.00     0.072 A 
HETATM   25  C9  UNL     1       9.724 -22.630  34.298  1.00  0.00     0.002 A 
HETATM   26  C10 UNL     1      10.983 -22.098  34.242  1.00  0.00     0.002 A 
HETATM   27  C11 UNL     1      11.956 -22.481  35.151  1.00  0.00     0.032 A 
HETATM   28  N4  UNL     1      12.555 -23.800  37.005  1.00  0.00    -0.242 N 
HETATM   29  C13 UNL     1      13.829 -23.467  37.195  1.00  0.00     0.347 A 
HETATM   30  C14 UNL     1      12.222 -24.715  37.948  1.00  0.00     0.176 A 
HETATM   31  O2  UNL     1      14.584 -22.676  36.597  1.00  0.00    -0.245 OA
HETATM   32  N5  UNL     1      14.310 -24.173  38.262  1.00  0.00    -0.249 N 
HETATM   33  N6  UNL     1      13.315 -24.921  38.697  1.00  0.00    -0.278 N 
ATOM     34  H5  UNL     1      15.254 -24.129  38.647  1.00  0.00     0.192 HD
ATOM     35  H6  UNL     1      13.368 -25.563  39.488  1.00  0.00     0.189 HD
ENDBRANCH   1  19
TORSDOF 2
ENDMDL
MODEL 3
REMARK VINA RESULT: -10.843855642      3.007      9.340
REMARK  2 active torsions:
REMARK  status: ('A' for Active; 'I' for Inactive)
REMARK    1  A    between atoms: C5_8  and  N2_9 
REMARK    2  A    between atoms: N2_9  and  C6_11 
ROOT
HETATM    1  N2  UNL     1       4.693 -26.813  35.753  1.00  0.00    -0.339 N 
ATOM      2  H2  UNL     1       4.603 -26.758  34.739  1.00  0.00     0.167 HD
ENDROOT
BRANCH   1   3
HETATM    3  C5  UNL     1       5.609 -25.927  36.352  1.00  0.00     0.034 A 
HETATM    4  C4  UNL     1       5.175 -24.843  37.079  1.00  0.00     0.032 A 
HETATM    5  C3  UNL     1       6.056 -23.980  37.661  1.00  0.00     0.033 A 
HETATM    6  C2  UNL     1       7.423 -24.205  37.515  1.00  0.00     0.046 A 
HETATM    7  N1  UNL     1       8.284 -23.355  38.089  1.00  0.00    -0.322 N 
HETATM    8  C16 UNL     1       7.857 -25.301  36.782  1.00  0.00     0.004 A 
HETATM    9  C1  UNL     1       9.595 -23.553  37.961  1.00  0.00     0.257 A 
ATOM     10  H1  UNL     1       7.937 -22.558  38.622  1.00  0.00     0.169 HD
HETATM   11  O1  UNL     1      10.387 -22.729  38.517  1.00  0.00    -0.267 OA
HETATM   12  C22 UNL     1      10.099 -24.615  37.250  1.00  0.00     0.043 A 
HETATM   13  C17 UNL     1       9.228 -25.525  36.637  1.00  0.00    -0.008 A 
HETATM   14  C21 UNL     1      11.460 -24.780  37.145  1.00  0.00     0.018 A 
HETATM   15  C18 UNL     1       9.744 -26.585  35.928  1.00  0.00     0.013 A 
HETATM   16  C19 UNL     1      11.110 -26.758  35.817  1.00  0.00     0.001 A 
HETATM   17  C20 UNL     1      11.960 -25.851  36.429  1.00  0.00     0.001 A 
HETATM   18  C15 UNL     1       6.983 -26.174  36.193  1.00  0.00     0.044 A 
ENDBRANCH   1   3
BRANCH   1  19
HETATM   19  C6  UNL     1       3.965 -27.676  36.343  1.00  0.00     0.153 A 
HETATM   20  N3  UNL     1       2.847 -27.238  36.978  1.00  0.00    -0.337 N 
HETATM   21  C7  UNL     1       2.064 -28.127  37.607  1.00  0.00     0.061 A 
ATOM     22  H3  UNL     1       2.606 -26.247  36.976  1.00  0.00     0.167 HD
HETATM   23  C8  UNL     1       0.923 -27.683  38.255  1.00  0.00     0.032 A 
HETATM   24  C12 UNL     1       2.388 -29.491  37.614  1.00  0.00     0.072 A 
HETATM   25  C9  UNL     1       0.137 -28.596  38.890  1.00  0.00     0.002 A 
HETATM   26  C10 UNL     1       0.450 -29.928  38.900  1.00  0.00     0.002 A 
HETATM   27  C11 UNL     1       1.585 -30.393  38.257  1.00  0.00     0.032 A 
HETATM   28  N4  UNL     1       3.502 -29.913  36.980  1.00  0.00    -0.242 N 
HETATM   29  C13 UNL     1       4.050 -31.115  36.821  1.00  0.00     0.347 A 
HETATM   30  C14 UNL     1       4.290 -29.013  36.345  1.00  0.00     0.176 A 
HETATM   31  O2  UNL     1       3.707 -32.247  37.210  1.00  0.00    -0.245 OA
HETATM   32  N5  UNL     1       5.192 -30.980  36.082  1.00  0.00    -0.249 N 
HETATM   33  N6  UNL     1       5.312 -29.695  35.809  1.00  0.00    -0.278 N 
ATOM     34  H5  UNL     1       5.827 -31.726  35.797  1.00  0.00     0.192 HD
ATOM     35  H6  UNL     1       6.072 -29.280  35.269  1.00  0.00     0.189 HD
ENDBRANCH   1  19
TORSDOF 2
ENDMDL
MODEL 4
REMARK VINA RESULT: -10.674500844      3.437      9.380
REMARK  2 active torsions:
REMARK  status: ('A' for Active; 'I' for Inactive)
REMARK    1  A    between atoms: C5_8  and  N2_9 
REMARK    2  A    between atoms: N2_9  and  C6_11 
ROOT
HETATM    1  N2  UNL     1       5.320 -28.024  35.744  1.00  0.00    -0.339 N 
ATOM      2  H2  UNL     1       5.429 -28.182  34.743  1.00  0.00     0.167 HD
ENDROOT
BRANCH   1   3
HETATM    3  C5  UNL     1       6.019 -26.929  36.288  1.00  0.00     0.034 A 
HETATM    4  C4  UNL     1       5.355 -25.914  36.937  1.00  0.00     0.032 A 
HETATM    5  C3  UNL     1       6.025 -24.850  37.465  1.00  0.00     0.033 A 
HETATM    6  C2  UNL     1       7.411 -24.794  37.343  1.00  0.00     0.046 A 
HETATM    7  N1  UNL     1       8.065 -23.748  37.864  1.00  0.00    -0.322 N 
HETATM    8  C16 UNL     1       8.078 -25.821  36.689  1.00  0.00     0.004 A 
HETATM    9  C1  UNL     1       9.391 -23.676  37.758  1.00  0.00     0.257 A 
ATOM     10  H1  UNL     1       7.549 -23.008  38.340  1.00  0.00     0.169 HD
HETATM   11  O1  UNL     1       9.983 -22.670  38.261  1.00  0.00    -0.267 OA
HETATM   12  C22 UNL     1      10.119 -24.653  37.123  1.00  0.00     0.043 A 
HETATM   13  C17 UNL     1       9.469 -25.763  36.567  1.00  0.00    -0.008 A 
HETATM   14  C21 UNL     1      11.486 -24.537  37.038  1.00  0.00     0.018 A 
HETATM   15  C18 UNL     1      10.208 -26.735  35.935  1.00  0.00     0.013 A 
HETATM   16  C19 UNL     1      11.583 -26.626  35.845  1.00  0.00     0.001 A 
HETATM   17  C20 UNL     1      12.212 -25.524  36.399  1.00  0.00     0.001 A 
HETATM   18  C15 UNL     1       7.417 -26.894  36.154  1.00  0.00     0.044 A 
ENDBRANCH   1   3
BRANCH   1  19
HETATM   19  C6  UNL     1       4.565 -28.837  36.370  1.00  0.00     0.153 A 
HETATM   20  N3  UNL     1       5.149 -29.739  37.199  1.00  0.00    -0.337 N 
HETATM   21  C7  UNL     1       4.375 -30.607  37.868  1.00  0.00     0.061 A 
ATOM     22  H3  UNL     1       6.163 -29.757  37.312  1.00  0.00     0.167 HD
HETATM   23  C8  UNL     1       4.969 -31.529  38.716  1.00  0.00     0.032 A 
HETATM   24  C12 UNL     1       2.982 -30.589  37.718  1.00  0.00     0.072 A 
HETATM   25  C9  UNL     1       4.172 -32.404  39.389  1.00  0.00     0.002 A 
HETATM   26  C10 UNL     1       2.812 -32.390  39.245  1.00  0.00     0.002 A 
HETATM   27  C11 UNL     1       2.197 -31.477  38.404  1.00  0.00     0.032 A 
HETATM   28  N4  UNL     1       2.413 -29.688  36.891  1.00  0.00    -0.242 N 
HETATM   29  C13 UNL     1       1.150 -29.440  36.556  1.00  0.00     0.347 A 
HETATM   30  C14 UNL     1       3.198 -28.813  36.217  1.00  0.00     0.176 A 
HETATM   31  O2  UNL     1       0.075 -29.966  36.904  1.00  0.00    -0.245 OA
HETATM   32  N5  UNL     1       1.129 -28.403  35.666  1.00  0.00    -0.249 N 
HETATM   33  N6  UNL     1       2.384 -28.044  35.479  1.00  0.00    -0.278 N 
ATOM     34  H5  UNL     1       0.304 -27.988  35.231  1.00  0.00     0.192 HD
ATOM     35  H6  UNL     1       2.692 -27.292  34.862  1.00  0.00     0.189 HD
ENDBRANCH   1  19
TORSDOF 2
ENDMDL
MODEL 5
REMARK VINA RESULT: -10.465875210      1.147      1.470
REMARK  2 active torsions:
REMARK  status: ('A' for Active; 'I' for Inactive)
REMARK    1  A    between atoms: C5_8  and  N2_9 
REMARK    2  A    between atoms: N2_9  and  C6_11 
ROOT
HETATM    1  N2  UNL     1       8.361 -24.725  38.890  1.00  0.00    -0.339 N 
ATOM      2  H2  UNL     1       7.910 -24.084  39.543  1.00  0.00     0.167 HD
ENDROOT
BRANCH   1   3
HETATM    3  C5  UNL     1       7.935 -26.067  38.932  1.00  0.00     0.034 A 
HETATM    4  C4  UNL     1       8.770 -27.063  39.382  1.00  0.00     0.032 A 
HETATM    5  C3  UNL     1       8.366 -28.365  39.424  1.00  0.00     0.033 A 
HETATM    6  C2  UNL     1       7.079 -28.689  39.001  1.00  0.00     0.046 A 
HETATM    7  N1  UNL     1       6.686 -29.968  39.044  1.00  0.00    -0.322 N 
HETATM    8  C16 UNL     1       6.239 -27.680  38.548  1.00  0.00     0.004 A 
HETATM    9  C1  UNL     1       5.459 -30.298  38.644  1.00  0.00     0.257 A 
ATOM     10  H1  UNL     1       7.324 -30.687  39.382  1.00  0.00     0.169 HD
HETATM   11  O1  UNL     1       5.115 -31.520  38.696  1.00  0.00    -0.267 OA
HETATM   12  C22 UNL     1       4.571 -29.355  38.182  1.00  0.00     0.043 A 
HETATM   13  C17 UNL     1       4.948 -28.007  38.124  1.00  0.00    -0.008 A 
HETATM   14  C21 UNL     1       3.315 -29.742  37.779  1.00  0.00     0.018 A 
HETATM   15  C18 UNL     1       4.052 -27.073  37.660  1.00  0.00     0.013 A 
HETATM   16  C19 UNL     1       2.787 -27.453  37.253  1.00  0.00     0.001 A 
HETATM   17  C20 UNL     1       2.428 -28.788  37.317  1.00  0.00     0.001 A 
HETATM   18  C15 UNL     1       6.633 -26.370  38.501  1.00  0.00     0.044 A 
ENDBRANCH   1   3
BRANCH   1  19
HETATM   19  C6  UNL     1       9.249 -24.227  38.125  1.00  0.00     0.153 A 
HETATM   20  N3  UNL     1      10.503 -24.072  38.621  1.00  0.00    -0.337 N 
HETATM   21  C7  UNL     1      11.455 -23.548  37.835  1.00  0.00     0.061 A 
ATOM     22  H3  UNL     1      10.719 -24.350  39.579  1.00  0.00     0.167 HD
HETATM   23  C8  UNL     1      12.737 -23.389  38.339  1.00  0.00     0.032 A 
HETATM   24  C12 UNL     1      11.167 -23.164  36.518  1.00  0.00     0.072 A 
HETATM   25  C9  UNL     1      13.694 -22.856  37.530  1.00  0.00     0.002 A 
HETATM   26  C10 UNL     1      13.417 -22.480  36.244  1.00  0.00     0.002 A 
HETATM   27  C11 UNL     1      12.143 -22.631  35.720  1.00  0.00     0.032 A 
HETATM   28  N4  UNL     1       9.917 -23.323  36.037  1.00  0.00    -0.242 N 
HETATM   29  C13 UNL     1       9.363 -23.056  34.857  1.00  0.00     0.347 A 
HETATM   30  C14 UNL     1       8.958 -23.852  36.834  1.00  0.00     0.176 A 
HETATM   31  O2  UNL     1       9.825 -22.569  33.808  1.00  0.00    -0.245 OA
HETATM   32  N5  UNL     1       8.045 -23.417  34.903  1.00  0.00    -0.249 N 
HETATM   33  N6  UNL     1       7.828 -23.895  36.113  1.00  0.00    -0.278 N 
ATOM     34  H5  UNL     1       7.363 -23.333  34.148  1.00  0.00     0.192 HD
ATOM     35  H6  UNL     1       6.932 -24.246  36.451  1.00  0.00     0.189 HD
ENDBRANCH   1  19
TORSDOF 2
ENDMDL
