MODEL 1
REMARK VINA RESULT: -8.671839316      0.000      0.000
REMARK  5 active torsions:
REMARK  status: ('A' for Active; 'I' for Inactive)
REMARK    1  A    between atoms: C1_2  and  N1_3 
REMARK    2  A    between atoms: C1_2  and  N3_15 
REMARK    3  A    between atoms: N1_3  and  C2_5 
REMARK    4  A    between atoms: N3_15  and  C9_17 
REMARK    5  A    between atoms: C10_20  and  C11_21 
ROOT
HETATM    1  N3  UNL     1      11.454 -22.311  37.284  1.00  0.00    -0.313 N 
ATOM      2  H3  UNL     1      11.327 -21.881  36.368  1.00  0.00     0.170 HD
ENDROOT
BRANCH   1   3
HETATM    3  C1  UNL     1      12.427 -21.812  38.198  1.00  0.00     0.179 C 
HETATM    4  S1  UNL     1      13.987 -21.828  37.724  1.00  0.00    -0.040 SA
BRANCH   3   5
HETATM    5  N1  UNL     1      12.116 -21.305  39.487  1.00  0.00    -0.319 N 
ATOM      6  H1  UNL     1      11.931 -21.972  40.236  1.00  0.00     0.169 HD
BRANCH   5   7
HETATM    7  C2  UNL     1      12.056 -20.058  39.759  1.00  0.00     0.108 A 
HETATM    8  C3  UNL     1      11.660 -19.157  38.783  1.00  0.00     0.068 A 
HETATM    9  C4  UNL     1      11.588 -17.778  39.066  1.00  0.00     0.020 A 
HETATM   10  S2  UNL     1      11.161 -16.387  38.173  1.00  0.00    -0.101 SA
HETATM   11  C7  UNL     1      11.899 -17.267  40.298  1.00  0.00    -0.003 A 
HETATM   12  C5  UNL     1      11.388 -15.204  39.380  1.00  0.00     0.051 A 
HETATM   13  C6  UNL     1      11.797 -15.941  40.459  1.00  0.00     0.021 A 
HETATM   14  C8  UNL     1      12.296 -18.231  41.251  1.00  0.00     0.102 A 
HETATM   15  N2  UNL     1      12.350 -19.516  40.943  1.00  0.00    -0.351 N 
ATOM     16  H2  UNL     1      12.644 -20.155  41.681  1.00  0.00     0.166 HD
ENDBRANCH   5   7
ENDBRANCH   3   5
ENDBRANCH   1   3
BRANCH   1  17
HETATM   17  C9  UNL     1      10.721 -23.346  37.653  1.00  0.00     0.151 A 
HETATM   18  N4  UNL     1       9.408 -23.372  37.841  1.00  0.00    -0.335 N 
HETATM   19  C10 UNL     1       8.847 -24.496  38.210  1.00  0.00     0.051 A 
ATOM     20  H4  UNL     1       8.847 -22.533  37.700  1.00  0.00     0.168 HD
HETATM   21  C16 UNL     1       9.665 -25.583  38.380  1.00  0.00     0.083 A 
HETATM   22  S3  UNL     1      11.201 -24.941  38.003  1.00  0.00    -0.063 SA
BRANCH  19  23
HETATM   23  C11 UNL     1       7.376 -24.619  38.444  1.00  0.00    -0.006 A 
HETATM   24  C12 UNL     1       6.484 -24.335  37.444  1.00  0.00     0.030 A 
HETATM   25  C13 UNL     1       5.121 -24.431  37.606  1.00  0.00     0.088 A 
HETATM   26  N5  UNL     1       4.641 -24.821  38.793  1.00  0.00    -0.375 N 
HETATM   27  C14 UNL     1       5.487 -25.106  39.790  1.00  0.00     0.088 A 
ATOM     28  H5  UNL     1       3.635 -24.901  38.937  1.00  0.00     0.164 HD
HETATM   29  C15 UNL     1       6.860 -25.017  39.657  1.00  0.00     0.030 A 
ENDBRANCH  19  23
ENDBRANCH   1  17
TORSDOF 5
ENDMDL
MODEL 2
REMARK VINA RESULT: -8.357436734      1.853      2.080
REMARK  5 active torsions:
REMARK  status: ('A' for Active; 'I' for Inactive)
REMARK    1  A    between atoms: C1_2  and  N1_3 
REMARK    2  A    between atoms: C1_2  and  N3_15 
REMARK    3  A    between atoms: N1_3  and  C2_5 
REMARK    4  A    between atoms: N3_15  and  C9_17 
REMARK    5  A    between atoms: C10_20  and  C11_21 
ROOT
HETATM    1  N3  UNL     1      11.957 -22.462  36.540  1.00  0.00    -0.313 N 
ATOM      2  H3  UNL     1      11.934 -21.818  35.749  1.00  0.00     0.170 HD
ENDROOT
BRANCH   1   3
HETATM    3  C1  UNL     1      12.539 -22.074  37.781  1.00  0.00     0.179 C 
HETATM    4  S1  UNL     1      14.158 -22.191  37.925  1.00  0.00    -0.040 SA
BRANCH   3   5
HETATM    5  N1  UNL     1      11.793 -21.595  38.890  1.00  0.00    -0.319 N 
ATOM      6  H1  UNL     1      11.154 -22.239  39.357  1.00  0.00     0.169 HD
BRANCH   5   7
HETATM    7  C2  UNL     1      11.880 -20.401  39.336  1.00  0.00     0.108 A 
HETATM    8  C3  UNL     1      11.540 -19.333  38.521  1.00  0.00     0.068 A 
HETATM    9  C4  UNL     1      11.630 -18.009  38.996  1.00  0.00     0.020 A 
HETATM   10  S2  UNL     1      11.316 -16.468  38.332  1.00  0.00    -0.101 SA
HETATM   11  C7  UNL     1      12.051 -17.715  40.266  1.00  0.00    -0.003 A 
HETATM   12  C5  UNL     1      11.724 -15.501  39.676  1.00  0.00     0.051 A 
HETATM   13  C6  UNL     1      12.100 -16.423  40.616  1.00  0.00     0.021 A 
HETATM   14  C8  UNL     1      12.384 -18.842  41.050  1.00  0.00     0.102 A 
HETATM   15  N2  UNL     1      12.285 -20.068  40.564  1.00  0.00    -0.351 N 
ATOM     16  H2  UNL     1      12.541 -20.833  41.187  1.00  0.00     0.166 HD
ENDBRANCH   5   7
ENDBRANCH   3   5
ENDBRANCH   1   3
BRANCH   1  17
HETATM   17  C9  UNL     1      11.447 -23.676  36.439  1.00  0.00     0.151 A 
HETATM   18  N4  UNL     1      10.176 -23.997  36.234  1.00  0.00    -0.335 N 
HETATM   19  C10 UNL     1       9.850 -25.263  36.163  1.00  0.00     0.051 A 
ATOM     20  H4  UNL     1       9.467 -23.272  36.135  1.00  0.00     0.168 HD
HETATM   21  C16 UNL     1      10.857 -26.183  36.305  1.00  0.00     0.083 A 
HETATM   22  S3  UNL     1      12.225 -25.187  36.537  1.00  0.00    -0.063 SA
BRANCH  19  23
HETATM   23  C11 UNL     1       8.445 -25.718  35.934  1.00  0.00    -0.006 A 
HETATM   24  C12 UNL     1       7.403 -24.832  36.011  1.00  0.00     0.030 A 
HETATM   25  C13 UNL     1       6.092 -25.198  35.810  1.00  0.00     0.088 A 
HETATM   26  N5  UNL     1       5.818 -26.476  35.526  1.00  0.00    -0.375 N 
HETATM   27  C14 UNL     1       6.814 -27.367  35.444  1.00  0.00     0.088 A 
ATOM     28  H5  UNL     1       4.854 -26.771  35.371  1.00  0.00     0.164 HD
HETATM   29  C15 UNL     1       8.140 -27.028  35.641  1.00  0.00     0.030 A 
ENDBRANCH  19  23
ENDBRANCH   1  17
TORSDOF 5
ENDMDL
MODEL 3
REMARK VINA RESULT: -8.332342164      1.376      1.874
REMARK  5 active torsions:
REMARK  status: ('A' for Active; 'I' for Inactive)
REMARK    1  A    between atoms: C1_2  and  N1_3 
REMARK    2  A    between atoms: C1_2  and  N3_15 
REMARK    3  A    between atoms: N1_3  and  C2_5 
REMARK    4  A    between atoms: N3_15  and  C9_17 
REMARK    5  A    between atoms: C10_20  and  C11_21 
ROOT
HETATM    1  N3  UNL     1      11.829 -22.333  36.730  1.00  0.00    -0.313 N 
ATOM      2  H3  UNL     1      11.663 -21.686  35.960  1.00  0.00     0.170 HD
ENDROOT
BRANCH   1   3
HETATM    3  C1  UNL     1      12.601 -21.939  37.862  1.00  0.00     0.179 C 
HETATM    4  S1  UNL     1      14.224 -21.985  37.723  1.00  0.00    -0.040 SA
BRANCH   3   5
HETATM    5  N1  UNL     1      12.038 -21.513  39.094  1.00  0.00    -0.319 N 
ATOM      6  H1  UNL     1      11.618 -22.217  39.702  1.00  0.00     0.169 HD
BRANCH   5   7
HETATM    7  C2  UNL     1      12.031 -20.296  39.483  1.00  0.00     0.108 A 
HETATM    8  C3  UNL     1      11.651 -19.293  38.606  1.00  0.00     0.068 A 
HETATM    9  C4  UNL     1      11.638 -17.946  39.018  1.00  0.00     0.020 A 
HETATM   10  S2  UNL     1      11.246 -16.462  38.269  1.00  0.00    -0.101 SA
HETATM   11  C7  UNL     1      11.993 -17.564  40.285  1.00  0.00    -0.003 A 
HETATM   12  C5  UNL     1      11.543 -15.407  39.576  1.00  0.00     0.051 A 
HETATM   13  C6  UNL     1      11.945 -16.257  40.572  1.00  0.00     0.021 A 
HETATM   14  C8  UNL     1      12.371 -18.629  41.134  1.00  0.00     0.102 A 
HETATM   15  N2  UNL     1      12.369 -19.879  40.705  1.00  0.00    -0.351 N 
ATOM     16  H2  UNL     1      12.653 -20.596  41.374  1.00  0.00     0.166 HD
ENDBRANCH   5   7
ENDBRANCH   3   5
ENDBRANCH   1   3
BRANCH   1  17
HETATM   17  C9  UNL     1      11.336 -23.558  36.704  1.00  0.00     0.151 A 
HETATM   18  N4  UNL     1      10.420 -24.070  37.515  1.00  0.00    -0.335 N 
HETATM   19  C10 UNL     1      10.048 -25.314  37.340  1.00  0.00     0.051 A 
ATOM     20  H4  UNL     1      10.012 -23.507  38.261  1.00  0.00     0.168 HD
HETATM   21  C16 UNL     1      10.638 -26.010  36.317  1.00  0.00     0.083 A 
HETATM   22  S3  UNL     1      11.700 -24.848  35.655  1.00  0.00    -0.063 SA
BRANCH  19  23
HETATM   23  C11 UNL     1       9.023 -25.974  38.204  1.00  0.00    -0.006 A 
HETATM   24  C12 UNL     1       9.139 -27.297  38.539  1.00  0.00     0.030 A 
HETATM   25  C13 UNL     1       8.225 -27.953  39.330  1.00  0.00     0.088 A 
HETATM   26  N5  UNL     1       7.174 -27.271  39.797  1.00  0.00    -0.375 N 
HETATM   27  C14 UNL     1       7.031 -25.976  39.489  1.00  0.00     0.088 A 
ATOM     28  H5  UNL     1       6.483 -27.735  40.387  1.00  0.00     0.164 HD
HETATM   29  C15 UNL     1       7.933 -25.292  38.696  1.00  0.00     0.030 A 
ENDBRANCH  19  23
ENDBRANCH   1  17
TORSDOF 5
ENDMDL
MODEL 4
REMARK VINA RESULT: -8.331145132      1.060      1.350
REMARK  5 active torsions:
REMARK  status: ('A' for Active; 'I' for Inactive)
REMARK    1  A    between atoms: C1_2  and  N1_3 
REMARK    2  A    between atoms: C1_2  and  N3_15 
REMARK    3  A    between atoms: N1_3  and  C2_5 
REMARK    4  A    between atoms: N3_15  and  C9_17 
REMARK    5  A    between atoms: C10_20  and  C11_21 
ROOT
HETATM    1  N3  UNL     1      11.739 -22.285  37.121  1.00  0.00    -0.313 N 
ATOM      2  H3  UNL     1      11.601 -21.892  36.190  1.00  0.00     0.170 HD
ENDROOT
BRANCH   1   3
HETATM    3  C1  UNL     1      12.733 -21.759  37.996  1.00  0.00     0.179 C 
HETATM    4  S1  UNL     1      14.295 -21.990  37.592  1.00  0.00    -0.040 SA
BRANCH   3   5
HETATM    5  N1  UNL     1      12.440 -21.050  39.191  1.00  0.00    -0.319 N 
ATOM      6  H1  UNL     1      12.448 -21.565  40.072  1.00  0.00     0.169 HD
BRANCH   5   7
HETATM    7  C2  UNL     1      12.169 -19.803  39.223  1.00  0.00     0.108 A 
HETATM    8  C3  UNL     1      12.229 -19.112  40.423  1.00  0.00     0.068 A 
HETATM    9  C4  UNL     1      11.933 -17.735  40.475  1.00  0.00     0.020 A 
HETATM   10  S2  UNL     1      11.892 -16.559  41.712  1.00  0.00    -0.101 SA
HETATM   11  C7  UNL     1      11.577 -17.021  39.362  1.00  0.00    -0.003 A 
HETATM   12  C5  UNL     1      11.427 -15.203  40.788  1.00  0.00     0.051 A 
HETATM   13  C6  UNL     1      11.316 -15.717  39.523  1.00  0.00     0.021 A 
HETATM   14  C8  UNL     1      11.532 -17.776  38.168  1.00  0.00     0.102 A 
HETATM   15  N2  UNL     1      11.818 -19.067  38.165  1.00  0.00    -0.351 N 
ATOM     16  H2  UNL     1      11.766 -19.548  37.267  1.00  0.00     0.166 HD
ENDBRANCH   5   7
ENDBRANCH   3   5
ENDBRANCH   1   3
BRANCH   1  17
HETATM   17  C9  UNL     1      11.002 -23.295  37.546  1.00  0.00     0.151 A 
HETATM   18  N4  UNL     1       9.694 -23.294  37.771  1.00  0.00    -0.335 N 
HETATM   19  C10 UNL     1       9.127 -24.396  38.194  1.00  0.00     0.051 A 
ATOM     20  H4  UNL     1       9.142 -22.451  37.617  1.00  0.00     0.168 HD
HETATM   21  C16 UNL     1       9.933 -25.490  38.378  1.00  0.00     0.083 A 
HETATM   22  S3  UNL     1      11.467 -24.885  37.936  1.00  0.00    -0.063 SA
BRANCH  19  23
HETATM   23  C11 UNL     1       7.662 -24.487  38.473  1.00  0.00    -0.006 A 
HETATM   24  C12 UNL     1       6.758 -23.823  37.686  1.00  0.00     0.030 A 
HETATM   25  C13 UNL     1       5.400 -23.873  37.899  1.00  0.00     0.088 A 
HETATM   26  N5  UNL     1       4.936 -24.603  38.920  1.00  0.00    -0.375 N 
HETATM   27  C14 UNL     1       5.793 -25.264  39.708  1.00  0.00     0.088 A 
ATOM     28  H5  UNL     1       3.933 -24.656  39.097  1.00  0.00     0.164 HD
HETATM   29  C15 UNL     1       7.162 -25.231  39.518  1.00  0.00     0.030 A 
ENDBRANCH  19  23
ENDBRANCH   1  17
TORSDOF 5
ENDMDL
MODEL 5
REMARK VINA RESULT: -8.169109590      1.712      1.975
REMARK  5 active torsions:
REMARK  status: ('A' for Active; 'I' for Inactive)
REMARK    1  A    between atoms: C1_2  and  N1_3 
REMARK    2  A    between atoms: C1_2  and  N3_15 
REMARK    3  A    between atoms: N1_3  and  C2_5 
REMARK    4  A    between atoms: N3_15  and  C9_17 
REMARK    5  A    between atoms: C10_20  and  C11_21 
ROOT
HETATM    1  N3  UNL     1      10.298 -22.218  38.162  1.00  0.00    -0.313 N 
ATOM      2  H3  UNL     1       9.558 -21.559  38.403  1.00  0.00     0.170 HD
ENDROOT
BRANCH   1   3
HETATM    3  C1  UNL     1      11.664 -21.814  38.161  1.00  0.00     0.179 C 
HETATM    4  S1  UNL     1      12.514 -22.025  36.786  1.00  0.00    -0.040 SA
BRANCH   3   5
HETATM    5  N1  UNL     1      12.322 -21.242  39.282  1.00  0.00    -0.319 N 
ATOM      6  H1  UNL     1      12.953 -21.833  39.824  1.00  0.00     0.169 HD
BRANCH   5   7
HETATM    7  C2  UNL     1      12.166 -20.028  39.648  1.00  0.00     0.108 A 
HETATM    8  C3  UNL     1      11.791 -19.070  38.720  1.00  0.00     0.068 A 
HETATM    9  C4  UNL     1      11.613 -17.727  39.106  1.00  0.00     0.020 A 
HETATM   10  S2  UNL     1      11.171 -16.290  38.296  1.00  0.00    -0.101 SA
HETATM   11  C7  UNL     1      11.799 -17.306  40.396  1.00  0.00    -0.003 A 
HETATM   12  C5  UNL     1      11.234 -15.203  39.609  1.00  0.00     0.051 A 
HETATM   13  C6  UNL     1      11.605 -16.006  40.655  1.00  0.00     0.021 A 
HETATM   14  C8  UNL     1      12.181 -18.325  41.297  1.00  0.00     0.102 A 
HETATM   15  N2  UNL     1      12.336 -19.574  40.891  1.00  0.00    -0.351 N 
ATOM     16  H2  UNL     1      12.612 -20.257  41.597  1.00  0.00     0.166 HD
ENDBRANCH   5   7
ENDBRANCH   3   5
ENDBRANCH   1   3
BRANCH   1  17
HETATM   17  C9  UNL     1      10.014 -23.468  37.841  1.00  0.00     0.151 A 
HETATM   18  N4  UNL     1       8.937 -23.907  37.204  1.00  0.00    -0.335 N 
HETATM   19  C10 UNL     1       8.823 -25.190  36.971  1.00  0.00     0.051 A 
ATOM     20  H4  UNL     1       8.212 -23.258  36.901  1.00  0.00     0.168 HD
HETATM   21  C16 UNL     1       9.837 -26.003  37.407  1.00  0.00     0.083 A 
HETATM   22  S3  UNL     1      10.907 -24.887  38.132  1.00  0.00    -0.063 SA
BRANCH  19  23
HETATM   23  C11 UNL     1       7.645 -25.775  36.260  1.00  0.00    -0.006 A 
HETATM   24  C12 UNL     1       6.489 -25.053  36.113  1.00  0.00     0.030 A 
HETATM   25  C13 UNL     1       5.378 -25.543  35.468  1.00  0.00     0.088 A 
HETATM   26  N5  UNL     1       5.423 -26.779  34.959  1.00  0.00    -0.375 N 
HETATM   27  C14 UNL     1       6.537 -27.510  35.085  1.00  0.00     0.088 A 
ATOM     28  H5  UNL     1       4.611 -27.164  34.475  1.00  0.00     0.164 HD
HETATM   29  C15 UNL     1       7.669 -27.044  35.728  1.00  0.00     0.030 A 
ENDBRANCH  19  23
ENDBRANCH   1  17
TORSDOF 5
ENDMDL
