MODEL 1
REMARK VINA RESULT: -10.520773703      0.000      0.000
REMARK  3 active torsions:
REMARK  status: ('A' for Active; 'I' for Inactive)
REMARK    1  A    between atoms: C4_7  and  N3_8 
REMARK       I    between atoms: N3_8  and  C5_10 
REMARK       I    between atoms: C5_10  and  N4_12 
REMARK    2  A    between atoms: N4_12  and  C6_14 
REMARK    3  A    between atoms: C14_25  and  C15_26 
ROOT
HETATM    1  N1  UNL     1       7.650 -27.010  35.276  1.00  0.00    -0.191 NA
HETATM    2  C1  UNL     1       8.199 -26.169  35.887  1.00  0.00     0.101 C 
HETATM    3  C2  UNL     1       8.893 -25.161  36.626  1.00  0.00     0.071 A 
HETATM    4  C3  UNL     1      10.132 -24.668  36.197  1.00  0.00     0.113 A 
HETATM    5  N2  UNL     1      10.777 -23.730  36.910  1.00  0.00    -0.351 N 
ATOM      6  H2  UNL     1      11.677 -23.398  36.562  1.00  0.00     0.166 HD
HETATM    7  C4  UNL     1      10.310 -23.201  38.054  1.00  0.00     0.109 A 
HETATM    8  C13 UNL     1       9.093 -23.671  38.497  1.00  0.00     0.062 A 
HETATM    9  C14 UNL     1       8.392 -24.639  37.791  1.00  0.00     0.000 A 
ENDROOT
BRANCH   9  10
HETATM   10  C15 UNL     1       7.067 -25.103  38.310  1.00  0.00    -0.017 A 
HETATM   11  C16 UNL     1       6.840 -26.309  38.857  1.00  0.00     0.020 A 
HETATM   12  C17 UNL     1       5.571 -26.580  39.293  1.00  0.00     0.050 A 
HETATM   13  S2  UNL     1       4.730 -25.147  38.927  1.00  0.00    -0.113 SA
HETATM   14  C18 UNL     1       5.998 -24.245  38.235  1.00  0.00     0.061 A 
ENDBRANCH   9  10
BRANCH   7  15
HETATM   15  N3  UNL     1      10.986 -22.294  38.698  1.00  0.00    -0.294 N 
HETATM   16  C5  UNL     1      12.263 -21.865  38.324  1.00  0.00     0.327 C 
HETATM   17  O1  UNL     1      13.333 -22.511  38.536  1.00  0.00    -0.247 OA
HETATM   18  N4  UNL     1      12.398 -20.621  37.660  1.00  0.00    -0.288 N 
ATOM     19  H4  UNL     1      12.648 -20.568  36.673  1.00  0.00     0.172 HD
ATOM     20  H3  UNL     1      10.559 -21.872  39.522  1.00  0.00     0.172 HD
BRANCH  18  21
HETATM   21  C6  UNL     1      12.187 -19.541  38.371  1.00  0.00     0.153 A 
HETATM   22  N5  UNL     1      11.797 -18.330  37.987  1.00  0.00    -0.335 N 
HETATM   23  C7  UNL     1      11.653 -17.393  38.903  1.00  0.00     0.051 A 
ATOM     24  H5  UNL     1      11.612 -18.130  37.003  1.00  0.00     0.168 HD
HETATM   25  C8  UNL     1      11.247 -16.056  38.678  1.00  0.00     0.031 A 
HETATM   26  C12 UNL     1      11.917 -17.731  40.199  1.00  0.00     0.035 A 
HETATM   27  C9  UNL     1      11.144 -15.203  39.725  1.00  0.00     0.002 A 
HETATM   28  C10 UNL     1      11.399 -15.505  41.028  1.00  0.00     0.002 A 
HETATM   29  C11 UNL     1      11.800 -16.822  41.266  1.00  0.00     0.021 A 
HETATM   30  S1  UNL     1      12.361 -19.375  40.061  1.00  0.00    -0.052 SA
ENDBRANCH  18  21
ENDBRANCH   7  15
TORSDOF 3
ENDMDL
MODEL 2
REMARK VINA RESULT: -9.853451278      0.764      1.175
REMARK  3 active torsions:
REMARK  status: ('A' for Active; 'I' for Inactive)
REMARK    1  A    between atoms: C4_7  and  N3_8 
REMARK       I    between atoms: N3_8  and  C5_10 
REMARK       I    between atoms: C5_10  and  N4_12 
REMARK    2  A    between atoms: N4_12  and  C6_14 
REMARK    3  A    between atoms: C14_25  and  C15_26 
ROOT
HETATM    1  N1  UNL     1       7.968 -27.075  35.327  1.00  0.00    -0.191 NA
HETATM    2  C1  UNL     1       8.464 -26.189  35.919  1.00  0.00     0.101 C 
HETATM    3  C2  UNL     1       9.093 -25.125  36.638  1.00  0.00     0.071 A 
HETATM    4  C3  UNL     1      10.339 -24.619  36.244  1.00  0.00     0.113 A 
HETATM    5  N2  UNL     1      10.922 -23.627  36.938  1.00  0.00    -0.351 N 
ATOM      6  H2  UNL     1      11.829 -23.288  36.616  1.00  0.00     0.166 HD
HETATM    7  C4  UNL     1      10.385 -23.055  38.028  1.00  0.00     0.109 A 
HETATM    8  C13 UNL     1       9.160 -23.536  38.436  1.00  0.00     0.062 A 
HETATM    9  C14 UNL     1       8.521 -24.559  37.748  1.00  0.00     0.000 A 
ENDROOT
BRANCH   9  10
HETATM   10  C15 UNL     1       7.184 -25.034  38.226  1.00  0.00    -0.017 A 
HETATM   11  C16 UNL     1       6.978 -26.167  38.920  1.00  0.00     0.020 A 
HETATM   12  C17 UNL     1       5.695 -26.458  39.292  1.00  0.00     0.050 A 
HETATM   13  S2  UNL     1       4.810 -25.147  38.664  1.00  0.00    -0.113 SA
HETATM   14  C18 UNL     1       6.081 -24.267  37.949  1.00  0.00     0.061 A 
ENDBRANCH   9  10
BRANCH   7  15
HETATM   15  N3  UNL     1      11.004 -22.098  38.656  1.00  0.00    -0.294 N 
HETATM   16  C5  UNL     1      12.279 -21.639  38.312  1.00  0.00     0.327 C 
HETATM   17  O1  UNL     1      13.362 -22.237  38.592  1.00  0.00    -0.247 OA
HETATM   18  N4  UNL     1      12.398 -20.421  37.598  1.00  0.00    -0.288 N 
ATOM     19  H4  UNL     1      12.685 -20.403  36.620  1.00  0.00     0.172 HD
ATOM     20  H3  UNL     1      10.531 -21.655  39.444  1.00  0.00     0.172 HD
BRANCH  18  21
HETATM   21  C6  UNL     1      12.123 -19.320  38.252  1.00  0.00     0.153 A 
HETATM   22  N5  UNL     1      12.343 -19.006  39.524  1.00  0.00    -0.335 N 
HETATM   23  C7  UNL     1      11.971 -17.817  39.955  1.00  0.00     0.051 A 
ATOM     24  H5  UNL     1      12.791 -19.672  40.155  1.00  0.00     0.168 HD
HETATM   25  C8  UNL     1      12.125 -17.315  41.268  1.00  0.00     0.031 A 
HETATM   26  C12 UNL     1      11.377 -16.978  39.056  1.00  0.00     0.035 A 
HETATM   27  C9  UNL     1      11.690 -16.066  41.563  1.00  0.00     0.002 A 
HETATM   28  C10 UNL     1      11.095 -15.203  40.694  1.00  0.00     0.002 A 
HETATM   29  C11 UNL     1      10.936 -15.685  39.393  1.00  0.00     0.021 A 
HETATM   30  S1  UNL     1      11.373 -17.918  37.630  1.00  0.00    -0.052 SA
ENDBRANCH  18  21
ENDBRANCH   7  15
TORSDOF 3
ENDMDL
MODEL 3
REMARK VINA RESULT: -8.338151827      5.062      8.024
REMARK  3 active torsions:
REMARK  status: ('A' for Active; 'I' for Inactive)
REMARK    1  A    between atoms: C4_7  and  N3_8 
REMARK       I    between atoms: N3_8  and  C5_10 
REMARK       I    between atoms: C5_10  and  N4_12 
REMARK    2  A    between atoms: N4_12  and  C6_14 
REMARK    3  A    between atoms: C14_25  and  C15_26 
ROOT
HETATM    1  N1  UNL     1       0.721 -31.442  35.321  1.00  0.00    -0.191 NA
HETATM    2  C1  UNL     1       1.435 -30.592  35.708  1.00  0.00     0.101 C 
HETATM    3  C2  UNL     1       2.311 -29.553  36.152  1.00  0.00     0.071 A 
HETATM    4  C3  UNL     1       2.370 -28.320  35.489  1.00  0.00     0.113 A 
HETATM    5  N2  UNL     1       3.208 -27.358  35.911  1.00  0.00    -0.351 N 
ATOM      6  H2  UNL     1       3.219 -26.475  35.400  1.00  0.00     0.166 HD
HETATM    7  C4  UNL     1       4.032 -27.487  36.965  1.00  0.00     0.109 A 
HETATM    8  C13 UNL     1       3.992 -28.692  37.633  1.00  0.00     0.062 A 
HETATM    9  C14 UNL     1       3.141 -29.712  37.232  1.00  0.00     0.000 A 
ENDROOT
BRANCH   9  10
HETATM   10  C15 UNL     1       3.128 -30.996  38.002  1.00  0.00    -0.017 A 
HETATM   11  C16 UNL     1       2.061 -31.482  38.659  1.00  0.00     0.020 A 
HETATM   12  C17 UNL     1       2.208 -32.677  39.310  1.00  0.00     0.050 A 
HETATM   13  S2  UNL     1       3.827 -33.088  38.990  1.00  0.00    -0.113 SA
HETATM   14  C18 UNL     1       4.277 -31.745  38.044  1.00  0.00     0.061 A 
ENDBRANCH   9  10
BRANCH   7  15
HETATM   15  N3  UNL     1       4.820 -26.516  37.322  1.00  0.00    -0.294 N 
HETATM   16  C5  UNL     1       4.950 -26.063  38.638  1.00  0.00     0.327 C 
HETATM   17  O1  UNL     1       4.112 -25.321  39.233  1.00  0.00    -0.247 OA
HETATM   18  N4  UNL     1       6.091 -26.449  39.384  1.00  0.00    -0.288 N 
ATOM     19  H4  UNL     1       6.025 -27.110  40.158  1.00  0.00     0.172 HD
ATOM     20  H3  UNL     1       5.376 -26.058  36.600  1.00  0.00     0.172 HD
BRANCH  18  21
HETATM   21  C6  UNL     1       7.237 -25.917  39.035  1.00  0.00     0.153 A 
HETATM   22  N5  UNL     1       7.544 -24.651  38.774  1.00  0.00    -0.335 N 
HETATM   23  C7  UNL     1       8.786 -24.359  38.438  1.00  0.00     0.051 A 
ATOM     24  H5  UNL     1       6.835 -23.920  38.833  1.00  0.00     0.168 HD
HETATM   25  C8  UNL     1       9.291 -23.075  38.128  1.00  0.00     0.031 A 
HETATM   26  C12 UNL     1       9.682 -25.388  38.379  1.00  0.00     0.035 A 
HETATM   27  C9  UNL     1      10.597 -22.931  37.799  1.00  0.00     0.002 A 
HETATM   28  C10 UNL     1      11.517 -23.932  37.730  1.00  0.00     0.002 A 
HETATM   29  C11 UNL     1      11.033 -25.206  38.034  1.00  0.00     0.021 A 
HETATM   30  S1  UNL     1       8.719 -26.732  38.806  1.00  0.00    -0.052 SA
ENDBRANCH  18  21
ENDBRANCH   7  15
TORSDOF 3
ENDMDL
MODEL 4
REMARK VINA RESULT: -8.311087659      4.730     10.903
REMARK  3 active torsions:
REMARK  status: ('A' for Active; 'I' for Inactive)
REMARK    1  A    between atoms: C4_7  and  N3_8 
REMARK       I    between atoms: N3_8  and  C5_10 
REMARK       I    between atoms: C5_10  and  N4_12 
REMARK    2  A    between atoms: N4_12  and  C6_14 
REMARK    3  A    between atoms: C14_25  and  C15_26 
ROOT
HETATM    1  N1  UNL     1      10.361 -22.112  38.276  1.00  0.00    -0.191 NA
HETATM    2  C1  UNL     1       9.473 -22.853  38.069  1.00  0.00     0.101 C 
HETATM    3  C2  UNL     1       8.383 -23.751  37.845  1.00  0.00     0.071 A 
HETATM    4  C3  UNL     1       7.098 -23.469  38.327  1.00  0.00     0.113 A 
HETATM    5  N2  UNL     1       6.087 -24.329  38.118  1.00  0.00    -0.351 N 
ATOM      6  H2  UNL     1       5.168 -24.085  38.486  1.00  0.00     0.166 HD
HETATM    7  C4  UNL     1       6.213 -25.492  37.456  1.00  0.00     0.109 A 
HETATM    8  C13 UNL     1       7.469 -25.792  36.972  1.00  0.00     0.062 A 
HETATM    9  C14 UNL     1       8.540 -24.931  37.164  1.00  0.00     0.000 A 
ENDROOT
BRANCH   9  10
HETATM   10  C15 UNL     1       9.880 -25.299  36.605  1.00  0.00    -0.017 A 
HETATM   11  C16 UNL     1      10.533 -24.599  35.662  1.00  0.00     0.020 A 
HETATM   12  C17 UNL     1      11.756 -25.062  35.262  1.00  0.00     0.050 A 
HETATM   13  S2  UNL     1      11.962 -26.460  36.209  1.00  0.00    -0.113 SA
HETATM   14  C18 UNL     1      10.502 -26.424  37.085  1.00  0.00     0.061 A 
ENDBRANCH   9  10
BRANCH   7  15
HETATM   15  N3  UNL     1       5.193 -26.282  37.289  1.00  0.00    -0.294 N 
HETATM   16  C5  UNL     1       4.874 -26.893  36.072  1.00  0.00     0.327 C 
HETATM   17  O1  UNL     1       4.315 -26.310  35.095  1.00  0.00    -0.247 OA
HETATM   18  N4  UNL     1       5.188 -28.263  35.894  1.00  0.00    -0.288 N 
ATOM     19  H4  UNL     1       5.933 -28.562  35.264  1.00  0.00     0.172 HD
ATOM     20  H3  UNL     1       4.591 -26.466  38.091  1.00  0.00     0.172 HD
BRANCH  18  21
HETATM   21  C6  UNL     1       4.479 -29.129  36.573  1.00  0.00     0.153 A 
HETATM   22  N5  UNL     1       4.871 -30.184  37.280  1.00  0.00    -0.335 N 
HETATM   23  C7  UNL     1       3.955 -30.915  37.885  1.00  0.00     0.051 A 
ATOM     24  H5  UNL     1       5.860 -30.423  37.354  1.00  0.00     0.168 HD
HETATM   25  C8  UNL     1       4.186 -32.065  38.675  1.00  0.00     0.031 A 
HETATM   26  C12 UNL     1       2.650 -30.536  37.742  1.00  0.00     0.035 A 
HETATM   27  C9  UNL     1       3.138 -32.715  39.235  1.00  0.00     0.002 A 
HETATM   28  C10 UNL     1       1.827 -32.367  39.114  1.00  0.00     0.002 A 
HETATM   29  C11 UNL     1       1.583 -31.233  38.337  1.00  0.00     0.021 A 
HETATM   30  S1  UNL     1       2.781 -29.151  36.752  1.00  0.00    -0.052 SA
ENDBRANCH  18  21
ENDBRANCH   7  15
TORSDOF 3
ENDMDL
MODEL 5
REMARK VINA RESULT: -8.191805952      4.808      6.340
REMARK  3 active torsions:
REMARK  status: ('A' for Active; 'I' for Inactive)
REMARK    1  A    between atoms: C4_7  and  N3_8 
REMARK       I    between atoms: N3_8  and  C5_10 
REMARK       I    between atoms: C5_10  and  N4_12 
REMARK    2  A    between atoms: N4_12  and  C6_14 
REMARK    3  A    between atoms: C14_25  and  C15_26 
ROOT
HETATM    1  N1  UNL     1       1.651 -27.462  37.807  1.00  0.00    -0.191 NA
HETATM    2  C1  UNL     1       2.797 -27.237  37.939  1.00  0.00     0.101 C 
HETATM    3  C2  UNL     1       4.187 -26.939  38.082  1.00  0.00     0.071 A 
HETATM    4  C3  UNL     1       4.631 -25.628  38.305  1.00  0.00     0.113 A 
HETATM    5  N2  UNL     1       5.943 -25.363  38.426  1.00  0.00    -0.351 N 
ATOM      6  H2  UNL     1       6.222 -24.396  38.587  1.00  0.00     0.166 HD
HETATM    7  C4  UNL     1       6.908 -26.294  38.346  1.00  0.00     0.109 A 
HETATM    8  C13 UNL     1       6.497 -27.591  38.127  1.00  0.00     0.062 A 
HETATM    9  C14 UNL     1       5.152 -27.910  37.998  1.00  0.00     0.000 A 
ENDROOT
BRANCH   9  10
HETATM   10  C15 UNL     1       4.759 -29.337  37.775  1.00  0.00    -0.017 A 
HETATM   11  C16 UNL     1       4.959 -30.331  38.657  1.00  0.00     0.020 A 
HETATM   12  C17 UNL     1       4.533 -31.584  38.307  1.00  0.00     0.050 A 
HETATM   13  S2  UNL     1       3.868 -31.341  36.760  1.00  0.00    -0.113 SA
HETATM   14  C18 UNL     1       4.143 -29.669  36.595  1.00  0.00     0.061 A 
ENDBRANCH   9  10
BRANCH   7  15
HETATM   15  N3  UNL     1       8.163 -25.970  38.471  1.00  0.00    -0.294 N 
HETATM   16  C5  UNL     1       9.219 -26.871  38.304  1.00  0.00     0.327 C 
HETATM   17  O1  UNL     1       9.574 -27.736  39.161  1.00  0.00    -0.247 OA
HETATM   18  N4  UNL     1       9.961 -26.838  37.098  1.00  0.00    -0.288 N 
ATOM     19  H4  UNL     1       9.889 -27.583  36.406  1.00  0.00     0.172 HD
ATOM     20  H3  UNL     1       8.389 -25.004  38.704  1.00  0.00     0.172 HD
BRANCH  18  21
HETATM   21  C6  UNL     1      10.746 -25.805  36.912  1.00  0.00     0.153 A 
HETATM   22  N5  UNL     1      11.870 -25.466  37.534  1.00  0.00    -0.335 N 
HETATM   23  C7  UNL     1      12.489 -24.363  37.162  1.00  0.00     0.051 A 
ATOM     24  H5  UNL     1      12.246 -26.047  38.283  1.00  0.00     0.168 HD
HETATM   25  C8  UNL     1      13.689 -23.850  37.708  1.00  0.00     0.031 A 
HETATM   26  C12 UNL     1      11.929 -23.634  36.152  1.00  0.00     0.035 A 
HETATM   27  C9  UNL     1      14.209 -22.699  37.219  1.00  0.00     0.002 A 
HETATM   28  C10 UNL     1      13.678 -21.947  36.216  1.00  0.00     0.002 A 
HETATM   29  C11 UNL     1      12.493 -22.441  35.666  1.00  0.00     0.021 A 
HETATM   30  S1  UNL     1      10.539 -24.552  35.772  1.00  0.00    -0.052 SA
ENDBRANCH  18  21
ENDBRANCH   7  15
TORSDOF 3
ENDMDL
