MODEL 1
REMARK VINA RESULT: -6.269894770      0.000      0.000
REMARK  8 active torsions:
REMARK  status: ('A' for Active; 'I' for Inactive)
REMARK    1  A    between atoms: C2_2  and  C3_3 
REMARK    2  A    between atoms: C3_3  and  N1_4 
REMARK    3  A    between atoms: C4_5  and  N2_6 
REMARK    4  A    between atoms: N2_6  and  N3_8 
REMARK    5  A    between atoms: N4_11  and  C5_12 
REMARK    6  A    between atoms: C5_12  and  C6_13 
REMARK       I    between atoms: C6_13  and  N5_15 
REMARK    7  A    between atoms: N5_15  and  N6_17 
REMARK    8  A    between atoms: C13_28  and  N8_29 
ROOT
HETATM    1  N1  UNL     1      39.544  39.064  33.527  1.00  0.00    -0.166 N 
HETATM    2  C4  UNL     1      38.783  38.328  34.411  1.00  0.00     0.705 A 
HETATM    3  N4  UNL     1      39.262  38.025  35.627  1.00  0.00    -0.136 N 
HETATM    4  C7  UNL     1      40.514  38.449  36.001  1.00  0.00     0.277 A 
HETATM    5  O2  UNL     1      40.900  38.138  37.141  1.00  0.00    -0.266 OA
HETATM    6  C8  UNL     1      41.279  39.171  35.159  1.00  0.00     0.085 A 
HETATM    7  C9  UNL     1      42.539  39.573  35.579  1.00  0.00    -0.018 A 
HETATM    8  C10 UNL     1      43.105  39.266  36.906  1.00  0.00     0.051 C 
HETATM    9  C11 UNL     1      43.272  40.312  34.648  1.00  0.00     0.095 A 
HETATM   10  C12 UNL     1      44.583  40.757  35.030  1.00  0.00     0.104 C 
HETATM   11  N7  UNL     1      45.651  41.125  35.357  1.00  0.00    -0.191 NA
HETATM   12  C13 UNL     1      42.768  40.611  33.410  1.00  0.00     0.122 A 
HETATM   13  N9  UNL     1      41.528  40.177  33.083  1.00  0.00    -0.326 N 
ATOM     14  H9  UNL     1      41.163  40.405  32.157  1.00  0.00     0.169 HD
HETATM   15  C14 UNL     1      40.755  39.463  33.912  1.00  0.00     0.141 A 
ENDROOT
BRANCH  12  16
HETATM   16  N8  UNL     1      43.451  41.298  32.546  1.00  0.00    -0.384 N 
ATOM     17  H82 UNL     1      44.465  41.352  32.638  1.00  0.00     0.157 HD
ATOM     18  H81 UNL     1      42.998  41.788  31.774  1.00  0.00     0.157 HD
ENDBRANCH  12  16
BRANCH   3  19
HETATM   19  C5  UNL     1      38.500  37.227  36.576  1.00  0.00     0.255 C 
BRANCH  19  20
HETATM   20  C6  UNL     1      39.012  35.837  36.605  1.00  0.00     0.254 C 
HETATM   21  O1  UNL     1      38.691  35.020  35.710  1.00  0.00    -0.270 OA
HETATM   22  N5  UNL     1      39.874  35.386  37.636  1.00  0.00    -0.275 N 
ATOM     23  H5  UNL     1      40.144  36.039  38.371  1.00  0.00     0.189 HD
BRANCH  22  24
HETATM   24  N6  UNL     1      40.366  34.080  37.680  1.00  0.00    -0.343 N 
ATOM     25  H62 UNL     1      39.784  33.367  38.120  1.00  0.00     0.176 HD
ATOM     26  H61 UNL     1      41.275  33.826  37.292  1.00  0.00     0.176 HD
ENDBRANCH  22  24
ENDBRANCH  19  20
ENDBRANCH   3  19
BRANCH   1  27
HETATM   27  C3  UNL     1      38.971  39.350  32.240  1.00  0.00     0.149 C 
BRANCH  27  28
HETATM   28  C2  UNL     1      39.411  38.379  31.173  1.00  0.00     0.016 C 
HETATM   29  C1  UNL     1      38.251  37.999  30.279  1.00  0.00     0.006 C 
ENDBRANCH  27  28
ENDBRANCH   1  27
BRANCH   2  30
HETATM   30  N2  UNL     1      37.659  38.002  34.000  1.00  0.00    -0.138 N 
ATOM     31  H2  UNL     1      37.112  38.849  33.846  1.00  0.00     0.205 HD
BRANCH  30  32
HETATM   32  N3  UNL     1      36.913  36.954  33.689  1.00  0.00    -0.331 N 
ATOM     33  H32 UNL     1      37.217  36.636  32.769  1.00  0.00     0.177 HD
ATOM     34  H31 UNL     1      36.155  36.364  34.034  1.00  0.00     0.177 HD
ENDBRANCH  30  32
ENDBRANCH   2  30
TORSDOF 8
ENDMDL
MODEL 2
REMARK VINA RESULT: -6.028478975      3.348      5.712
REMARK  8 active torsions:
REMARK  status: ('A' for Active; 'I' for Inactive)
REMARK    1  A    between atoms: C2_2  and  C3_3 
REMARK    2  A    between atoms: C3_3  and  N1_4 
REMARK    3  A    between atoms: C4_5  and  N2_6 
REMARK    4  A    between atoms: N2_6  and  N3_8 
REMARK    5  A    between atoms: N4_11  and  C5_12 
REMARK    6  A    between atoms: C5_12  and  C6_13 
REMARK       I    between atoms: C6_13  and  N5_15 
REMARK    7  A    between atoms: N5_15  and  N6_17 
REMARK    8  A    between atoms: C13_28  and  N8_29 
ROOT
HETATM    1  N1  UNL     1      38.122  39.785  33.341  1.00  0.00    -0.166 N 
HETATM    2  C4  UNL     1      38.414  41.109  33.598  1.00  0.00     0.705 A 
HETATM    3  N4  UNL     1      38.971  41.465  34.765  1.00  0.00    -0.136 N 
HETATM    4  C7  UNL     1      39.257  40.513  35.712  1.00  0.00     0.277 A 
HETATM    5  O2  UNL     1      39.775  40.906  36.772  1.00  0.00    -0.266 OA
HETATM    6  C8  UNL     1      38.985  39.213  35.489  1.00  0.00     0.085 A 
HETATM    7  C9  UNL     1      39.289  38.287  36.477  1.00  0.00    -0.018 A 
HETATM    8  C10 UNL     1      39.903  38.632  37.773  1.00  0.00     0.051 C 
HETATM    9  C11 UNL     1      38.972  36.961  36.172  1.00  0.00     0.095 A 
HETATM   10  C12 UNL     1      39.266  35.959  37.158  1.00  0.00     0.104 C 
HETATM   11  N7  UNL     1      39.521  35.146  37.967  1.00  0.00    -0.191 NA
HETATM   12  C13 UNL     1      38.402  36.615  34.975  1.00  0.00     0.122 A 
HETATM   13  N9  UNL     1      38.138  37.585  34.068  1.00  0.00    -0.326 N 
ATOM     14  H9  UNL     1      37.713  37.316  33.180  1.00  0.00     0.169 HD
HETATM   15  C14 UNL     1      38.409  38.881  34.275  1.00  0.00     0.141 A 
ENDROOT
BRANCH  12  16
HETATM   16  N8  UNL     1      38.107  35.383  34.693  1.00  0.00    -0.384 N 
ATOM     17  H82 UNL     1      37.955  34.719  35.452  1.00  0.00     0.157 HD
ATOM     18  H81 UNL     1      38.025  35.060  33.729  1.00  0.00     0.157 HD
ENDBRANCH  12  16
BRANCH   3  19
HETATM   19  C5  UNL     1      39.267  42.855  35.083  1.00  0.00     0.255 C 
BRANCH  19  20
HETATM   20  C6  UNL     1      38.057  43.530  35.609  1.00  0.00     0.254 C 
HETATM   21  O1  UNL     1      37.365  44.267  34.869  1.00  0.00    -0.270 OA
HETATM   22  N5  UNL     1      37.644  43.367  36.955  1.00  0.00    -0.275 N 
ATOM     23  H5  UNL     1      38.197  42.770  37.570  1.00  0.00     0.189 HD
BRANCH  22  24
HETATM   24  N6  UNL     1      36.508  43.995  37.469  1.00  0.00    -0.343 N 
ATOM     25  H62 UNL     1      36.047  44.695  36.887  1.00  0.00     0.176 HD
ATOM     26  H61 UNL     1      36.134  43.775  38.392  1.00  0.00     0.176 HD
ENDBRANCH  22  24
ENDBRANCH  19  20
ENDBRANCH   3  19
BRANCH   1  27
HETATM   27  C3  UNL     1      37.523  39.475  32.072  1.00  0.00     0.149 C 
BRANCH  27  28
HETATM   28  C2  UNL     1      36.044  39.197  32.174  1.00  0.00     0.016 C 
HETATM   29  C1  UNL     1      35.267  40.052  31.197  1.00  0.00     0.006 C 
ENDBRANCH  27  28
ENDBRANCH   1  27
BRANCH   2  30
HETATM   30  N2  UNL     1      38.140  41.900  32.683  1.00  0.00    -0.138 N 
ATOM     31  H2  UNL     1      38.863  41.831  31.967  1.00  0.00     0.205 HD
BRANCH  30  32
HETATM   32  N3  UNL     1      37.249  42.801  32.298  1.00  0.00    -0.331 N 
ATOM     33  H32 UNL     1      37.712  43.708  32.332  1.00  0.00     0.177 HD
ATOM     34  H31 UNL     1      36.283  42.908  31.986  1.00  0.00     0.177 HD
ENDBRANCH  30  32
ENDBRANCH   2  30
TORSDOF 8
ENDMDL
MODEL 3
REMARK VINA RESULT: -6.006151188      1.396      1.723
REMARK  8 active torsions:
REMARK  status: ('A' for Active; 'I' for Inactive)
REMARK    1  A    between atoms: C2_2  and  C3_3 
REMARK    2  A    between atoms: C3_3  and  N1_4 
REMARK    3  A    between atoms: C4_5  and  N2_6 
REMARK    4  A    between atoms: N2_6  and  N3_8 
REMARK    5  A    between atoms: N4_11  and  C5_12 
REMARK    6  A    between atoms: C5_12  and  C6_13 
REMARK       I    between atoms: C6_13  and  N5_15 
REMARK    7  A    between atoms: N5_15  and  N6_17 
REMARK    8  A    between atoms: C13_28  and  N8_29 
ROOT
HETATM    1  N1  UNL     1      38.880  38.565  33.651  1.00  0.00    -0.166 N 
HETATM    2  C4  UNL     1      38.735  37.811  34.798  1.00  0.00     0.705 A 
HETATM    3  N4  UNL     1      39.682  37.836  35.748  1.00  0.00    -0.136 N 
HETATM    4  C7  UNL     1      40.801  38.615  35.586  1.00  0.00     0.277 A 
HETATM    5  O2  UNL     1      41.641  38.597  36.503  1.00  0.00    -0.266 OA
HETATM    6  C8  UNL     1      40.969  39.362  34.478  1.00  0.00     0.085 A 
HETATM    7  C9  UNL     1      42.119  40.130  34.358  1.00  0.00    -0.018 A 
HETATM    8  C10 UNL     1      43.184  40.190  35.376  1.00  0.00     0.051 C 
HETATM    9  C11 UNL     1      42.222  40.872  33.179  1.00  0.00     0.095 A 
HETATM   10  C12 UNL     1      43.391  41.687  33.000  1.00  0.00     0.104 C 
HETATM   11  N7  UNL     1      44.346  42.359  32.870  1.00  0.00    -0.191 NA
HETATM   12  C13 UNL     1      41.245  40.833  32.217  1.00  0.00     0.122 A 
HETATM   13  N9  UNL     1      40.156  40.055  32.418  1.00  0.00    -0.326 N 
ATOM     14  H9  UNL     1      39.436  40.033  31.695  1.00  0.00     0.169 HD
HETATM   15  C14 UNL     1      39.975  39.311  33.518  1.00  0.00     0.141 A 
ENDROOT
BRANCH  12  16
HETATM   16  N8  UNL     1      41.343  41.523  31.122  1.00  0.00    -0.384 N 
ATOM     17  H82 UNL     1      40.939  41.155  30.261  1.00  0.00     0.157 HD
ATOM     18  H81 UNL     1      41.816  42.426  31.100  1.00  0.00     0.157 HD
ENDBRANCH  12  16
BRANCH   3  19
HETATM   19  C5  UNL     1      39.577  37.033  36.958  1.00  0.00     0.255 C 
BRANCH  19  20
HETATM   20  C6  UNL     1      40.029  35.647  36.695  1.00  0.00     0.254 C 
HETATM   21  O1  UNL     1      40.193  35.242  35.520  1.00  0.00    -0.270 OA
HETATM   22  N5  UNL     1      40.290  34.740  37.752  1.00  0.00    -0.275 N 
ATOM     23  H5  UNL     1      40.161  35.055  38.713  1.00  0.00     0.189 HD
BRANCH  22  24
HETATM   24  N6  UNL     1      40.716  33.430  37.524  1.00  0.00    -0.343 N 
ATOM     25  H62 UNL     1      40.046  32.677  37.682  1.00  0.00     0.176 HD
ATOM     26  H61 UNL     1      41.662  33.211  37.209  1.00  0.00     0.176 HD
ENDBRANCH  22  24
ENDBRANCH  19  20
ENDBRANCH   3  19
BRANCH   1  27
HETATM   27  C3  UNL     1      37.829  38.489  32.673  1.00  0.00     0.149 C 
BRANCH  27  28
HETATM   28  C2  UNL     1      36.878  39.658  32.743  1.00  0.00     0.016 C 
HETATM   29  C1  UNL     1      35.702  39.452  31.814  1.00  0.00     0.006 C 
ENDBRANCH  27  28
ENDBRANCH   1  27
BRANCH   2  30
HETATM   30  N2  UNL     1      37.687  37.152  34.870  1.00  0.00    -0.138 N 
ATOM     31  H2  UNL     1      36.991  37.703  35.373  1.00  0.00     0.205 HD
BRANCH  30  32
HETATM   32  N3  UNL     1      37.144  35.993  34.533  1.00  0.00    -0.331 N 
ATOM     33  H32 UNL     1      36.353  35.843  35.159  1.00  0.00     0.177 HD
ATOM     34  H31 UNL     1      37.233  35.211  33.883  1.00  0.00     0.177 HD
ENDBRANCH  30  32
ENDBRANCH   2  30
TORSDOF 8
ENDMDL
MODEL 4
REMARK VINA RESULT: -5.962845696      3.159      4.214
REMARK  8 active torsions:
REMARK  status: ('A' for Active; 'I' for Inactive)
REMARK    1  A    between atoms: C2_2  and  C3_3 
REMARK    2  A    between atoms: C3_3  and  N1_4 
REMARK    3  A    between atoms: C4_5  and  N2_6 
REMARK    4  A    between atoms: N2_6  and  N3_8 
REMARK    5  A    between atoms: N4_11  and  C5_12 
REMARK    6  A    between atoms: C5_12  and  C6_13 
REMARK       I    between atoms: C6_13  and  N5_15 
REMARK    7  A    between atoms: N5_15  and  N6_17 
REMARK    8  A    between atoms: C13_28  and  N8_29 
ROOT
HETATM    1  N1  UNL     1      40.764  40.449  34.196  1.00  0.00    -0.166 N 
HETATM    2  C4  UNL     1      39.450  40.499  34.613  1.00  0.00     0.705 A 
HETATM    3  N4  UNL     1      39.157  40.669  35.911  1.00  0.00    -0.136 N 
HETATM    4  C7  UNL     1      40.166  40.799  36.834  1.00  0.00     0.277 A 
HETATM    5  O2  UNL     1      39.830  40.957  38.021  1.00  0.00    -0.266 OA
HETATM    6  C8  UNL     1      41.458  40.755  36.457  1.00  0.00     0.085 A 
HETATM    7  C9  UNL     1      42.442  40.886  37.427  1.00  0.00    -0.018 A 
HETATM    8  C10 UNL     1      42.168  41.078  38.863  1.00  0.00     0.051 C 
HETATM    9  C11 UNL     1      43.756  40.825  36.957  1.00  0.00     0.095 A 
HETATM   10  C12 UNL     1      44.817  40.956  37.916  1.00  0.00     0.104 C 
HETATM   11  N7  UNL     1      45.676  41.076  38.709  1.00  0.00    -0.191 NA
HETATM   12  C13 UNL     1      44.037  40.648  35.627  1.00  0.00     0.122 A 
HETATM   13  N9  UNL     1      43.013  40.529  34.750  1.00  0.00    -0.326 N 
ATOM     14  H9  UNL     1      43.234  40.396  33.762  1.00  0.00     0.169 HD
HETATM   15  C14 UNL     1      41.724  40.576  35.111  1.00  0.00     0.141 A 
ENDROOT
BRANCH  12  16
HETATM   16  N8  UNL     1      45.259  40.591  35.193  1.00  0.00    -0.384 N 
ATOM     17  H82 UNL     1      45.763  39.706  35.232  1.00  0.00     0.157 HD
ATOM     18  H81 UNL     1      45.729  41.413  34.812  1.00  0.00     0.157 HD
ENDBRANCH  12  16
BRANCH   3  19
HETATM   19  C5  UNL     1      37.783  40.700  36.391  1.00  0.00     0.255 C 
BRANCH  19  20
HETATM   20  C6  UNL     1      37.204  42.050  36.204  1.00  0.00     0.254 C 
HETATM   21  O1  UNL     1      36.654  42.364  35.122  1.00  0.00    -0.270 OA
HETATM   22  N5  UNL     1      37.250  43.025  37.231  1.00  0.00    -0.275 N 
ATOM     23  H5  UNL     1      37.694  42.785  38.118  1.00  0.00     0.189 HD
BRANCH  22  24
HETATM   24  N6  UNL     1      36.710  44.303  37.074  1.00  0.00    -0.343 N 
ATOM     25  H62 UNL     1      35.694  44.395  37.091  1.00  0.00     0.176 HD
ATOM     26  H61 UNL     1      37.293  45.130  36.944  1.00  0.00     0.176 HD
ENDBRANCH  22  24
ENDBRANCH  19  20
ENDBRANCH   3  19
BRANCH   1  27
HETATM   27  C3  UNL     1      41.006  40.260  32.792  1.00  0.00     0.149 C 
BRANCH  27  28
HETATM   28  C2  UNL     1      41.226  38.814  32.424  1.00  0.00     0.016 C 
HETATM   29  C1  UNL     1      42.525  38.642  31.669  1.00  0.00     0.006 C 
ENDBRANCH  27  28
ENDBRANCH   1  27
BRANCH   2  30
HETATM   30  N2  UNL     1      38.604  40.392  33.712  1.00  0.00    -0.138 N 
ATOM     31  H2  UNL     1      38.881  40.990  32.934  1.00  0.00     0.205 HD
BRANCH  30  32
HETATM   32  N3  UNL     1      37.471  39.785  33.395  1.00  0.00    -0.331 N 
ATOM     33  H32 UNL     1      36.965  39.628  34.266  1.00  0.00     0.177 HD
ATOM     34  H31 UNL     1      36.935  39.424  32.605  1.00  0.00     0.177 HD
ENDBRANCH  30  32
ENDBRANCH   2  30
TORSDOF 8
ENDMDL
MODEL 5
REMARK VINA RESULT: -5.962316431      3.327      6.030
REMARK  8 active torsions:
REMARK  status: ('A' for Active; 'I' for Inactive)
REMARK    1  A    between atoms: C2_2  and  C3_3 
REMARK    2  A    between atoms: C3_3  and  N1_4 
REMARK    3  A    between atoms: C4_5  and  N2_6 
REMARK    4  A    between atoms: N2_6  and  N3_8 
REMARK    5  A    between atoms: N4_11  and  C5_12 
REMARK    6  A    between atoms: C5_12  and  C6_13 
REMARK       I    between atoms: C6_13  and  N5_15 
REMARK    7  A    between atoms: N5_15  and  N6_17 
REMARK    8  A    between atoms: C13_28  and  N8_29 
ROOT
HETATM    1  N1  UNL     1      38.635  40.637  34.628  1.00  0.00    -0.166 N 
HETATM    2  C4  UNL     1      38.149  40.625  33.337  1.00  0.00     0.705 A 
HETATM    3  N4  UNL     1      37.875  39.462  32.728  1.00  0.00    -0.136 N 
HETATM    4  C7  UNL     1      38.073  38.274  33.388  1.00  0.00     0.277 A 
HETATM    5  O2  UNL     1      37.799  37.230  32.770  1.00  0.00    -0.266 OA
HETATM    6  C8  UNL     1      38.545  38.254  34.649  1.00  0.00     0.085 A 
HETATM    7  C9  UNL     1      38.734  37.030  35.274  1.00  0.00    -0.018 A 
HETATM    8  C10 UNL     1      38.444  35.727  34.645  1.00  0.00     0.051 C 
HETATM    9  C11 UNL     1      39.231  37.093  36.578  1.00  0.00     0.095 A 
HETATM   10  C12 UNL     1      39.444  35.856  37.274  1.00  0.00     0.104 C 
HETATM   11  N7  UNL     1      39.604  34.837  37.838  1.00  0.00    -0.191 NA
HETATM   12  C13 UNL     1      39.507  38.291  37.184  1.00  0.00     0.122 A 
HETATM   13  N9  UNL     1      39.294  39.439  36.499  1.00  0.00    -0.326 N 
ATOM     14  H9  UNL     1      39.504  40.325  36.961  1.00  0.00     0.169 HD
HETATM   15  C14 UNL     1      38.820  39.472  35.247  1.00  0.00     0.141 A 
ENDROOT
BRANCH  12  16
HETATM   16  N8  UNL     1      39.969  38.348  38.396  1.00  0.00    -0.384 N 
ATOM     17  H82 UNL     1      39.814  37.563  39.028  1.00  0.00     0.157 HD
ATOM     18  H81 UNL     1      40.483  39.162  38.733  1.00  0.00     0.157 HD
ENDBRANCH  12  16
BRANCH   3  19
HETATM   19  C5  UNL     1      37.388  39.408  31.357  1.00  0.00     0.255 C 
BRANCH  19  20
HETATM   20  C6  UNL     1      35.908  39.478  31.335  1.00  0.00     0.254 C 
HETATM   21  O1  UNL     1      35.320  40.580  31.437  1.00  0.00    -0.270 OA
HETATM   22  N5  UNL     1      35.113  38.312  31.200  1.00  0.00    -0.275 N 
ATOM     23  H5  UNL     1      35.577  37.408  31.116  1.00  0.00     0.189 HD
BRANCH  22  24
HETATM   24  N6  UNL     1      33.718  38.358  31.178  1.00  0.00    -0.343 N 
ATOM     25  H62 UNL     1      33.275  39.239  30.916  1.00  0.00     0.176 HD
ATOM     26  H61 UNL     1      33.142  37.549  31.412  1.00  0.00     0.176 HD
ENDBRANCH  22  24
ENDBRANCH  19  20
ENDBRANCH   3  19
BRANCH   1  27
HETATM   27  C3  UNL     1      38.910  41.918  35.219  1.00  0.00     0.149 C 
BRANCH  27  28
HETATM   28  C2  UNL     1      37.822  42.377  36.158  1.00  0.00     0.016 C 
HETATM   29  C1  UNL     1      37.585  43.865  36.023  1.00  0.00     0.006 C 
ENDBRANCH  27  28
ENDBRANCH   1  27
BRANCH   2  30
HETATM   30  N2  UNL     1      37.982  41.741  32.823  1.00  0.00    -0.138 N 
ATOM     31  H2  UNL     1      38.879  42.074  32.471  1.00  0.00     0.205 HD
BRANCH  30  32
HETATM   32  N3  UNL     1      37.062  42.657  32.565  1.00  0.00    -0.331 N 
ATOM     33  H32 UNL     1      36.488  42.295  31.804  1.00  0.00     0.177 HD
ATOM     34  H31 UNL     1      36.728  43.578  32.851  1.00  0.00     0.177 HD
ENDBRANCH  30  32
ENDBRANCH   2  30
TORSDOF 8
ENDMDL
