MODEL 1
REMARK VINA RESULT: -6.076548048      0.000      0.000
REMARK  7 active torsions:
REMARK  status: ('A' for Active; 'I' for Inactive)
REMARK    1  A    between atoms: O1_2  and  N1_3 
REMARK       I    between atoms: N1_3  and  C2_5 
REMARK       I    between atoms: C2_5  and  N4_10 
REMARK    2  A    between atoms: N4_10  and  C4_12 
REMARK    3  A    between atoms: C5_13  and  N5_14 
REMARK    4  A    between atoms: C9_22  and  N6_23 
REMARK    5  A    between atoms: C10_27  and  O3_28 
REMARK    6  A    between atoms: O3_28  and  C11_29 
REMARK    7  A    between atoms: C11_29  and  C13_31 
ROOT
HETATM    1  N1  UNL     1      37.115  41.023  33.665  1.00  0.00    -0.096 N 
ATOM      2  H1  UNL     1      37.110  41.803  34.322  1.00  0.00     0.213 HD
HETATM    3  C2  UNL     1      37.819  39.843  34.036  1.00  0.00     0.707 C 
HETATM    4  N2  UNL     1      37.609  38.699  33.447  1.00  0.00    -0.124 N 
ATOM      5  H2  UNL     1      38.145  37.889  33.760  1.00  0.00     0.197 HD
HETATM    6  C3  UNL     1      36.697  38.523  32.418  1.00  0.00     0.196 C 
HETATM    7  N3  UNL     1      35.936  38.356  31.555  1.00  0.00    -0.171 NA
HETATM    8  N4  UNL     1      38.780  39.868  35.076  1.00  0.00    -0.212 N 
ATOM      9  H4  UNL     1      38.467  40.176  35.997  1.00  0.00     0.178 HD
ENDROOT
BRANCH   1  10
HETATM   10  O1  UNL     1      36.458  41.173  32.503  1.00  0.00    -0.272 OA
HETATM   11  C1  UNL     1      37.049  42.133  31.684  1.00  0.00     0.238 C 
ENDBRANCH   1  10
BRANCH   8  12
HETATM   12  C4  UNL     1      40.171  39.491  34.933  1.00  0.00     0.186 C 
HETATM   13  C5  UNL     1      41.011  40.698  35.226  1.00  0.00     0.345 C 
HETATM   14  O2  UNL     1      40.896  41.004  36.559  1.00  0.00    -0.345 OA
HETATM   15  C6  UNL     1      41.601  40.045  37.276  1.00  0.00     0.087 C 
HETATM   16  C7  UNL     1      43.025  39.872  36.792  1.00  0.00     0.048 C 
HETATM   17  C8  UNL     1      41.696  40.563  38.703  1.00  0.00     0.048 C 
HETATM   18  C9  UNL     1      40.871  38.721  37.225  1.00  0.00     0.248 C 
HETATM   19  C10 UNL     1      40.494  38.315  35.833  1.00  0.00     0.183 C 
BRANCH  13  20
HETATM   20  N5  UNL     1      40.591  41.847  34.459  1.00  0.00    -0.051 N 
ATOM     21  H53 UNL     1      39.578  41.868  34.348  1.00  0.00     0.277 HD
ATOM     22  H52 UNL     1      40.712  42.711  34.989  1.00  0.00     0.277 HD
ATOM     23  H51 UNL     1      41.064  41.897  33.557  1.00  0.00     0.277 HD
ENDBRANCH  13  20
BRANCH  18  24
HETATM   24  N6  UNL     1      39.659  38.754  38.029  1.00  0.00    -0.070 N 
ATOM     25  H63 UNL     1      39.445  39.699  38.346  1.00  0.00     0.275 HD
ATOM     26  H62 UNL     1      38.829  38.588  37.460  1.00  0.00     0.275 HD
ATOM     27  H61 UNL     1      39.715  38.100  38.810  1.00  0.00     0.275 HD
ENDBRANCH  18  24
BRANCH  19  28
HETATM   28  O3  UNL     1      39.432  37.463  35.790  1.00  0.00    -0.368 OA
BRANCH  28  29
HETATM   29  C11 UNL     1      39.637  36.190  35.428  1.00  0.00     0.207 C 
HETATM   30  C12 UNL     1      38.470  35.446  34.860  1.00  0.00     0.049 C 
BRANCH  29  31
HETATM   31  C13 UNL     1      40.161  35.401  36.568  1.00  0.00     0.259 C 
HETATM   32  N7  UNL     1      39.342  35.375  37.755  1.00  0.00    -0.060 NA
HETATM   33  O4  UNL     1      41.221  34.768  36.606  1.00  0.00    -0.274 OA
ENDBRANCH  29  31
ENDBRANCH  28  29
ENDBRANCH  19  28
ENDBRANCH   8  12
TORSDOF 7
ENDMDL
MODEL 2
REMARK VINA RESULT: -5.948764086      2.040      5.319
REMARK  7 active torsions:
REMARK  status: ('A' for Active; 'I' for Inactive)
REMARK    1  A    between atoms: O1_2  and  N1_3 
REMARK       I    between atoms: N1_3  and  C2_5 
REMARK       I    between atoms: C2_5  and  N4_10 
REMARK    2  A    between atoms: N4_10  and  C4_12 
REMARK    3  A    between atoms: C5_13  and  N5_14 
REMARK    4  A    between atoms: C9_22  and  N6_23 
REMARK    5  A    between atoms: C10_27  and  O3_28 
REMARK    6  A    between atoms: O3_28  and  C11_29 
REMARK    7  A    between atoms: C11_29  and  C13_31 
ROOT
HETATM    1  N1  UNL     1      38.067  36.604  35.913  1.00  0.00    -0.096 N 
ATOM      2  H1  UNL     1      37.122  36.833  35.605  1.00  0.00     0.213 HD
HETATM    3  C2  UNL     1      38.946  37.679  36.224  1.00  0.00     0.707 C 
HETATM    4  N2  UNL     1      40.025  37.505  36.935  1.00  0.00    -0.124 N 
ATOM      5  H2  UNL     1      40.614  38.316  37.124  1.00  0.00     0.197 HD
HETATM    6  C3  UNL     1      40.416  36.278  37.448  1.00  0.00     0.196 C 
HETATM    7  N3  UNL     1      40.758  35.258  37.887  1.00  0.00    -0.171 NA
HETATM    8  N4  UNL     1      38.674  38.993  35.771  1.00  0.00    -0.212 N 
ATOM      9  H4  UNL     1      37.788  39.412  36.052  1.00  0.00     0.178 HD
ENDROOT
BRANCH   1  10
HETATM   10  O1  UNL     1      38.404  35.307  36.000  1.00  0.00    -0.272 OA
HETATM   11  C1  UNL     1      38.828  34.789  34.778  1.00  0.00     0.238 C 
ENDBRANCH   1  10
BRANCH   8  12
HETATM   12  C4  UNL     1      39.556  39.786  34.941  1.00  0.00     0.186 C 
HETATM   13  C5  UNL     1      38.800  40.185  33.709  1.00  0.00     0.345 C 
HETATM   14  O2  UNL     1      37.811  41.068  34.064  1.00  0.00    -0.345 OA
HETATM   15  C6  UNL     1      38.416  42.280  34.372  1.00  0.00     0.087 C 
HETATM   16  C7  UNL     1      39.340  42.776  33.279  1.00  0.00     0.048 C 
HETATM   17  C8  UNL     1      37.296  43.303  34.480  1.00  0.00     0.048 C 
HETATM   18  C9  UNL     1      39.173  42.163  35.677  1.00  0.00     0.248 C 
HETATM   19  C10 UNL     1      40.085  40.975  35.718  1.00  0.00     0.183 C 
BRANCH  13  20
HETATM   20  N5  UNL     1      38.183  39.050  33.063  1.00  0.00    -0.051 N 
ATOM     21  H53 UNL     1      38.881  38.448  32.627  1.00  0.00     0.277 HD
ATOM     22  H52 UNL     1      37.809  38.392  33.747  1.00  0.00     0.277 HD
ATOM     23  H51 UNL     1      37.468  39.335  32.394  1.00  0.00     0.277 HD
ENDBRANCH  13  20
BRANCH  18  24
HETATM   24  N6  UNL     1      38.266  42.073  36.809  1.00  0.00    -0.070 N 
ATOM     25  H63 UNL     1      37.642  41.270  36.727  1.00  0.00     0.275 HD
ATOM     26  H62 UNL     1      38.757  41.803  37.661  1.00  0.00     0.275 HD
ATOM     27  H61 UNL     1      37.744  42.940  36.936  1.00  0.00     0.275 HD
ENDBRANCH  18  24
BRANCH  19  28
HETATM   28  O3  UNL     1      40.357  40.548  36.983  1.00  0.00    -0.368 OA
BRANCH  28  29
HETATM   29  C11 UNL     1      41.577  40.762  37.491  1.00  0.00     0.207 C 
HETATM   30  C12 UNL     1      42.675  39.854  37.033  1.00  0.00     0.049 C 
BRANCH  29  31
HETATM   31  C13 UNL     1      41.543  40.713  38.972  1.00  0.00     0.259 C 
HETATM   32  N7  UNL     1      42.418  41.629  39.661  1.00  0.00    -0.060 NA
HETATM   33  O4  UNL     1      40.847  39.970  39.672  1.00  0.00    -0.274 OA
ENDBRANCH  29  31
ENDBRANCH  28  29
ENDBRANCH  19  28
ENDBRANCH   8  12
TORSDOF 7
ENDMDL
MODEL 3
REMARK VINA RESULT: -5.915871870      1.109      1.335
REMARK  7 active torsions:
REMARK  status: ('A' for Active; 'I' for Inactive)
REMARK    1  A    between atoms: O1_2  and  N1_3 
REMARK       I    between atoms: N1_3  and  C2_5 
REMARK       I    between atoms: C2_5  and  N4_10 
REMARK    2  A    between atoms: N4_10  and  C4_12 
REMARK    3  A    between atoms: C5_13  and  N5_14 
REMARK    4  A    between atoms: C9_22  and  N6_23 
REMARK    5  A    between atoms: C10_27  and  O3_28 
REMARK    6  A    between atoms: O3_28  and  C11_29 
REMARK    7  A    between atoms: C11_29  and  C13_31 
ROOT
HETATM    1  N1  UNL     1      37.312  41.164  33.366  1.00  0.00    -0.096 N 
ATOM      2  H1  UNL     1      37.494  41.989  33.938  1.00  0.00     0.213 HD
HETATM    3  C2  UNL     1      37.736  39.901  33.865  1.00  0.00     0.707 C 
HETATM    4  N2  UNL     1      37.263  38.779  33.397  1.00  0.00    -0.124 N 
ATOM      5  H2  UNL     1      37.607  37.906  33.798  1.00  0.00     0.197 HD
HETATM    6  C3  UNL     1      36.319  38.709  32.384  1.00  0.00     0.196 C 
HETATM    7  N3  UNL     1      35.527  38.630  31.538  1.00  0.00    -0.171 NA
HETATM    8  N4  UNL     1      38.693  39.815  34.905  1.00  0.00    -0.212 N 
ATOM      9  H4  UNL     1      38.474  40.280  35.785  1.00  0.00     0.178 HD
ENDROOT
BRANCH   1  10
HETATM   10  O1  UNL     1      36.688  41.338  32.189  1.00  0.00    -0.272 OA
HETATM   11  C1  UNL     1      37.401  42.175  31.333  1.00  0.00     0.238 C 
ENDBRANCH   1  10
BRANCH   8  12
HETATM   12  C4  UNL     1      39.961  39.120  34.814  1.00  0.00     0.186 C 
HETATM   13  C5  UNL     1      41.055  40.144  34.831  1.00  0.00     0.345 C 
HETATM   14  O2  UNL     1      41.096  40.727  36.073  1.00  0.00    -0.345 OA
HETATM   15  C6  UNL     1      41.628  39.798  36.959  1.00  0.00     0.087 C 
HETATM   16  C7  UNL     1      42.948  39.222  36.491  1.00  0.00     0.048 C 
HETATM   17  C8  UNL     1      41.925  40.555  38.244  1.00  0.00     0.048 C 
HETATM   18  C9  UNL     1      40.633  38.685  37.200  1.00  0.00     0.248 C 
HETATM   19  C10 UNL     1      40.086  38.104  35.932  1.00  0.00     0.183 C 
BRANCH  13  20
HETATM   20  N5  UNL     1      40.838  41.182  33.850  1.00  0.00    -0.051 N 
ATOM     21  H53 UNL     1      40.629  40.788  32.934  1.00  0.00     0.277 HD
ATOM     22  H52 UNL     1      39.959  41.673  34.018  1.00  0.00     0.277 HD
ATOM     23  H51 UNL     1      41.623  41.833  33.804  1.00  0.00     0.277 HD
ENDBRANCH  13  20
BRANCH  18  24
HETATM   24  N6  UNL     1      39.511  39.143  38.005  1.00  0.00    -0.070 N 
ATOM     25  H63 UNL     1      39.527  38.732  38.938  1.00  0.00     0.275 HD
ATOM     26  H62 UNL     1      39.613  40.124  38.264  1.00  0.00     0.275 HD
ATOM     27  H61 UNL     1      38.622  38.971  37.535  1.00  0.00     0.275 HD
ENDBRANCH  18  24
BRANCH  19  28
HETATM   28  O3  UNL     1      38.868  37.516  36.090  1.00  0.00    -0.368 OA
BRANCH  28  29
HETATM   29  C11 UNL     1      38.804  36.187  36.234  1.00  0.00     0.207 C 
HETATM   30  C12 UNL     1      39.978  35.512  36.870  1.00  0.00     0.049 C 
BRANCH  29  31
HETATM   31  C13 UNL     1      38.562  35.530  34.928  1.00  0.00     0.259 C 
HETATM   32  N7  UNL     1      37.265  35.747  34.335  1.00  0.00    -0.060 NA
HETATM   33  O4  UNL     1      39.353  34.819  34.299  1.00  0.00    -0.274 OA
ENDBRANCH  29  31
ENDBRANCH  28  29
ENDBRANCH  19  28
ENDBRANCH   8  12
TORSDOF 7
ENDMDL
MODEL 4
REMARK VINA RESULT: -5.889028925      2.033      5.256
REMARK  7 active torsions:
REMARK  status: ('A' for Active; 'I' for Inactive)
REMARK    1  A    between atoms: O1_2  and  N1_3 
REMARK       I    between atoms: N1_3  and  C2_5 
REMARK       I    between atoms: C2_5  and  N4_10 
REMARK    2  A    between atoms: N4_10  and  C4_12 
REMARK    3  A    between atoms: C5_13  and  N5_14 
REMARK    4  A    between atoms: C9_22  and  N6_23 
REMARK    5  A    between atoms: C10_27  and  O3_28 
REMARK    6  A    between atoms: O3_28  and  C11_29 
REMARK    7  A    between atoms: C11_29  and  C13_31 
ROOT
HETATM    1  N1  UNL     1      38.054  36.677  36.085  1.00  0.00    -0.096 N 
ATOM      2  H1  UNL     1      37.061  36.906  36.044  1.00  0.00     0.213 HD
HETATM    3  C2  UNL     1      38.986  37.752  36.104  1.00  0.00     0.707 C 
HETATM    4  N2  UNL     1      40.220  37.590  36.493  1.00  0.00    -0.124 N 
ATOM      5  H2  UNL     1      40.839  38.401  36.485  1.00  0.00     0.197 HD
HETATM    6  C3  UNL     1      40.736  36.376  36.919  1.00  0.00     0.196 C 
HETATM    7  N3  UNL     1      41.185  35.367  37.280  1.00  0.00    -0.171 NA
HETATM    8  N4  UNL     1      38.601  39.053  35.701  1.00  0.00    -0.212 N 
ATOM      9  H4  UNL     1      37.828  39.491  36.202  1.00  0.00     0.178 HD
ENDROOT
BRANCH   1  10
HETATM   10  O1  UNL     1      38.400  35.380  36.119  1.00  0.00    -0.272 OA
HETATM   11  C1  UNL     1      38.614  34.858  34.845  1.00  0.00     0.238 C 
ENDBRANCH   1  10
BRANCH   8  12
HETATM   12  C4  UNL     1      39.219  39.811  34.632  1.00  0.00     0.186 C 
HETATM   13  C5  UNL     1      38.136  40.276  33.706  1.00  0.00     0.345 C 
HETATM   14  O2  UNL     1      37.366  41.207  34.357  1.00  0.00    -0.345 OA
HETATM   15  C6  UNL     1      38.110  42.376  34.456  1.00  0.00     0.087 C 
HETATM   16  C7  UNL     1      38.665  42.839  33.125  1.00  0.00     0.048 C 
HETATM   17  C8  UNL     1      37.146  43.459  34.915  1.00  0.00     0.048 C 
HETATM   18  C9  UNL     1      39.234  42.191  35.451  1.00  0.00     0.248 C 
HETATM   19  C10 UNL     1      40.038  40.952  35.200  1.00  0.00     0.183 C 
BRANCH  13  20
HETATM   20  N5  UNL     1      37.278  39.190  33.290  1.00  0.00    -0.051 N 
ATOM     21  H53 UNL     1      37.018  39.279  32.309  1.00  0.00     0.277 HD
ATOM     22  H52 UNL     1      37.792  38.310  33.241  1.00  0.00     0.277 HD
ATOM     23  H51 UNL     1      36.454  39.106  33.887  1.00  0.00     0.277 HD
ENDBRANCH  13  20
BRANCH  18  24
HETATM   24  N6  UNL     1      38.730  42.132  36.814  1.00  0.00    -0.070 N 
ATOM     25  H63 UNL     1      38.427  43.049  37.142  1.00  0.00     0.275 HD
ATOM     26  H62 UNL     1      37.835  41.646  36.860  1.00  0.00     0.275 HD
ATOM     27  H61 UNL     1      39.416  41.717  37.445  1.00  0.00     0.275 HD
ENDBRANCH  18  24
BRANCH  19  28
HETATM   28  O3  UNL     1      40.672  40.487  36.313  1.00  0.00    -0.368 OA
BRANCH  28  29
HETATM   29  C11 UNL     1      41.968  40.776  36.489  1.00  0.00     0.207 C 
HETATM   30  C12 UNL     1      42.504  41.974  35.770  1.00  0.00     0.049 C 
BRANCH  29  31
HETATM   31  C13 UNL     1      42.816  39.617  36.125  1.00  0.00     0.259 C 
HETATM   32  N7  UNL     1      43.318  39.593  34.773  1.00  0.00    -0.060 NA
HETATM   33  O4  UNL     1      43.133  38.673  36.856  1.00  0.00    -0.274 OA
ENDBRANCH  29  31
ENDBRANCH  28  29
ENDBRANCH  19  28
ENDBRANCH   8  12
TORSDOF 7
ENDMDL
MODEL 5
REMARK VINA RESULT: -5.863429145      1.859      5.490
REMARK  7 active torsions:
REMARK  status: ('A' for Active; 'I' for Inactive)
REMARK    1  A    between atoms: O1_2  and  N1_3 
REMARK       I    between atoms: N1_3  and  C2_5 
REMARK       I    between atoms: C2_5  and  N4_10 
REMARK    2  A    between atoms: N4_10  and  C4_12 
REMARK    3  A    between atoms: C5_13  and  N5_14 
REMARK    4  A    between atoms: C9_22  and  N6_23 
REMARK    5  A    between atoms: C10_27  and  O3_28 
REMARK    6  A    between atoms: O3_28  and  C11_29 
REMARK    7  A    between atoms: C11_29  and  C13_31 
ROOT
HETATM    1  N1  UNL     1      38.352  35.576  35.417  1.00  0.00    -0.096 N 
ATOM      2  H1  UNL     1      37.460  35.569  34.921  1.00  0.00     0.213 HD
HETATM    3  C2  UNL     1      38.944  36.837  35.707  1.00  0.00     0.707 C 
HETATM    4  N2  UNL     1      39.875  36.971  36.610  1.00  0.00    -0.124 N 
ATOM      5  H2  UNL     1      40.259  37.903  36.772  1.00  0.00     0.197 HD
HETATM    6  C3  UNL     1      40.371  35.918  37.362  1.00  0.00     0.196 C 
HETATM    7  N3  UNL     1      40.798  35.047  38.002  1.00  0.00    -0.171 NA
HETATM    8  N4  UNL     1      38.534  38.006  35.021  1.00  0.00    -0.212 N 
ATOM      9  H4  UNL     1      37.549  38.264  35.079  1.00  0.00     0.178 HD
ENDROOT
BRANCH   1  10
HETATM   10  O1  UNL     1      38.893  34.394  35.756  1.00  0.00    -0.272 OA
HETATM   11  C1  UNL     1      39.539  33.783  34.683  1.00  0.00     0.238 C 
ENDBRANCH   1  10
BRANCH   8  12
HETATM   12  C4  UNL     1      39.405  38.863  34.243  1.00  0.00     0.186 C 
HETATM   13  C5  UNL     1      38.808  39.014  32.876  1.00  0.00     0.345 C 
HETATM   14  O2  UNL     1      37.648  39.741  32.979  1.00  0.00    -0.345 OA
HETATM   15  C6  UNL     1      37.998  41.062  33.231  1.00  0.00     0.087 C 
HETATM   16  C7  UNL     1      38.998  41.610  32.235  1.00  0.00     0.048 C 
HETATM   17  C8  UNL     1      36.729  41.882  33.055  1.00  0.00     0.048 C 
HETATM   18  C9  UNL     1      38.540  41.194  34.637  1.00  0.00     0.248 C 
HETATM   19  C10 UNL     1      39.607  40.189  34.948  1.00  0.00     0.183 C 
BRANCH  13  20
HETATM   20  N5  UNL     1      38.490  37.737  32.281  1.00  0.00    -0.051 N 
ATOM     21  H53 UNL     1      38.439  37.002  32.987  1.00  0.00     0.277 HD
ATOM     22  H52 UNL     1      37.525  37.711  31.953  1.00  0.00     0.277 HD
ATOM     23  H51 UNL     1      39.142  37.491  31.536  1.00  0.00     0.277 HD
ENDBRANCH  13  20
BRANCH  18  24
HETATM   24  N6  UNL     1      37.485  41.049  35.627  1.00  0.00    -0.070 N 
ATOM     25  H63 UNL     1      37.527  40.142  36.090  1.00  0.00     0.275 HD
ATOM     26  H62 UNL     1      37.649  41.646  36.438  1.00  0.00     0.275 HD
ATOM     27  H61 UNL     1      36.566  41.218  35.217  1.00  0.00     0.275 HD
ENDBRANCH  18  24
BRANCH  19  28
HETATM   28  O3  UNL     1      39.732  39.930  36.280  1.00  0.00    -0.368 OA
BRANCH  28  29
HETATM   29  C11 UNL     1      40.808  40.388  36.931  1.00  0.00     0.207 C 
HETATM   30  C12 UNL     1      42.146  39.915  36.456  1.00  0.00     0.049 C 
BRANCH  29  31
HETATM   31  C13 UNL     1      40.712  40.084  38.378  1.00  0.00     0.259 C 
HETATM   32  N7  UNL     1      41.364  41.010  39.270  1.00  0.00    -0.060 NA
HETATM   33  O4  UNL     1      40.134  39.122  38.896  1.00  0.00    -0.274 OA
ENDBRANCH  29  31
ENDBRANCH  28  29
ENDBRANCH  19  28
ENDBRANCH   8  12
TORSDOF 7
ENDMDL
