MODEL 1
REMARK VINA RESULT: -7.539370586      0.000      0.000
REMARK  6 active torsions:
REMARK  status: ('A' for Active; 'I' for Inactive)
REMARK       I    between atoms: N1_1  and  C1_5 
REMARK       I    between atoms: C1_5  and  N2_6 
REMARK       I    between atoms: C1_5  and  N3_10 
REMARK       I    between atoms: N3_10  and  C2_12 
REMARK    1  A    between atoms: C2_12  and  C3_14 
REMARK    2  A    between atoms: C3_14  and  N4_15 
REMARK    3  A    between atoms: C3_14  and  C4_19 
REMARK       I    between atoms: C4_19  and  N5_21 
REMARK    4  A    between atoms: N5_21  and  C5_23 
REMARK    5  A    between atoms: C6_28  and  C7_29 
REMARK    6  A    between atoms: C10_32  and  O3_33 
ROOT
HETATM    1  C4  UNL     1      36.166  39.762  31.290  1.00  0.00     0.263 C 
HETATM    2  O2  UNL     1      35.223  40.433  31.767  1.00  0.00    -0.270 OA
HETATM    3  N5  UNL     1      37.312  39.489  32.022  1.00  0.00    -0.304 N 
ATOM      4  H5  UNL     1      38.089  40.140  31.909  1.00  0.00     0.171 HD
ENDROOT
BRANCH   1   5
HETATM    5  C3  UNL     1      36.038  39.256  29.906  1.00  0.00     0.365 C 
BRANCH   5   6
HETATM    6  C2  UNL     1      35.136  38.076  29.966  1.00  0.00     0.260 C 
HETATM    7  N3  UNL     1      33.738  38.176  29.739  1.00  0.00    -0.309 N 
HETATM    8  C1  UNL     1      32.839  37.048  29.793  1.00  0.00     0.482 C 
ATOM      9  H3  UNL     1      33.348  39.095  29.527  1.00  0.00     0.166 HD
HETATM   10  N1  UNL     1      32.223  36.790  28.515  1.00  0.00    -0.033 N 
HETATM   11  N2  UNL     1      31.826  37.219  30.820  1.00  0.00    -0.033 N 
ATOM     12  H13 UNL     1      31.585  35.995  28.555  1.00  0.00     0.278 HD
ATOM     13  H12 UNL     1      31.549  37.515  28.266  1.00  0.00     0.278 HD
ATOM     14  H11 UNL     1      32.935  36.670  27.794  1.00  0.00     0.278 HD
ATOM     15  H23 UNL     1      31.151  37.944  30.571  1.00  0.00     0.278 HD
ATOM     16  H22 UNL     1      31.187  36.425  30.860  1.00  0.00     0.278 HD
ATOM     17  H21 UNL     1      32.261  37.402  31.725  1.00  0.00     0.278 HD
HETATM   18  O1  UNL     1      35.630  36.953  30.227  1.00  0.00    -0.271 OA
ENDBRANCH   5   6
BRANCH   5  19
HETATM   19  N4  UNL     1      37.347  38.813  29.471  1.00  0.00    -0.058 N 
ATOM     20  H43 UNL     1      37.422  38.756  28.456  1.00  0.00     0.275 HD
ATOM     21  H42 UNL     1      38.069  39.516  29.626  1.00  0.00     0.275 HD
ATOM     22  H41 UNL     1      37.558  37.927  29.930  1.00  0.00     0.275 HD
ENDBRANCH   5  19
ENDBRANCH   1   5
BRANCH   3  23
HETATM   23  C5  UNL     1      37.502  38.497  32.833  1.00  0.00     0.168 A 
HETATM   24  N6  UNL     1      36.676  37.546  33.278  1.00  0.00    -0.279 N 
HETATM   25  N7  UNL     1      37.125  36.674  34.085  1.00  0.00    -0.290 N 
ATOM     26  H6  UNL     1      35.702  37.520  32.975  1.00  0.00     0.189 HD
HETATM   27  C6  UNL     1      38.377  36.702  34.475  1.00  0.00     0.119 A 
ATOM     28  H7  UNL     1      36.504  35.943  34.433  1.00  0.00     0.188 HD
HETATM   29  S1  UNL     1      38.960  38.084  33.625  1.00  0.00    -0.031 SA
BRANCH  27  30
HETATM   30  C7  UNL     1      39.110  35.806  35.390  1.00  0.00     0.067 A 
HETATM   31  C8  UNL     1      39.375  36.200  36.679  1.00  0.00     0.035 A 
HETATM   32  C9  UNL     1      40.067  35.367  37.560  1.00  0.00     0.040 A 
HETATM   33  C10 UNL     1      40.492  34.127  37.134  1.00  0.00     0.081 A 
HETATM   34  C11 UNL     1      40.205  33.771  35.833  1.00  0.00     0.124 A 
HETATM   35  N8  UNL     1      39.530  34.604  34.995  1.00  0.00    -0.361 N 
ATOM     36  H8  UNL     1      39.340  34.301  34.039  1.00  0.00     0.165 HD
BRANCH  33  37
HETATM   37  O3  UNL     1      41.185  33.228  37.930  1.00  0.00    -0.359 OA
ATOM     38  H3  UNL     1      40.952  32.311  38.024  1.00  0.00     0.217 HD
ENDBRANCH  33  37
ENDBRANCH  27  30
ENDBRANCH   3  23
TORSDOF 6
ENDMDL
MODEL 2
REMARK VINA RESULT: -7.358173708      5.002      7.465
REMARK  6 active torsions:
REMARK  status: ('A' for Active; 'I' for Inactive)
REMARK       I    between atoms: N1_1  and  C1_5 
REMARK       I    between atoms: C1_5  and  N2_6 
REMARK       I    between atoms: C1_5  and  N3_10 
REMARK       I    between atoms: N3_10  and  C2_12 
REMARK    1  A    between atoms: C2_12  and  C3_14 
REMARK    2  A    between atoms: C3_14  and  N4_15 
REMARK    3  A    between atoms: C3_14  and  C4_19 
REMARK       I    between atoms: C4_19  and  N5_21 
REMARK    4  A    between atoms: N5_21  and  C5_23 
REMARK    5  A    between atoms: C6_28  and  C7_29 
REMARK    6  A    between atoms: C10_32  and  O3_33 
ROOT
HETATM    1  C4  UNL     1      38.884  37.268  34.314  1.00  0.00     0.263 C 
HETATM    2  O2  UNL     1      38.454  37.802  33.267  1.00  0.00    -0.270 OA
HETATM    3  N5  UNL     1      40.202  37.410  34.719  1.00  0.00    -0.304 N 
ATOM      4  H5  UNL     1      40.852  36.685  34.417  1.00  0.00     0.171 HD
ENDROOT
BRANCH   1   5
HETATM    5  C3  UNL     1      37.946  36.464  35.130  1.00  0.00     0.365 C 
BRANCH   5   6
HETATM    6  C2  UNL     1      38.748  35.382  35.758  1.00  0.00     0.260 C 
HETATM    7  N3  UNL     1      39.292  34.306  35.009  1.00  0.00    -0.309 N 
HETATM    8  C1  UNL     1      40.073  33.242  35.594  1.00  0.00     0.482 C 
ATOM      9  H3  UNL     1      39.123  34.284  34.003  1.00  0.00     0.166 HD
HETATM   10  N1  UNL     1      41.424  33.229  35.094  1.00  0.00    -0.033 N 
HETATM   11  N2  UNL     1      39.445  31.946  35.395  1.00  0.00    -0.033 N 
ATOM     12  H13 UNL     1      41.974  32.474  35.504  1.00  0.00     0.278 HD
ATOM     13  H12 UNL     1      41.465  32.933  34.118  1.00  0.00     0.278 HD
ATOM     14  H11 UNL     1      41.865  34.138  35.233  1.00  0.00     0.278 HD
ATOM     15  H23 UNL     1      39.485  31.651  34.420  1.00  0.00     0.278 HD
ATOM     16  H22 UNL     1      39.995  31.192  35.806  1.00  0.00     0.278 HD
ATOM     17  H21 UNL     1      38.488  31.955  35.750  1.00  0.00     0.278 HD
HETATM   18  O1  UNL     1      38.949  35.423  36.996  1.00  0.00    -0.271 OA
ENDBRANCH   5   6
BRANCH   5  19
HETATM   19  N4  UNL     1      36.981  35.861  34.235  1.00  0.00    -0.058 N 
ATOM     20  H43 UNL     1      36.340  35.232  34.718  1.00  0.00     0.275 HD
ATOM     21  H42 UNL     1      36.291  36.531  33.895  1.00  0.00     0.275 HD
ATOM     22  H41 UNL     1      37.485  35.400  33.478  1.00  0.00     0.275 HD
ENDBRANCH   5  19
ENDBRANCH   1   5
BRANCH   3  23
HETATM   23  C5  UNL     1      40.698  38.367  35.440  1.00  0.00     0.168 A 
HETATM   24  N6  UNL     1      41.354  39.480  35.104  1.00  0.00    -0.279 N 
HETATM   25  N7  UNL     1      41.740  40.265  36.024  1.00  0.00    -0.290 N 
ATOM     26  H6  UNL     1      41.542  39.697  34.124  1.00  0.00     0.189 HD
HETATM   27  C6  UNL     1      41.499  39.992  37.284  1.00  0.00     0.119 A 
ATOM     28  H7  UNL     1      42.243  41.118  35.780  1.00  0.00     0.188 HD
HETATM   29  S1  UNL     1      40.656  38.494  37.144  1.00  0.00    -0.031 SA
BRANCH  27  30
HETATM   30  C7  UNL     1      41.844  40.744  38.506  1.00  0.00     0.067 A 
HETATM   31  C8  UNL     1      43.054  41.385  38.604  1.00  0.00     0.035 A 
HETATM   32  C9  UNL     1      43.399  42.103  39.751  1.00  0.00     0.040 A 
HETATM   33  C10 UNL     1      42.512  42.171  40.804  1.00  0.00     0.081 A 
HETATM   34  C11 UNL     1      41.308  41.513  40.663  1.00  0.00     0.124 A 
HETATM   35  N8  UNL     1      40.999  40.821  39.534  1.00  0.00    -0.361 N 
ATOM     36  H8  UNL     1      40.097  40.347  39.473  1.00  0.00     0.165 HD
BRANCH  33  37
HETATM   37  O3  UNL     1      42.759  42.857  41.984  1.00  0.00    -0.359 OA
ATOM     38  H3  UNL     1      42.977  43.781  42.027  1.00  0.00     0.217 HD
ENDBRANCH  33  37
ENDBRANCH  27  30
ENDBRANCH   3  23
TORSDOF 6
ENDMDL
MODEL 3
REMARK VINA RESULT: -7.267114006      4.746      6.625
REMARK  6 active torsions:
REMARK  status: ('A' for Active; 'I' for Inactive)
REMARK       I    between atoms: N1_1  and  C1_5 
REMARK       I    between atoms: C1_5  and  N2_6 
REMARK       I    between atoms: C1_5  and  N3_10 
REMARK       I    between atoms: N3_10  and  C2_12 
REMARK    1  A    between atoms: C2_12  and  C3_14 
REMARK    2  A    between atoms: C3_14  and  N4_15 
REMARK    3  A    between atoms: C3_14  and  C4_19 
REMARK       I    between atoms: C4_19  and  N5_21 
REMARK    4  A    between atoms: N5_21  and  C5_23 
REMARK    5  A    between atoms: C6_28  and  C7_29 
REMARK    6  A    between atoms: C10_32  and  O3_33 
ROOT
HETATM    1  C4  UNL     1      38.288  42.761  35.406  1.00  0.00     0.263 C 
HETATM    2  O2  UNL     1      39.299  43.276  35.934  1.00  0.00    -0.270 OA
HETATM    3  N5  UNL     1      38.391  41.760  34.452  1.00  0.00    -0.304 N 
ATOM      4  H5  UNL     1      38.399  42.061  33.477  1.00  0.00     0.171 HD
ENDROOT
BRANCH   1   5
HETATM    5  C3  UNL     1      36.954  43.245  35.824  1.00  0.00     0.365 C 
BRANCH   5   6
HETATM    6  C2  UNL     1      36.987  44.727  35.719  1.00  0.00     0.260 C 
HETATM    7  N3  UNL     1      37.780  45.404  34.755  1.00  0.00    -0.309 N 
HETATM    8  C1  UNL     1      37.832  46.842  34.633  1.00  0.00     0.482 C 
ATOM      9  H3  UNL     1      38.343  44.844  34.115  1.00  0.00     0.166 HD
HETATM   10  N1  UNL     1      37.321  47.292  33.364  1.00  0.00    -0.033 N 
HETATM   11  N2  UNL     1      39.177  47.348  34.849  1.00  0.00    -0.033 N 
ATOM     12  H13 UNL     1      37.361  48.307  33.276  1.00  0.00     0.278 HD
ATOM     13  H12 UNL     1      37.946  47.048  32.595  1.00  0.00     0.278 HD
ATOM     14  H11 UNL     1      36.376  46.936  33.212  1.00  0.00     0.278 HD
ATOM     15  H23 UNL     1      39.802  47.104  34.081  1.00  0.00     0.278 HD
ATOM     16  H22 UNL     1      39.217  48.364  34.762  1.00  0.00     0.278 HD
ATOM     17  H21 UNL     1      39.539  47.030  35.749  1.00  0.00     0.278 HD
HETATM   18  O1  UNL     1      36.289  45.402  36.514  1.00  0.00    -0.271 OA
ENDBRANCH   5   6
BRANCH   5  19
HETATM   19  N4  UNL     1      36.764  42.885  37.214  1.00  0.00    -0.058 N 
ATOM     20  H43 UNL     1      37.361  43.423  37.842  1.00  0.00     0.275 HD
ATOM     21  H42 UNL     1      35.863  43.195  37.578  1.00  0.00     0.275 HD
ATOM     22  H41 UNL     1      36.900  41.879  37.310  1.00  0.00     0.275 HD
ENDBRANCH   5  19
ENDBRANCH   1   5
BRANCH   3  23
HETATM   23  C5  UNL     1      38.478  40.485  34.663  1.00  0.00     0.168 A 
HETATM   24  N6  UNL     1      37.809  39.453  34.142  1.00  0.00    -0.279 N 
HETATM   25  N7  UNL     1      38.095  38.279  34.530  1.00  0.00    -0.290 N 
ATOM     26  H6  UNL     1      37.080  39.605  33.444  1.00  0.00     0.189 HD
HETATM   27  C6  UNL     1      39.033  38.078  35.426  1.00  0.00     0.119 A 
ATOM     28  H7  UNL     1      37.590  37.482  34.142  1.00  0.00     0.188 HD
HETATM   29  S1  UNL     1      39.545  39.694  35.740  1.00  0.00    -0.031 SA
BRANCH  27  30
HETATM   30  C7  UNL     1      39.532  36.822  36.018  1.00  0.00     0.067 A 
HETATM   31  C8  UNL     1      39.866  36.769  37.349  1.00  0.00     0.035 A 
HETATM   32  C9  UNL     1      40.339  35.590  37.928  1.00  0.00     0.040 A 
HETATM   33  C10 UNL     1      40.474  34.458  37.154  1.00  0.00     0.081 A 
HETATM   34  C11 UNL     1      40.128  34.554  35.822  1.00  0.00     0.124 A 
HETATM   35  N8  UNL     1      39.670  35.717  35.284  1.00  0.00    -0.361 N 
ATOM     36  H8  UNL     1      39.427  35.744  34.294  1.00  0.00     0.165 HD
BRANCH  33  37
HETATM   37  O3  UNL     1      40.934  33.240  37.632  1.00  0.00    -0.359 OA
ATOM     38  H3  UNL     1      41.630  32.737  37.225  1.00  0.00     0.217 HD
ENDBRANCH  33  37
ENDBRANCH  27  30
ENDBRANCH   3  23
TORSDOF 6
ENDMDL
MODEL 4
REMARK VINA RESULT: -7.249029289      4.970      8.845
REMARK  6 active torsions:
REMARK  status: ('A' for Active; 'I' for Inactive)
REMARK       I    between atoms: N1_1  and  C1_5 
REMARK       I    between atoms: C1_5  and  N2_6 
REMARK       I    between atoms: C1_5  and  N3_10 
REMARK       I    between atoms: N3_10  and  C2_12 
REMARK    1  A    between atoms: C2_12  and  C3_14 
REMARK    2  A    between atoms: C3_14  and  N4_15 
REMARK    3  A    between atoms: C3_14  and  C4_19 
REMARK       I    between atoms: C4_19  and  N5_21 
REMARK    4  A    between atoms: N5_21  and  C5_23 
REMARK    5  A    between atoms: C6_28  and  C7_29 
REMARK    6  A    between atoms: C10_32  and  O3_33 
ROOT
HETATM    1  C4  UNL     1      39.401  37.656  35.821  1.00  0.00     0.263 C 
HETATM    2  O2  UNL     1      40.118  37.448  34.816  1.00  0.00    -0.270 OA
HETATM    3  N5  UNL     1      39.534  38.803  36.589  1.00  0.00    -0.304 N 
ATOM      4  H5  UNL     1      40.157  38.742  37.394  1.00  0.00     0.171 HD
ENDROOT
BRANCH   1   5
HETATM    5  C3  UNL     1      38.391  36.639  36.186  1.00  0.00     0.365 C 
BRANCH   5   6
HETATM    6  C2  UNL     1      39.137  35.397  36.515  1.00  0.00     0.260 C 
HETATM    7  N3  UNL     1      39.535  34.463  35.522  1.00  0.00    -0.309 N 
HETATM    8  C1  UNL     1      40.258  33.248  35.814  1.00  0.00     0.482 C 
ATOM      9  H3  UNL     1      39.297  34.662  34.550  1.00  0.00     0.166 HD
HETATM   10  N1  UNL     1      41.567  33.244  35.211  1.00  0.00    -0.033 N 
HETATM   11  N2  UNL     1      39.509  32.070  35.412  1.00  0.00    -0.033 N 
ATOM     12  H13 UNL     1      42.076  32.384  35.414  1.00  0.00     0.278 HD
ATOM     13  H12 UNL     1      41.516  33.154  34.195  1.00  0.00     0.278 HD
ATOM     14  H11 UNL     1      42.093  34.071  35.493  1.00  0.00     0.278 HD
ATOM     15  H23 UNL     1      39.458  31.980  34.397  1.00  0.00     0.278 HD
ATOM     16  H22 UNL     1      40.018  31.209  35.615  1.00  0.00     0.278 HD
ATOM     17  H21 UNL     1      38.582  32.072  35.840  1.00  0.00     0.278 HD
HETATM   18  O1  UNL     1      39.423  35.166  37.715  1.00  0.00    -0.271 OA
ENDBRANCH   5   6
BRANCH   5  19
HETATM   19  N4  UNL     1      37.570  36.388  35.020  1.00  0.00    -0.058 N 
ATOM     20  H43 UNL     1      37.201  37.245  34.609  1.00  0.00     0.275 HD
ATOM     21  H42 UNL     1      38.115  36.071  34.219  1.00  0.00     0.275 HD
ATOM     22  H41 UNL     1      36.835  35.730  35.278  1.00  0.00     0.275 HD
ENDBRANCH   5  19
ENDBRANCH   1   5
BRANCH   3  23
HETATM   23  C5  UNL     1      38.953  39.945  36.394  1.00  0.00     0.168 A 
HETATM   24  N6  UNL     1      37.662  40.278  36.301  1.00  0.00    -0.279 N 
HETATM   25  N7  UNL     1      37.356  41.494  36.103  1.00  0.00    -0.290 N 
ATOM     26  H6  UNL     1      36.935  39.567  36.388  1.00  0.00     0.189 HD
HETATM   27  C6  UNL     1      38.288  42.411  35.993  1.00  0.00     0.119 A 
ATOM     28  H7  UNL     1      36.374  41.760  36.029  1.00  0.00     0.188 HD
HETATM   29  S1  UNL     1      39.714  41.461  36.185  1.00  0.00    -0.031 SA
BRANCH  27  30
HETATM   30  C7  UNL     1      38.172  43.864  35.767  1.00  0.00     0.067 A 
HETATM   31  C8  UNL     1      37.086  44.555  36.245  1.00  0.00     0.035 A 
HETATM   32  C9  UNL     1      36.958  45.930  36.042  1.00  0.00     0.040 A 
HETATM   33  C10 UNL     1      37.938  46.610  35.349  1.00  0.00     0.081 A 
HETATM   34  C11 UNL     1      39.011  45.879  34.887  1.00  0.00     0.124 A 
HETATM   35  N8  UNL     1      39.110  44.538  35.099  1.00  0.00    -0.361 N 
ATOM     36  H8  UNL     1      39.920  44.036  34.738  1.00  0.00     0.165 HD
BRANCH  33  37
HETATM   37  O3  UNL     1      37.905  47.973  35.095  1.00  0.00    -0.359 OA
ATOM     38  H3  UNL     1      38.639  48.467  34.749  1.00  0.00     0.217 HD
ENDBRANCH  33  37
ENDBRANCH  27  30
ENDBRANCH   3  23
TORSDOF 6
ENDMDL
MODEL 5
REMARK VINA RESULT: -7.228709788      2.865      4.357
REMARK  6 active torsions:
REMARK  status: ('A' for Active; 'I' for Inactive)
REMARK       I    between atoms: N1_1  and  C1_5 
REMARK       I    between atoms: C1_5  and  N2_6 
REMARK       I    between atoms: C1_5  and  N3_10 
REMARK       I    between atoms: N3_10  and  C2_12 
REMARK    1  A    between atoms: C2_12  and  C3_14 
REMARK    2  A    between atoms: C3_14  and  N4_15 
REMARK    3  A    between atoms: C3_14  and  C4_19 
REMARK       I    between atoms: C4_19  and  N5_21 
REMARK    4  A    between atoms: N5_21  and  C5_23 
REMARK    5  A    between atoms: C6_28  and  C7_29 
REMARK    6  A    between atoms: C10_32  and  O3_33 
ROOT
HETATM    1  C4  UNL     1      38.060  40.348  31.349  1.00  0.00     0.263 C 
HETATM    2  O2  UNL     1      39.159  40.426  30.755  1.00  0.00    -0.270 OA
HETATM    3  N5  UNL     1      37.397  39.141  31.503  1.00  0.00    -0.304 N 
ATOM      4  H5  UNL     1      36.708  38.906  30.788  1.00  0.00     0.171 HD
ENDROOT
BRANCH   1   5
HETATM    5  C3  UNL     1      37.467  41.589  31.895  1.00  0.00     0.365 C 
BRANCH   5   6
HETATM    6  C2  UNL     1      37.958  41.717  33.292  1.00  0.00     0.260 C 
HETATM    7  N3  UNL     1      37.258  41.165  34.397  1.00  0.00    -0.309 N 
HETATM    8  C1  UNL     1      37.712  41.277  35.764  1.00  0.00     0.482 C 
ATOM      9  H3  UNL     1      36.389  40.663  34.216  1.00  0.00     0.166 HD
HETATM   10  N1  UNL     1      38.021  39.990  36.334  1.00  0.00    -0.033 N 
HETATM   11  N2  UNL     1      36.747  41.981  36.591  1.00  0.00    -0.033 N 
ATOM     12  H13 UNL     1      38.337  40.069  37.300  1.00  0.00     0.278 HD
ATOM     13  H12 UNL     1      37.180  39.434  36.493  1.00  0.00     0.278 HD
ATOM     14  H11 UNL     1      38.698  39.495  35.752  1.00  0.00     0.278 HD
ATOM     15  H23 UNL     1      35.906  41.426  36.751  1.00  0.00     0.278 HD
ATOM     16  H22 UNL     1      37.063  42.060  37.558  1.00  0.00     0.278 HD
ATOM     17  H21 UNL     1      36.528  42.893  36.188  1.00  0.00     0.278 HD
HETATM   18  O1  UNL     1      39.029  42.337  33.499  1.00  0.00    -0.271 OA
ENDBRANCH   5   6
BRANCH   5  19
HETATM   19  N4  UNL     1      36.029  41.419  31.926  1.00  0.00    -0.058 N 
ATOM     20  H43 UNL     1      35.714  40.910  32.752  1.00  0.00     0.275 HD
ATOM     21  H42 UNL     1      35.536  42.293  32.104  1.00  0.00     0.275 HD
ATOM     22  H41 UNL     1      35.736  40.974  31.057  1.00  0.00     0.275 HD
ENDBRANCH   5  19
ENDBRANCH   1   5
BRANCH   3  23
HETATM   23  C5  UNL     1      37.557  38.278  32.457  1.00  0.00     0.168 A 
HETATM   24  N6  UNL     1      36.675  37.584  33.181  1.00  0.00    -0.279 N 
HETATM   25  N7  UNL     1      37.105  36.789  34.072  1.00  0.00    -0.290 N 
ATOM     26  H6  UNL     1      35.673  37.692  33.022  1.00  0.00     0.189 HD
HETATM   27  C6  UNL     1      38.393  36.645  34.279  1.00  0.00     0.119 A 
ATOM     28  H7  UNL     1      36.441  36.255  34.633  1.00  0.00     0.188 HD
HETATM   29  S1  UNL     1      39.040  37.735  33.110  1.00  0.00    -0.031 SA
BRANCH  27  30
HETATM   30  C7  UNL     1      39.114  35.791  35.242  1.00  0.00     0.067 A 
HETATM   31  C8  UNL     1      39.369  36.245  36.513  1.00  0.00     0.035 A 
HETATM   32  C9  UNL     1      40.049  35.452  37.439  1.00  0.00     0.040 A 
HETATM   33  C10 UNL     1      40.474  34.192  37.075  1.00  0.00     0.081 A 
HETATM   34  C11 UNL     1      40.196  33.776  35.790  1.00  0.00     0.124 A 
HETATM   35  N8  UNL     1      39.532  34.570  34.907  1.00  0.00    -0.361 N 
ATOM     36  H8  UNL     1      39.349  34.223  33.966  1.00  0.00     0.165 HD
BRANCH  33  37
HETATM   37  O3  UNL     1      41.155  33.328  37.919  1.00  0.00    -0.359 OA
ATOM     38  H3  UNL     1      41.710  32.617  37.618  1.00  0.00     0.217 HD
ENDBRANCH  33  37
ENDBRANCH  27  30
ENDBRANCH   3  23
TORSDOF 6
ENDMDL
