MODEL 1
REMARK VINA RESULT: -6.267947679      0.000      0.000
REMARK  6 active torsions:
REMARK  status: ('A' for Active; 'I' for Inactive)
REMARK    1  A    between atoms: C2_2  and  C3_3 
REMARK    2  A    between atoms: C3_3  and  C5_5 
REMARK    3  A    between atoms: C5_5  and  C6_6 
REMARK    4  A    between atoms: C6_6  and  C7_7 
REMARK    5  A    between atoms: C7_7  and  N1_8 
REMARK    6  A    between atoms: N1_8  and  C8_11 
ROOT
HETATM    1  C8  UNL     1     -24.862 151.816  51.083  1.00  0.00     0.127 C 
HETATM    2  C9  UNL     1     -26.228 151.212  51.065  1.00  0.00     0.043 C 
HETATM    3  C10 UNL     1     -27.015 151.784  49.913  1.00  0.00    -0.012 C 
HETATM    4  C11 UNL     1     -27.162 153.273  50.051  1.00  0.00     0.009 C 
HETATM    5  C12 UNL     1     -25.769 153.885  50.008  1.00  0.00    -0.012 C 
HETATM    6  C13 UNL     1     -25.169 153.517  48.678  1.00  0.00     0.009 C 
HETATM    7  C14 UNL     1     -24.951 152.040  48.634  1.00  0.00    -0.012 C 
HETATM    8  C15 UNL     1     -26.322 151.377  48.640  1.00  0.00     0.009 C 
HETATM    9  C16 UNL     1     -24.156 151.501  49.795  1.00  0.00     0.043 C 
HETATM   10  C17 UNL     1     -24.954 153.344  51.164  1.00  0.00     0.043 C 
ENDROOT
BRANCH   1  11
HETATM   11  N1  UNL     1     -24.101 151.405  52.248  1.00  0.00    -0.066 N 
ATOM     12  H12 UNL     1     -23.677 152.210  52.708  1.00  0.00     0.278 HD
ATOM     13  H11 UNL     1     -23.255 150.906  51.972  1.00  0.00     0.278 HD
BRANCH  11  14
HETATM   14  C7  UNL     1     -24.868 150.636  53.172  1.00  0.00     0.233 C 
BRANCH  14  15
HETATM   15  C6  UNL     1     -24.099 150.305  54.427  1.00  0.00     0.028 C 
BRANCH  15  16
HETATM   16  C5  UNL     1     -24.823 150.649  55.683  1.00  0.00     0.006 C 
BRANCH  16  17
HETATM   17  C3  UNL     1     -24.092 151.690  56.518  1.00  0.00    -0.019 C 
HETATM   18  C4  UNL     1     -22.626 151.745  56.117  1.00  0.00     0.010 C 
BRANCH  17  19
HETATM   19  C2  UNL     1     -24.258 151.398  57.975  1.00  0.00    -0.000 C 
HETATM   20  C1  UNL     1     -25.402 152.190  58.587  1.00  0.00     0.005 C 
ENDBRANCH  17  19
ENDBRANCH  16  17
ENDBRANCH  15  16
ENDBRANCH  14  15
ENDBRANCH  11  14
ENDBRANCH   1  11
TORSDOF 6
ENDMDL
MODEL 2
REMARK VINA RESULT: -6.202577626      0.173      1.754
REMARK  6 active torsions:
REMARK  status: ('A' for Active; 'I' for Inactive)
REMARK    1  A    between atoms: C2_2  and  C3_3 
REMARK    2  A    between atoms: C3_3  and  C5_5 
REMARK    3  A    between atoms: C5_5  and  C6_6 
REMARK    4  A    between atoms: C6_6  and  C7_7 
REMARK    5  A    between atoms: C7_7  and  N1_8 
REMARK    6  A    between atoms: N1_8  and  C8_11 
ROOT
HETATM    1  C8  UNL     1     -24.854 151.903  51.160  1.00  0.00     0.127 C 
HETATM    2  C9  UNL     1     -25.011 153.388  51.116  1.00  0.00     0.043 C 
HETATM    3  C10 UNL     1     -25.741 153.777  49.855  1.00  0.00    -0.012 C 
HETATM    4  C11 UNL     1     -24.973 153.349  48.636  1.00  0.00     0.009 C 
HETATM    5  C12 UNL     1     -24.869 151.831  48.660  1.00  0.00    -0.012 C 
HETATM    6  C13 UNL     1     -26.276 151.295  48.634  1.00  0.00     0.009 C 
HETATM    7  C14 UNL     1     -26.960 151.663  49.910  1.00  0.00    -0.012 C 
HETATM    8  C15 UNL     1     -27.120 153.177  49.921  1.00  0.00     0.009 C 
HETATM    9  C16 UNL     1     -26.209 151.253  51.150  1.00  0.00     0.043 C 
HETATM   10  C17 UNL     1     -24.125 151.404  49.907  1.00  0.00     0.043 C 
ENDROOT
BRANCH   1  11
HETATM   11  N1  UNL     1     -24.042 151.475  52.284  1.00  0.00    -0.066 N 
ATOM     12  H12 UNL     1     -23.601 152.274  52.740  1.00  0.00     0.278 HD
ATOM     13  H11 UNL     1     -23.207 150.984  51.964  1.00  0.00     0.278 HD
BRANCH  11  14
HETATM   14  C7  UNL     1     -24.767 150.687  53.226  1.00  0.00     0.233 C 
BRANCH  14  15
HETATM   15  C6  UNL     1     -23.937 150.318  54.430  1.00  0.00     0.028 C 
BRANCH  15  16
HETATM   16  C5  UNL     1     -24.646 150.499  55.727  1.00  0.00     0.006 C 
BRANCH  16  17
HETATM   17  C3  UNL     1     -24.106 151.670  56.536  1.00  0.00    -0.019 C 
HETATM   18  C4  UNL     1     -22.617 151.841  56.274  1.00  0.00     0.010 C 
BRANCH  17  19
HETATM   19  C2  UNL     1     -24.394 151.473  57.990  1.00  0.00    -0.000 C 
HETATM   20  C1  UNL     1     -25.369 152.511  58.522  1.00  0.00     0.005 C 
ENDBRANCH  17  19
ENDBRANCH  16  17
ENDBRANCH  15  16
ENDBRANCH  14  15
ENDBRANCH  11  14
ENDBRANCH   1  11
TORSDOF 6
ENDMDL
MODEL 3
REMARK VINA RESULT: -6.167813999      0.126      1.758
REMARK  6 active torsions:
REMARK  status: ('A' for Active; 'I' for Inactive)
REMARK    1  A    between atoms: C2_2  and  C3_3 
REMARK    2  A    between atoms: C3_3  and  C5_5 
REMARK    3  A    between atoms: C5_5  and  C6_6 
REMARK    4  A    between atoms: C6_6  and  C7_7 
REMARK    5  A    between atoms: C7_7  and  N1_8 
REMARK    6  A    between atoms: N1_8  and  C8_11 
ROOT
HETATM    1  C8  UNL     1     -24.688 151.921  51.073  1.00  0.00     0.127 C 
HETATM    2  C9  UNL     1     -23.995 151.623  49.784  1.00  0.00     0.043 C 
HETATM    3  C10 UNL     1     -24.866 152.061  48.634  1.00  0.00    -0.012 C 
HETATM    4  C11 UNL     1     -26.177 151.325  48.643  1.00  0.00     0.009 C 
HETATM    5  C12 UNL     1     -26.902 151.682  49.933  1.00  0.00    -0.012 C 
HETATM    6  C13 UNL     1     -27.113 153.172  49.920  1.00  0.00     0.009 C 
HETATM    7  C14 UNL     1     -25.786 153.852  50.014  1.00  0.00    -0.012 C 
HETATM    8  C15 UNL     1     -25.029 153.554  48.726  1.00  0.00     0.009 C 
HETATM    9  C16 UNL     1     -24.944 153.398  51.178  1.00  0.00     0.043 C 
HETATM   10  C17 UNL     1     -26.062 151.240  51.112  1.00  0.00     0.043 C 
ENDROOT
BRANCH   1  11
HETATM   11  N1  UNL     1     -23.959 151.402  52.215  1.00  0.00    -0.066 N 
ATOM     12  H12 UNL     1     -23.438 152.143  52.682  1.00  0.00     0.278 HD
ATOM     13  H11 UNL     1     -23.181 150.815  51.914  1.00  0.00     0.278 HD
BRANCH  11  14
HETATM   14  C7  UNL     1     -24.794 150.707  53.139  1.00  0.00     0.233 C 
BRANCH  14  15
HETATM   15  C6  UNL     1     -24.057 150.302  54.392  1.00  0.00     0.028 C 
BRANCH  15  16
HETATM   16  C5  UNL     1     -24.802 150.595  55.649  1.00  0.00     0.006 C 
BRANCH  16  17
HETATM   17  C3  UNL     1     -24.132 151.668  56.494  1.00  0.00    -0.019 C 
HETATM   18  C4  UNL     1     -22.656 151.765  56.139  1.00  0.00     0.010 C 
BRANCH  17  19
HETATM   19  C2  UNL     1     -24.336 151.387  57.948  1.00  0.00    -0.000 C 
HETATM   20  C1  UNL     1     -25.399 152.287  58.557  1.00  0.00     0.005 C 
ENDBRANCH  17  19
ENDBRANCH  16  17
ENDBRANCH  15  16
ENDBRANCH  14  15
ENDBRANCH  11  14
ENDBRANCH   1  11
TORSDOF 6
ENDMDL
MODEL 4
REMARK VINA RESULT: -6.161090157      0.730      2.069
REMARK  6 active torsions:
REMARK  status: ('A' for Active; 'I' for Inactive)
REMARK    1  A    between atoms: C2_2  and  C3_3 
REMARK    2  A    between atoms: C3_3  and  C5_5 
REMARK    3  A    between atoms: C5_5  and  C6_6 
REMARK    4  A    between atoms: C6_6  and  C7_7 
REMARK    5  A    between atoms: C7_7  and  N1_8 
REMARK    6  A    between atoms: N1_8  and  C8_11 
ROOT
HETATM    1  C8  UNL     1     -24.551 151.977  51.048  1.00  0.00     0.127 C 
HETATM    2  C9  UNL     1     -23.945 151.743  49.703  1.00  0.00     0.043 C 
HETATM    3  C10 UNL     1     -24.958 152.065  48.634  1.00  0.00    -0.012 C 
HETATM    4  C11 UNL     1     -26.171 151.187  48.762  1.00  0.00     0.009 C 
HETATM    5  C12 UNL     1     -26.815 151.475  50.110  1.00  0.00    -0.012 C 
HETATM    6  C13 UNL     1     -27.194 152.932  50.112  1.00  0.00     0.009 C 
HETATM    7  C14 UNL     1     -25.950 153.759  50.086  1.00  0.00    -0.012 C 
HETATM    8  C15 UNL     1     -25.281 153.532  48.736  1.00  0.00     0.009 C 
HETATM    9  C16 UNL     1     -24.963 153.418  51.171  1.00  0.00     0.043 C 
HETATM   10  C17 UNL     1     -25.829 151.147  51.211  1.00  0.00     0.043 C 
ENDROOT
BRANCH   1  11
HETATM   11  N1  UNL     1     -23.670 151.559  52.122  1.00  0.00    -0.066 N 
ATOM     12  H12 UNL     1     -23.050 152.318  52.402  1.00  0.00     0.278 HD
ATOM     13  H11 UNL     1     -22.975 150.892  51.784  1.00  0.00     0.278 HD
BRANCH  11  14
HETATM   14  C7  UNL     1     -24.373 151.034  53.246  1.00  0.00     0.233 C 
BRANCH  14  15
HETATM   15  C6  UNL     1     -23.533 151.022  54.499  1.00  0.00     0.028 C 
BRANCH  15  16
HETATM   16  C5  UNL     1     -24.326 150.887  55.753  1.00  0.00     0.006 C 
BRANCH  16  17
HETATM   17  C3  UNL     1     -23.851 151.823  56.855  1.00  0.00    -0.019 C 
HETATM   18  C4  UNL     1     -24.472 151.421  58.184  1.00  0.00     0.010 C 
BRANCH  17  19
HETATM   19  C2  UNL     1     -24.165 153.242  56.502  1.00  0.00    -0.000 C 
HETATM   20  C1  UNL     1     -24.940 153.943  57.606  1.00  0.00     0.005 C 
ENDBRANCH  17  19
ENDBRANCH  16  17
ENDBRANCH  15  16
ENDBRANCH  14  15
ENDBRANCH  11  14
ENDBRANCH   1  11
TORSDOF 6
ENDMDL
MODEL 5
REMARK VINA RESULT: -5.979799837      0.892      1.193
REMARK  6 active torsions:
REMARK  status: ('A' for Active; 'I' for Inactive)
REMARK    1  A    between atoms: C2_2  and  C3_3 
REMARK    2  A    between atoms: C3_3  and  C5_5 
REMARK    3  A    between atoms: C5_5  and  C6_6 
REMARK    4  A    between atoms: C6_6  and  C7_7 
REMARK    5  A    between atoms: C7_7  and  N1_8 
REMARK    6  A    between atoms: N1_8  and  C8_11 
ROOT
HETATM    1  C8  UNL     1     -24.770 151.763  51.134  1.00  0.00     0.127 C 
HETATM    2  C9  UNL     1     -26.069 151.030  51.065  1.00  0.00     0.043 C 
HETATM    3  C10 UNL     1     -26.860 151.521  49.879  1.00  0.00    -0.012 C 
HETATM    4  C11 UNL     1     -27.155 152.990  50.003  1.00  0.00     0.009 C 
HETATM    5  C12 UNL     1     -25.827 153.733  50.013  1.00  0.00    -0.012 C 
HETATM    6  C13 UNL     1     -25.141 153.423  48.709  1.00  0.00     0.009 C 
HETATM    7  C14 UNL     1     -24.781 151.974  48.682  1.00  0.00    -0.012 C 
HETATM    8  C15 UNL     1     -26.081 151.182  48.637  1.00  0.00     0.009 C 
HETATM    9  C16 UNL     1     -23.985 151.517  49.876  1.00  0.00     0.043 C 
HETATM   10  C17 UNL     1     -25.012 153.276  51.203  1.00  0.00     0.043 C 
ENDROOT
BRANCH   1  11
HETATM   11  N1  UNL     1     -24.020 151.430  52.330  1.00  0.00    -0.066 N 
ATOM     12  H12 UNL     1     -23.666 152.271  52.785  1.00  0.00     0.278 HD
ATOM     13  H11 UNL     1     -23.133 150.984  52.091  1.00  0.00     0.278 HD
BRANCH  11  14
HETATM   14  C7  UNL     1     -24.762 150.628  53.247  1.00  0.00     0.233 C 
BRANCH  14  15
HETATM   15  C6  UNL     1     -24.146 150.605  54.624  1.00  0.00     0.028 C 
BRANCH  15  16
HETATM   16  C5  UNL     1     -25.122 150.325  55.714  1.00  0.00     0.006 C 
BRANCH  16  17
HETATM   17  C3  UNL     1     -25.249 151.476  56.701  1.00  0.00    -0.019 C 
HETATM   18  C4  UNL     1     -24.216 151.329  57.809  1.00  0.00     0.010 C 
BRANCH  17  19
HETATM   19  C2  UNL     1     -26.640 151.543  57.246  1.00  0.00    -0.000 C 
HETATM   20  C1  UNL     1     -27.586 150.615  56.502  1.00  0.00     0.005 C 
ENDBRANCH  17  19
ENDBRANCH  16  17
ENDBRANCH  15  16
ENDBRANCH  14  15
ENDBRANCH  11  14
ENDBRANCH   1  11
TORSDOF 6
ENDMDL
