MODEL 1
REMARK VINA RESULT: -6.711952463      0.000      0.000
REMARK  7 active torsions:
REMARK  status: ('A' for Active; 'I' for Inactive)
REMARK    1  A    between atoms: C2_2  and  C3_3 
REMARK    2  A    between atoms: C8_8  and  C9_9 
REMARK    3  A    between atoms: C9_9  and  C11_11 
REMARK    4  A    between atoms: C12_12  and  C13_13 
REMARK    5  A    between atoms: C14_14  and  C15_15 
REMARK    6  A    between atoms: C16_16  and  C17_17 
REMARK    7  A    between atoms: C17_17  and  N1_18 
ROOT
HETATM    1  C9  UNL     1     -23.960 150.290  54.876  1.00  0.00     0.008 C 
HETATM    2  C10 UNL     1     -22.727 151.125  55.067  1.00  0.00     0.014 C 
ENDROOT
BRANCH   1   3
HETATM    3  C8  UNL     1     -24.983 150.507  55.985  1.00  0.00    -0.006 C 
HETATM    4  C7  UNL     1     -26.379 150.418  55.492  1.00  0.00     0.005 C 
HETATM    5  C6  UNL     1     -27.394 151.146  56.302  1.00  0.00     0.001 C 
HETATM    6  C5  UNL     1     -26.917 151.422  57.700  1.00  0.00     0.013 C 
HETATM    7  C3  UNL     1     -25.639 152.220  57.705  1.00  0.00    -0.027 C 
HETATM    8  C4  UNL     1     -25.124 152.165  59.151  1.00  0.00     0.019 C 
HETATM    9  C18 UNL     1     -24.616 151.734  56.741  1.00  0.00     0.018 C 
BRANCH   7  10
HETATM   10  C2  UNL     1     -25.999 153.636  57.436  1.00  0.00    -0.028 C 
HETATM   11  C1  UNL     1     -26.090 154.541  58.399  1.00  0.00     0.007 C 
ENDBRANCH   7  10
ENDBRANCH   1   3
BRANCH   1  12
HETATM   12  C11 UNL     1     -24.532 150.616  53.547  1.00  0.00    -0.022 C 
HETATM   13  C12 UNL     1     -24.028 151.541  52.758  1.00  0.00    -0.004 C 
BRANCH  13  14
HETATM   14  C13 UNL     1     -24.632 151.816  51.468  1.00  0.00    -0.000 C 
HETATM   15  C14 UNL     1     -25.589 151.039  51.002  1.00  0.00    -0.000 C 
BRANCH  15  16
HETATM   16  C15 UNL     1     -26.206 151.300  49.713  1.00  0.00    -0.002 C 
HETATM   17  C16 UNL     1     -27.040 152.276  49.476  1.00  0.00     0.000 C 
BRANCH  17  18
HETATM   18  C17 UNL     1     -27.516 153.289  50.444  1.00  0.00     0.257 C 
BRANCH  18  19
HETATM   19  N1  UNL     1     -26.821 154.542  50.162  1.00  0.00    -0.076 N 
ATOM     20  H13 UNL     1     -25.908 154.399  49.728  1.00  0.00     0.274 HD
ATOM     21  H12 UNL     1     -27.251 155.070  49.403  1.00  0.00     0.274 HD
ATOM     22  H11 UNL     1     -26.765 155.073  51.031  1.00  0.00     0.274 HD
ENDBRANCH  18  19
ENDBRANCH  17  18
ENDBRANCH  15  16
ENDBRANCH  13  14
ENDBRANCH   1  12
TORSDOF 7
ENDMDL
MODEL 2
REMARK VINA RESULT: -6.544215873      1.631      1.826
REMARK  7 active torsions:
REMARK  status: ('A' for Active; 'I' for Inactive)
REMARK    1  A    between atoms: C2_2  and  C3_3 
REMARK    2  A    between atoms: C8_8  and  C9_9 
REMARK    3  A    between atoms: C9_9  and  C11_11 
REMARK    4  A    between atoms: C12_12  and  C13_13 
REMARK    5  A    between atoms: C14_14  and  C15_15 
REMARK    6  A    between atoms: C16_16  and  C17_17 
REMARK    7  A    between atoms: C17_17  and  N1_18 
ROOT
HETATM    1  C9  UNL     1     -24.081 150.252  54.794  1.00  0.00     0.008 C 
HETATM    2  C10 UNL     1     -22.830 151.074  54.915  1.00  0.00     0.014 C 
ENDROOT
BRANCH   1   3
HETATM    3  C8  UNL     1     -25.035 150.475  55.961  1.00  0.00    -0.006 C 
HETATM    4  C7  UNL     1     -26.458 150.374  55.554  1.00  0.00     0.005 C 
HETATM    5  C6  UNL     1     -27.426 151.105  56.418  1.00  0.00     0.001 C 
HETATM    6  C5  UNL     1     -26.867 151.398  57.781  1.00  0.00     0.013 C 
HETATM    7  C3  UNL     1     -25.596 152.203  57.700  1.00  0.00    -0.027 C 
HETATM    8  C4  UNL     1     -24.993 152.166  59.112  1.00  0.00     0.019 C 
HETATM    9  C18 UNL     1     -24.630 151.712  56.680  1.00  0.00     0.018 C 
BRANCH   7  10
HETATM   10  C2  UNL     1     -25.979 153.615  57.439  1.00  0.00    -0.028 C 
HETATM   11  C1  UNL     1     -26.110 154.506  58.410  1.00  0.00     0.007 C 
ENDBRANCH   7  10
ENDBRANCH   1   3
BRANCH   1  12
HETATM   12  C11 UNL     1     -24.725 150.588  53.501  1.00  0.00    -0.022 C 
HETATM   13  C12 UNL     1     -24.223 151.464  52.656  1.00  0.00    -0.004 C 
BRANCH  13  14
HETATM   14  C13 UNL     1     -24.901 151.751  51.406  1.00  0.00    -0.000 C 
HETATM   15  C14 UNL     1     -25.705 150.859  50.863  1.00  0.00    -0.000 C 
BRANCH  15  16
HETATM   16  C15 UNL     1     -26.392 151.131  49.612  1.00  0.00    -0.002 C 
HETATM   17  C16 UNL     1     -27.278 150.342  49.069  1.00  0.00     0.000 C 
BRANCH  17  18
HETATM   18  C17 UNL     1     -27.753 149.045  49.600  1.00  0.00     0.257 C 
BRANCH  18  19
HETATM   19  N1  UNL     1     -29.017 148.725  48.942  1.00  0.00    -0.076 N 
ATOM     20  H13 UNL     1     -29.235 149.360  48.174  1.00  0.00     0.274 HD
ATOM     21  H12 UNL     1     -28.972 147.863  48.398  1.00  0.00     0.274 HD
ATOM     22  H11 UNL     1     -29.746 148.704  49.655  1.00  0.00     0.274 HD
ENDBRANCH  18  19
ENDBRANCH  17  18
ENDBRANCH  15  16
ENDBRANCH  13  14
ENDBRANCH   1  12
TORSDOF 7
ENDMDL
MODEL 3
REMARK VINA RESULT: -6.283603486      3.745      6.652
REMARK  7 active torsions:
REMARK  status: ('A' for Active; 'I' for Inactive)
REMARK    1  A    between atoms: C2_2  and  C3_3 
REMARK    2  A    between atoms: C8_8  and  C9_9 
REMARK    3  A    between atoms: C9_9  and  C11_11 
REMARK    4  A    between atoms: C12_12  and  C13_13 
REMARK    5  A    between atoms: C14_14  and  C15_15 
REMARK    6  A    between atoms: C16_16  and  C17_17 
REMARK    7  A    between atoms: C17_17  and  N1_18 
ROOT
HETATM    1  C9  UNL     1     -26.000 154.290  57.891  1.00  0.00     0.008 C 
HETATM    2  C10 UNL     1     -25.637 154.721  59.283  1.00  0.00     0.014 C 
ENDROOT
BRANCH   1   3
HETATM    3  C8  UNL     1     -25.520 152.876  57.581  1.00  0.00    -0.006 C 
HETATM    4  C7  UNL     1     -24.996 152.181  58.782  1.00  0.00     0.005 C 
HETATM    5  C6  UNL     1     -24.021 151.088  58.517  1.00  0.00     0.001 C 
HETATM    6  C5  UNL     1     -24.110 150.572  57.108  1.00  0.00     0.013 C 
HETATM    7  C3  UNL     1     -23.887 151.668  56.099  1.00  0.00    -0.027 C 
HETATM    8  C4  UNL     1     -24.298 151.072  54.744  1.00  0.00     0.019 C 
HETATM    9  C18 UNL     1     -24.627 152.924  56.392  1.00  0.00     0.018 C 
BRANCH   7  10
HETATM   10  C2  UNL     1     -22.423 151.914  56.027  1.00  0.00    -0.028 C 
HETATM   11  C1  UNL     1     -21.671 151.441  55.044  1.00  0.00     0.007 C 
ENDBRANCH   7  10
ENDBRANCH   1   3
BRANCH   1  12
HETATM   12  C11 UNL     1     -27.471 154.400  57.748  1.00  0.00    -0.022 C 
HETATM   13  C12 UNL     1     -28.256 153.357  57.580  1.00  0.00    -0.004 C 
BRANCH  13  14
HETATM   14  C13 UNL     1     -29.690 153.530  57.446  1.00  0.00    -0.000 C 
HETATM   15  C14 UNL     1     -30.409 153.950  58.467  1.00  0.00    -0.000 C 
BRANCH  15  16
HETATM   16  C15 UNL     1     -31.846 154.129  58.349  1.00  0.00    -0.002 C 
HETATM   17  C16 UNL     1     -32.662 153.250  57.835  1.00  0.00     0.000 C 
BRANCH  17  18
HETATM   18  C17 UNL     1     -32.302 151.925  57.283  1.00  0.00     0.257 C 
BRANCH  18  19
HETATM   19  N1  UNL     1     -32.334 150.957  58.376  1.00  0.00    -0.076 N 
ATOM     20  H13 UNL     1     -32.257 149.993  58.052  1.00  0.00     0.274 HD
ATOM     21  H12 UNL     1     -31.489 150.978  58.947  1.00  0.00     0.274 HD
ATOM     22  H11 UNL     1     -33.181 151.125  58.920  1.00  0.00     0.274 HD
ENDBRANCH  18  19
ENDBRANCH  17  18
ENDBRANCH  15  16
ENDBRANCH  13  14
ENDBRANCH   1  12
TORSDOF 7
ENDMDL
MODEL 4
REMARK VINA RESULT: -6.275453958      2.834      5.623
REMARK  7 active torsions:
REMARK  status: ('A' for Active; 'I' for Inactive)
REMARK    1  A    between atoms: C2_2  and  C3_3 
REMARK    2  A    between atoms: C8_8  and  C9_9 
REMARK    3  A    between atoms: C9_9  and  C11_11 
REMARK    4  A    between atoms: C12_12  and  C13_13 
REMARK    5  A    between atoms: C14_14  and  C15_15 
REMARK    6  A    between atoms: C16_16  and  C17_17 
REMARK    7  A    between atoms: C17_17  and  N1_18 
ROOT
HETATM    1  C9  UNL     1     -26.727 153.506  58.806  1.00  0.00     0.008 C 
HETATM    2  C10 UNL     1     -26.171 154.813  59.294  1.00  0.00     0.014 C 
ENDROOT
BRANCH   1   3
HETATM    3  C8  UNL     1     -28.028 153.684  58.031  1.00  0.00    -0.006 C 
HETATM    4  C7  UNL     1     -29.112 154.250  58.871  1.00  0.00     0.005 C 
HETATM    5  C6  UNL     1     -30.498 153.942  58.423  1.00  0.00     0.001 C 
HETATM    6  C5  UNL     1     -30.555 153.542  56.976  1.00  0.00     0.013 C 
HETATM    7  C3  UNL     1     -29.684 152.345  56.694  1.00  0.00    -0.027 C 
HETATM    8  C4  UNL     1     -29.606 152.242  55.164  1.00  0.00     0.019 C 
HETATM    9  C18 UNL     1     -28.331 152.421  57.308  1.00  0.00     0.018 C 
BRANCH   7  10
HETATM   10  C2  UNL     1     -30.418 151.141  57.164  1.00  0.00    -0.028 C 
HETATM   11  C1  UNL     1     -31.518 150.704  56.569  1.00  0.00     0.007 C 
ENDBRANCH   7  10
ENDBRANCH   1   3
BRANCH   1  12
HETATM   12  C11 UNL     1     -25.690 152.852  57.971  1.00  0.00    -0.022 C 
HETATM   13  C12 UNL     1     -24.896 151.906  58.425  1.00  0.00    -0.004 C 
BRANCH  13  14
HETATM   14  C13 UNL     1     -23.900 151.304  57.559  1.00  0.00    -0.000 C 
HETATM   15  C14 UNL     1     -23.623 151.842  56.388  1.00  0.00    -0.000 C 
BRANCH  15  16
HETATM   16  C15 UNL     1     -22.627 151.253  55.509  1.00  0.00    -0.002 C 
HETATM   17  C16 UNL     1     -22.853 150.886  54.277  1.00  0.00     0.000 C 
BRANCH  17  18
HETATM   18  C17 UNL     1     -24.133 150.992  53.542  1.00  0.00     0.257 C 
BRANCH  18  19
HETATM   19  N1  UNL     1     -24.932 149.810  53.858  1.00  0.00    -0.076 N 
ATOM     20  H13 UNL     1     -24.457 149.170  54.495  1.00  0.00     0.274 HD
ATOM     21  H12 UNL     1     -25.734 150.023  54.452  1.00  0.00     0.274 HD
ATOM     22  H11 UNL     1     -25.199 149.367  52.979  1.00  0.00     0.274 HD
ENDBRANCH  18  19
ENDBRANCH  17  18
ENDBRANCH  15  16
ENDBRANCH  13  14
ENDBRANCH   1  12
TORSDOF 7
ENDMDL
MODEL 5
REMARK VINA RESULT: -6.145170665      2.496      6.962
REMARK  7 active torsions:
REMARK  status: ('A' for Active; 'I' for Inactive)
REMARK    1  A    between atoms: C2_2  and  C3_3 
REMARK    2  A    between atoms: C8_8  and  C9_9 
REMARK    3  A    between atoms: C9_9  and  C11_11 
REMARK    4  A    between atoms: C12_12  and  C13_13 
REMARK    5  A    between atoms: C14_14  and  C15_15 
REMARK    6  A    between atoms: C16_16  and  C17_17 
REMARK    7  A    between atoms: C17_17  and  N1_18 
ROOT
HETATM    1  C9  UNL     1     -25.069 150.210  51.721  1.00  0.00     0.008 C 
HETATM    2  C10 UNL     1     -25.523 148.829  52.096  1.00  0.00     0.014 C 
ENDROOT
BRANCH   1   3
HETATM    3  C8  UNL     1     -26.142 150.986  50.965  1.00  0.00    -0.006 C 
HETATM    4  C7  UNL     1     -26.630 150.256  49.770  1.00  0.00     0.005 C 
HETATM    5  C6  UNL     1     -27.211 151.104  48.692  1.00  0.00     0.001 C 
HETATM    6  C5  UNL     1     -27.637 152.454  49.196  1.00  0.00     0.013 C 
HETATM    7  C3  UNL     1     -26.490 153.200  49.827  1.00  0.00    -0.027 C 
HETATM    8  C4  UNL     1     -27.124 154.399  50.547  1.00  0.00     0.019 C 
HETATM    9  C18 UNL     1     -25.666 152.379  50.753  1.00  0.00     0.018 C 
BRANCH   7  10
HETATM   10  C2  UNL     1     -25.663 153.757  48.724  1.00  0.00    -0.028 C 
HETATM   11  C1  UNL     1     -25.376 155.047  48.634  1.00  0.00     0.007 C 
ENDBRANCH   7  10
ENDBRANCH   1   3
BRANCH   1  12
HETATM   12  C11 UNL     1     -24.674 150.914  52.965  1.00  0.00    -0.022 C 
HETATM   13  C12 UNL     1     -24.230 150.287  54.034  1.00  0.00    -0.004 C 
BRANCH  13  14
HETATM   14  C13 UNL     1     -23.859 151.032  55.222  1.00  0.00    -0.000 C 
HETATM   15  C14 UNL     1     -24.475 150.814  56.366  1.00  0.00    -0.000 C 
BRANCH  15  16
HETATM   16  C15 UNL     1     -24.115 151.550  57.565  1.00  0.00    -0.002 C 
HETATM   17  C16 UNL     1     -24.959 152.214  58.307  1.00  0.00     0.000 C 
BRANCH  17  18
HETATM   18  C17 UNL     1     -26.416 152.348  58.087  1.00  0.00     0.257 C 
BRANCH  18  19
HETATM   19  N1  UNL     1     -26.949 153.227  59.125  1.00  0.00    -0.076 N 
ATOM     20  H13 UNL     1     -27.543 152.734  59.792  1.00  0.00     0.274 HD
ATOM     21  H12 UNL     1     -26.235 153.540  59.782  1.00  0.00     0.274 HD
ATOM     22  H11 UNL     1     -27.430 154.000  58.666  1.00  0.00     0.274 HD
ENDBRANCH  18  19
ENDBRANCH  17  18
ENDBRANCH  15  16
ENDBRANCH  13  14
ENDBRANCH   1  12
TORSDOF 7
ENDMDL
