MODEL 1
REMARK VINA RESULT: -4.935764073      0.000      0.000
REMARK  6 active torsions:
REMARK  status: ('A' for Active; 'I' for Inactive)
REMARK    1  A    between atoms: C2_2  and  O1_3 
REMARK    2  A    between atoms: C2_2  and  C3_5 
REMARK    3  A    between atoms: C4_6  and  C5_7 
REMARK    4  A    between atoms: C5_7  and  C6_8 
REMARK    5  A    between atoms: C6_8  and  C7_9 
REMARK    6  A    between atoms: C7_9  and  C8_10 
ROOT
HETATM    1  C5  UNL     1     -26.030 151.819  57.245  1.00  0.00    -0.019 C 
HETATM    2  C12 UNL     1     -25.554 153.163  56.646  1.00  0.00     0.044 C 
HETATM    3  C13 UNL     1     -25.800 154.322  57.547  1.00  0.00     0.273 C 
HETATM    4  N1  UNL     1     -25.237 154.207  58.863  1.00  0.00     0.084 N 
HETATM    5  C14 UNL     1     -25.918 155.112  59.771  1.00  0.00     0.309 C 
HETATM    6  C15 UNL     1     -25.404 152.862  59.382  1.00  0.00     0.273 C 
HETATM    7  C16 UNL     1     -26.509 152.198  58.633  1.00  0.00     0.044 C 
ENDROOT
BRANCH   1   8
HETATM    8  C4  UNL     1     -24.902 150.914  57.203  1.00  0.00    -0.015 C 
HETATM    9  C3  UNL     1     -24.301 150.206  56.100  1.00  0.00     0.028 C 
BRANCH   9  10
HETATM   10  C2  UNL     1     -23.707 150.858  54.908  1.00  0.00     0.039 C 
HETATM   11  C1  UNL     1     -24.461 150.689  53.623  1.00  0.00     0.076 C 
BRANCH  10  12
HETATM   12  O1  UNL     1     -22.344 150.890  54.821  1.00  0.00    -0.365 OA
ATOM     13  H1  UNL     1     -21.864 150.897  55.641  1.00  0.00     0.217 HD
ENDBRANCH  10  12
ENDBRANCH   9  10
ENDBRANCH   1   8
BRANCH   1  14
HETATM   14  C6  UNL     1     -27.173 151.409  56.370  1.00  0.00     0.014 C 
BRANCH  14  15
HETATM   15  C7  UNL     1     -28.332 150.806  57.120  1.00  0.00     0.010 C 
BRANCH  15  16
HETATM   16  C8  UNL     1     -29.572 151.618  56.767  1.00  0.00    -0.044 A 
HETATM   17  C9  UNL     1     -30.638 150.729  56.099  1.00  0.00     0.015 C 
HETATM   18  C10 UNL     1     -29.509 152.978  56.239  1.00  0.00     0.010 A 
HETATM   19  C11 UNL     1     -30.105 152.677  57.612  1.00  0.00     0.010 A 
ENDBRANCH  15  16
ENDBRANCH  14  15
ENDBRANCH   1  14
TORSDOF 6
ENDMDL
MODEL 2
REMARK VINA RESULT: -4.909571439      0.471      1.080
REMARK  6 active torsions:
REMARK  status: ('A' for Active; 'I' for Inactive)
REMARK    1  A    between atoms: C2_2  and  O1_3 
REMARK    2  A    between atoms: C2_2  and  C3_5 
REMARK    3  A    between atoms: C4_6  and  C5_7 
REMARK    4  A    between atoms: C5_7  and  C6_8 
REMARK    5  A    between atoms: C6_8  and  C7_9 
REMARK    6  A    between atoms: C7_9  and  C8_10 
ROOT
HETATM    1  C5  UNL     1     -26.128 151.879  57.292  1.00  0.00    -0.019 C 
HETATM    2  C12 UNL     1     -25.674 153.219  56.669  1.00  0.00     0.044 C 
HETATM    3  C13 UNL     1     -25.856 154.379  57.585  1.00  0.00     0.273 C 
HETATM    4  N1  UNL     1     -25.219 154.255  58.866  1.00  0.00     0.084 N 
HETATM    5  C14 UNL     1     -25.837 155.165  59.813  1.00  0.00     0.309 C 
HETATM    6  C15 UNL     1     -25.369 152.911  59.391  1.00  0.00     0.273 C 
HETATM    7  C16 UNL     1     -26.522 152.259  58.706  1.00  0.00     0.044 C 
ENDROOT
BRANCH   1   8
HETATM    8  C4  UNL     1     -25.014 150.963  57.182  1.00  0.00    -0.015 C 
HETATM    9  C3  UNL     1     -24.535 150.190  56.065  1.00  0.00     0.028 C 
BRANCH   9  10
HETATM   10  C2  UNL     1     -24.067 150.769  54.782  1.00  0.00     0.039 C 
HETATM   11  C1  UNL     1     -24.862 150.399  53.565  1.00  0.00     0.076 C 
BRANCH  10  12
HETATM   12  O1  UNL     1     -22.720 150.921  54.613  1.00  0.00    -0.365 OA
ATOM     13  H1  UNL     1     -22.163 150.596  55.310  1.00  0.00     0.217 HD
ENDBRANCH  10  12
ENDBRANCH   9  10
ENDBRANCH   1   8
BRANCH   1  14
HETATM   14  C6  UNL     1     -27.325 151.483  56.484  1.00  0.00     0.014 C 
BRANCH  14  15
HETATM   15  C7  UNL     1     -28.465 150.939  57.305  1.00  0.00     0.010 C 
BRANCH  15  16
HETATM   16  C8  UNL     1     -29.713 151.723  56.922  1.00  0.00    -0.044 A 
HETATM   17  C9  UNL     1     -29.476 153.238  57.069  1.00  0.00     0.015 C 
HETATM   18  C10 UNL     1     -31.063 151.291  57.274  1.00  0.00     0.010 A 
HETATM   19  C11 UNL     1     -30.591 151.348  55.823  1.00  0.00     0.010 A 
ENDBRANCH  15  16
ENDBRANCH  14  15
ENDBRANCH   1  14
TORSDOF 6
ENDMDL
MODEL 3
REMARK VINA RESULT: -4.881404135      2.654      4.509
REMARK  6 active torsions:
REMARK  status: ('A' for Active; 'I' for Inactive)
REMARK    1  A    between atoms: C2_2  and  O1_3 
REMARK    2  A    between atoms: C2_2  and  C3_5 
REMARK    3  A    between atoms: C4_6  and  C5_7 
REMARK    4  A    between atoms: C5_7  and  C6_8 
REMARK    5  A    between atoms: C6_8  and  C7_9 
REMARK    6  A    between atoms: C7_9  and  C8_10 
ROOT
HETATM    1  C5  UNL     1     -27.921 151.712  57.079  1.00  0.00    -0.019 C 
HETATM    2  C12 UNL     1     -28.676 150.364  57.158  1.00  0.00     0.044 C 
HETATM    3  C13 UNL     1     -28.344 149.444  56.036  1.00  0.00     0.273 C 
HETATM    4  N1  UNL     1     -26.947 149.154  55.873  1.00  0.00     0.084 N 
HETATM    5  C14 UNL     1     -26.698 148.676  54.525  1.00  0.00     0.309 C 
HETATM    6  C15 UNL     1     -26.144 150.346  56.068  1.00  0.00     0.273 C 
HETATM    7  C16 UNL     1     -27.014 151.542  55.877  1.00  0.00     0.044 C 
ENDROOT
BRANCH   1   8
HETATM    8  C4  UNL     1     -27.246 151.893  58.346  1.00  0.00    -0.015 C 
HETATM    9  C3  UNL     1     -26.029 152.591  58.675  1.00  0.00     0.028 C 
BRANCH   9  10
HETATM   10  C2  UNL     1     -25.805 154.040  58.452  1.00  0.00     0.039 C 
HETATM   11  C1  UNL     1     -24.910 154.396  57.303  1.00  0.00     0.076 C 
BRANCH  10  12
HETATM   12  O1  UNL     1     -25.740 154.844  59.554  1.00  0.00    -0.365 OA
ATOM     13  H1  UNL     1     -25.594 155.770  59.398  1.00  0.00     0.217 HD
ENDBRANCH  10  12
ENDBRANCH   9  10
ENDBRANCH   1   8
BRANCH   1  14
HETATM   14  C6  UNL     1     -28.994 152.721  56.810  1.00  0.00     0.014 C 
BRANCH  14  15
HETATM   15  C7  UNL     1     -29.737 153.166  58.044  1.00  0.00     0.010 C 
BRANCH  15  16
HETATM   16  C8  UNL     1     -31.217 152.897  57.803  1.00  0.00    -0.044 A 
HETATM   17  C9  UNL     1     -32.052 154.169  58.043  1.00  0.00     0.015 C 
HETATM   18  C10 UNL     1     -31.877 151.661  58.211  1.00  0.00     0.010 A 
HETATM   19  C11 UNL     1     -31.714 152.034  56.741  1.00  0.00     0.010 A 
ENDBRANCH  15  16
ENDBRANCH  14  15
ENDBRANCH   1  14
TORSDOF 6
ENDMDL
MODEL 4
REMARK VINA RESULT: -4.881045131      2.668      4.379
REMARK  6 active torsions:
REMARK  status: ('A' for Active; 'I' for Inactive)
REMARK    1  A    between atoms: C2_2  and  O1_3 
REMARK    2  A    between atoms: C2_2  and  C3_5 
REMARK    3  A    between atoms: C4_6  and  C5_7 
REMARK    4  A    between atoms: C5_7  and  C6_8 
REMARK    5  A    between atoms: C6_8  and  C7_9 
REMARK    6  A    between atoms: C7_9  and  C8_10 
ROOT
HETATM    1  C5  UNL     1     -27.669 151.547  56.887  1.00  0.00    -0.019 C 
HETATM    2  C12 UNL     1     -28.521 150.290  57.181  1.00  0.00     0.044 C 
HETATM    3  C13 UNL     1     -28.442 149.268  56.101  1.00  0.00     0.273 C 
HETATM    4  N1  UNL     1     -27.115 148.829  55.767  1.00  0.00     0.084 N 
HETATM    5  C14 UNL     1     -27.111 148.240  54.441  1.00  0.00     0.309 C 
HETATM    6  C15 UNL     1     -26.189 149.946  55.751  1.00  0.00     0.273 C 
HETATM    7  C16 UNL     1     -26.968 151.207  55.587  1.00  0.00     0.044 C 
ENDROOT
BRANCH   1   8
HETATM    8  C4  UNL     1     -26.801 151.745  58.027  1.00  0.00    -0.015 C 
HETATM    9  C3  UNL     1     -25.551 152.451  58.151  1.00  0.00     0.028 C 
BRANCH   9  10
HETATM   10  C2  UNL     1     -25.374 153.898  57.880  1.00  0.00     0.039 C 
HETATM   11  C1  UNL     1     -24.313 154.255  56.881  1.00  0.00     0.076 C 
BRANCH  10  12
HETATM   12  O1  UNL     1     -25.549 154.761  58.924  1.00  0.00    -0.365 OA
ATOM     13  H1  UNL     1     -26.179 154.506  59.588  1.00  0.00     0.217 HD
ENDBRANCH  10  12
ENDBRANCH   9  10
ENDBRANCH   1   8
BRANCH   1  14
HETATM   14  C6  UNL     1     -28.677 152.637  56.691  1.00  0.00     0.014 C 
BRANCH  14  15
HETATM   15  C7  UNL     1     -29.024 153.382  57.954  1.00  0.00     0.010 C 
BRANCH  15  16
HETATM   16  C8  UNL     1     -30.538 153.546  57.981  1.00  0.00    -0.044 A 
HETATM   17  C9  UNL     1     -31.234 152.313  57.373  1.00  0.00     0.015 C 
HETATM   18  C10 UNL     1     -31.207 154.812  57.698  1.00  0.00     0.010 A 
HETATM   19  C11 UNL     1     -31.259 154.170  59.081  1.00  0.00     0.010 A 
ENDBRANCH  15  16
ENDBRANCH  14  15
ENDBRANCH   1  14
TORSDOF 6
ENDMDL
MODEL 5
REMARK VINA RESULT: -4.673219974      2.215      4.647
REMARK  6 active torsions:
REMARK  status: ('A' for Active; 'I' for Inactive)
REMARK    1  A    between atoms: C2_2  and  O1_3 
REMARK    2  A    between atoms: C2_2  and  C3_5 
REMARK    3  A    between atoms: C4_6  and  C5_7 
REMARK    4  A    between atoms: C5_7  and  C6_8 
REMARK    5  A    between atoms: C6_8  and  C7_9 
REMARK    6  A    between atoms: C7_9  and  C8_10 
ROOT
HETATM    1  C5  UNL     1     -28.563 151.530  56.638  1.00  0.00    -0.019 C 
HETATM    2  C12 UNL     1     -29.185 151.715  58.042  1.00  0.00     0.044 C 
HETATM    3  C13 UNL     1     -30.586 152.215  57.996  1.00  0.00     0.273 C 
HETATM    4  N1  UNL     1     -31.495 151.424  57.216  1.00  0.00     0.084 N 
HETATM    5  C14 UNL     1     -32.650 152.222  56.846  1.00  0.00     0.309 C 
HETATM    6  C15 UNL     1     -30.867 150.972  55.988  1.00  0.00     0.273 C 
HETATM    7  C16 UNL     1     -29.703 151.858  55.696  1.00  0.00     0.044 C 
ENDROOT
BRANCH   1   8
HETATM    8  C4  UNL     1     -28.072 150.170  56.570  1.00  0.00    -0.015 C 
HETATM    9  C3  UNL     1     -27.098 149.561  55.699  1.00  0.00     0.028 C 
BRANCH   9  10
HETATM   10  C2  UNL     1     -25.679 149.982  55.603  1.00  0.00     0.039 C 
HETATM   11  C1  UNL     1     -25.218 150.428  54.247  1.00  0.00     0.076 C 
BRANCH  10  12
HETATM   12  O1  UNL     1     -24.770 149.314  56.372  1.00  0.00    -0.365 OA
ATOM     13  H1  UNL     1     -24.258 149.836  56.978  1.00  0.00     0.217 HD
ENDBRANCH  10  12
ENDBRANCH   9  10
ENDBRANCH   1   8
BRANCH   1  14
HETATM   14  C6  UNL     1     -27.487 152.570  56.571  1.00  0.00     0.014 C 
BRANCH  14  15
HETATM   15  C7  UNL     1     -27.434 153.472  57.777  1.00  0.00     0.010 C 
BRANCH  15  16
HETATM   16  C8  UNL     1     -26.001 153.453  58.294  1.00  0.00    -0.044 A 
HETATM   17  C9  UNL     1     -25.719 154.684  59.176  1.00  0.00     0.015 C 
HETATM   18  C10 UNL     1     -24.867 153.028  57.479  1.00  0.00     0.010 A 
HETATM   19  C11 UNL     1     -25.313 152.238  58.706  1.00  0.00     0.010 A 
ENDBRANCH  15  16
ENDBRANCH  14  15
ENDBRANCH   1  14
TORSDOF 6
ENDMDL
