MODEL 1
REMARK VINA RESULT: -7.323896651      0.000      0.000
REMARK  12 active torsions:
REMARK  status: ('A' for Active; 'I' for Inactive)
REMARK    1  A    between atoms: C2_2  and  C3_3 
REMARK    2  A    between atoms: C3_3  and  C4_4 
REMARK    3  A    between atoms: C4_4  and  C5_5 
REMARK    4  A    between atoms: C5_5  and  C6_6 
REMARK    5  A    between atoms: C6_6  and  C7_7 
REMARK    6  A    between atoms: C7_7  and  C8_8 
REMARK    7  A    between atoms: C8_8  and  N1_9 
REMARK    8  A    between atoms: C13_14  and  N2_15 
REMARK       I    between atoms: N2_15  and  C14_17 
REMARK       I    between atoms: C14_17  and  N3_19 
REMARK    9  A    between atoms: C24_31  and  N5_32 
REMARK   10  A    between atoms: N5_32  and  C26_34 
REMARK   11  A    between atoms: C26_34  and  N6_36 
REMARK   12  A    between atoms: N6_36  and  C27_38 
ROOT
HETATM    1  N1  UNL     1       6.357   5.712  20.079  1.00  0.00    -0.002 N 
HETATM    2  C9  UNL     1       6.312   4.414  20.720  1.00  0.00     0.283 C 
HETATM    3  C10 UNL     1       5.019   5.909  19.553  1.00  0.00     0.272 C 
HETATM    4  C11 UNL     1       4.598   7.232  20.048  1.00  0.00     0.105 C 
HETATM    5  C12 UNL     1       3.211   7.747  19.907  1.00  0.00     0.051 C 
HETATM    6  C13 UNL     1       3.309   9.088  20.662  1.00  0.00     0.088 C 
HETATM    7  C21 UNL     1       4.412   9.110  21.742  1.00  0.00     0.037 C 
HETATM    8  C22 UNL     1       5.785   9.073  21.323  1.00  0.00     0.061 C 
HETATM    9  C23 UNL     1       5.786   9.349  19.789  1.00  0.00     0.125 C 
HETATM   10  N4  UNL     1       5.374   8.119  19.303  1.00  0.00    -0.415 N 
ATOM     11  H4  UNL     1       5.649   7.851  18.358  1.00  0.00     0.153 HD
HETATM   12  C24 UNL     1       6.802   8.061  21.528  1.00  0.00     0.095 C 
HETATM   13  C29 UNL     1       6.855   6.730  20.974  1.00  0.00     0.364 C 
HETATM   14  O2  UNL     1       7.817   6.162  21.545  1.00  0.00    -0.258 OA
ENDROOT
BRANCH   6  15
HETATM   15  N2  UNL     1       2.063   9.188  21.396  1.00  0.00    -0.338 N 
HETATM   16  C14 UNL     1       1.265  10.354  21.418  1.00  0.00     0.318 C 
HETATM   17  O1  UNL     1       1.707  11.337  20.743  1.00  0.00    -0.247 OA
HETATM   18  N3  UNL     1       0.057  10.511  22.104  1.00  0.00    -0.334 N 
HETATM   19  C15 UNL     1      -0.517   9.447  22.895  1.00  0.00     0.127 C 
HETATM   20  C20 UNL     1      -0.588  11.827  21.968  1.00  0.00     0.127 C 
HETATM   21  C16 UNL     1      -0.350   9.783  24.379  1.00  0.00     0.020 C 
HETATM   22  C17 UNL     1       0.634  10.881  24.608  1.00  0.00     0.002 C 
HETATM   23  C18 UNL     1       0.132  12.255  24.327  1.00  0.00     0.002 C 
HETATM   24  C19 UNL     1      -0.997  12.326  23.338  1.00  0.00     0.020 C 
ATOM     25  H2  UNL     1       1.745   8.375  21.923  1.00  0.00     0.164 HD
ENDBRANCH   6  15
BRANCH  12  26
HETATM   26  N5  UNL     1       7.479   8.260  22.826  1.00  0.00    -0.327 N 
HETATM   27  C25 UNL     1       8.465   9.377  22.857  1.00  0.00     0.159 C 
BRANCH  26  28
HETATM   28  C26 UNL     1       7.251   7.562  23.990  1.00  0.00     0.173 C 
HETATM   29  S1  UNL     1       8.444   7.755  25.175  1.00  0.00    -0.041 SA
BRANCH  28  30
HETATM   30  N6  UNL     1       6.263   6.691  24.365  1.00  0.00    -0.367 N 
ATOM     31  H6  UNL     1       6.627   5.813  24.734  1.00  0.00     0.161 HD
BRANCH  30  32
HETATM   32  C27 UNL     1       4.842   6.739  24.353  1.00  0.00     0.117 C 
HETATM   33  C28 UNL     1       4.149   5.784  23.421  1.00  0.00     0.026 C 
ENDBRANCH  30  32
ENDBRANCH  28  30
ENDBRANCH  26  28
ENDBRANCH  12  26
BRANCH   1  34
HETATM   34  C8  UNL     1       7.240   5.717  18.931  1.00  0.00     0.247 C 
BRANCH  34  35
HETATM   35  C7  UNL     1       6.880   4.914  17.750  1.00  0.00     0.029 C 
BRANCH  35  36
HETATM   36  C6  UNL     1       7.876   3.872  17.326  1.00  0.00     0.002 C 
BRANCH  36  37
HETATM   37  C5  UNL     1       8.978   3.598  18.294  1.00  0.00     0.000 C 
BRANCH  37  38
HETATM   38  C4  UNL     1       9.774   2.410  17.867  1.00  0.00     0.000 C 
BRANCH  38  39
HETATM   39  C3  UNL     1       9.183   1.094  18.338  1.00  0.00    -0.000 C 
BRANCH  39  40
HETATM   40  C2  UNL     1       9.121   0.152  17.183  1.00  0.00    -0.005 C 
HETATM   41  C1  UNL     1       7.714   0.270  16.598  1.00  0.00     0.005 C 
ENDBRANCH  39  40
ENDBRANCH  38  39
ENDBRANCH  37  38
ENDBRANCH  36  37
ENDBRANCH  35  36
ENDBRANCH  34  35
ENDBRANCH   1  34
TORSDOF 12
ENDMDL
MODEL 2
REMARK VINA RESULT: -7.045621081      3.521      5.283
REMARK  12 active torsions:
REMARK  status: ('A' for Active; 'I' for Inactive)
REMARK    1  A    between atoms: C2_2  and  C3_3 
REMARK    2  A    between atoms: C3_3  and  C4_4 
REMARK    3  A    between atoms: C4_4  and  C5_5 
REMARK    4  A    between atoms: C5_5  and  C6_6 
REMARK    5  A    between atoms: C6_6  and  C7_7 
REMARK    6  A    between atoms: C7_7  and  C8_8 
REMARK    7  A    between atoms: C8_8  and  N1_9 
REMARK    8  A    between atoms: C13_14  and  N2_15 
REMARK       I    between atoms: N2_15  and  C14_17 
REMARK       I    between atoms: C14_17  and  N3_19 
REMARK    9  A    between atoms: C24_31  and  N5_32 
REMARK   10  A    between atoms: N5_32  and  C26_34 
REMARK   11  A    between atoms: C26_34  and  N6_36 
REMARK   12  A    between atoms: N6_36  and  C27_38 
ROOT
HETATM    1  N1  UNL     1       5.411   5.255  19.986  1.00  0.00    -0.002 N 
HETATM    2  C9  UNL     1       4.176   4.665  20.463  1.00  0.00     0.283 C 
HETATM    3  C10 UNL     1       5.233   5.371  18.550  1.00  0.00     0.272 C 
HETATM    4  C11 UNL     1       5.559   6.772  18.231  1.00  0.00     0.105 C 
HETATM    5  C12 UNL     1       5.319   7.376  16.895  1.00  0.00     0.051 C 
HETATM    6  C13 UNL     1       5.740   8.838  17.145  1.00  0.00     0.088 C 
HETATM    7  C21 UNL     1       5.602   9.277  18.618  1.00  0.00     0.037 C 
HETATM    8  C22 UNL     1       6.483   8.700  19.593  1.00  0.00     0.061 C 
HETATM    9  C23 UNL     1       7.608   7.974  18.796  1.00  0.00     0.125 C 
HETATM   10  N4  UNL     1       6.943   6.827  18.392  1.00  0.00    -0.415 N 
ATOM     11  H4  UNL     1       7.490   5.987  18.203  1.00  0.00     0.153 HD
HETATM   12  C24 UNL     1       6.197   7.835  20.721  1.00  0.00     0.095 C 
HETATM   13  C29 UNL     1       5.729   6.470  20.698  1.00  0.00     0.364 C 
HETATM   14  O2  UNL     1       5.470   6.179  21.890  1.00  0.00    -0.258 OA
ENDROOT
BRANCH   6  15
HETATM   15  N2  UNL     1       4.762   9.630  16.423  1.00  0.00    -0.338 N 
HETATM   16  C14 UNL     1       5.095  10.485  15.349  1.00  0.00     0.318 C 
HETATM   17  O1  UNL     1       6.328  10.527  15.039  1.00  0.00    -0.247 OA
HETATM   18  N3  UNL     1       4.200  11.271  14.617  1.00  0.00    -0.334 N 
HETATM   19  C15 UNL     1       2.783  11.286  14.902  1.00  0.00     0.127 C 
HETATM   20  C20 UNL     1       4.794  12.080  13.539  1.00  0.00     0.127 C 
HETATM   21  C16 UNL     1       2.424  12.611  15.576  1.00  0.00     0.020 C 
HETATM   22  C17 UNL     1       3.627  13.346  16.067  1.00  0.00     0.002 C 
HETATM   23  C18 UNL     1       4.409  14.060  15.020  1.00  0.00     0.002 C 
HETATM   24  C19 UNL     1       4.272  13.498  13.633  1.00  0.00     0.020 C 
ATOM     25  H2  UNL     1       3.784   9.566  16.705  1.00  0.00     0.164 HD
ENDBRANCH   6  15
BRANCH  12  26
HETATM   26  N5  UNL     1       5.835   8.633  21.909  1.00  0.00    -0.327 N 
HETATM   27  C25 UNL     1       4.432   9.135  21.927  1.00  0.00     0.159 C 
BRANCH  26  28
HETATM   28  C26 UNL     1       6.635   8.905  22.996  1.00  0.00     0.173 C 
HETATM   29  S1  UNL     1       5.882   8.700  24.497  1.00  0.00    -0.041 SA
BRANCH  28  30
HETATM   30  N6  UNL     1       7.921   9.365  23.102  1.00  0.00    -0.367 N 
ATOM     31  H6  UNL     1       7.979  10.383  23.109  1.00  0.00     0.161 HD
BRANCH  30  32
HETATM   32  C27 UNL     1       9.192   8.738  23.205  1.00  0.00     0.117 C 
HETATM   33  C28 UNL     1       9.971   9.010  24.462  1.00  0.00     0.026 C 
ENDBRANCH  30  32
ENDBRANCH  28  30
ENDBRANCH  26  28
ENDBRANCH  12  26
BRANCH   1  34
HETATM   34  C8  UNL     1       6.540   4.368  20.177  1.00  0.00     0.247 C 
BRANCH  34  35
HETATM   35  C7  UNL     1       6.341   3.103  20.905  1.00  0.00     0.029 C 
BRANCH  35  36
HETATM   36  C6  UNL     1       6.820   1.858  20.217  1.00  0.00     0.002 C 
BRANCH  36  37
HETATM   37  C5  UNL     1       6.278   1.625  18.847  1.00  0.00     0.000 C 
BRANCH  37  38
HETATM   38  C4  UNL     1       7.375   1.280  17.895  1.00  0.00     0.000 C 
BRANCH  38  39
HETATM   39  C3  UNL     1       8.694   0.984  18.585  1.00  0.00    -0.000 C 
BRANCH  39  40
HETATM   40  C2  UNL     1       9.770   1.787  17.934  1.00  0.00    -0.005 C 
HETATM   41  C1  UNL     1       9.308   3.243  17.964  1.00  0.00     0.005 C 
ENDBRANCH  39  40
ENDBRANCH  38  39
ENDBRANCH  37  38
ENDBRANCH  36  37
ENDBRANCH  35  36
ENDBRANCH  34  35
ENDBRANCH   1  34
TORSDOF 12
ENDMDL
MODEL 3
REMARK VINA RESULT: -7.015381272      3.487      4.773
REMARK  12 active torsions:
REMARK  status: ('A' for Active; 'I' for Inactive)
REMARK    1  A    between atoms: C2_2  and  C3_3 
REMARK    2  A    between atoms: C3_3  and  C4_4 
REMARK    3  A    between atoms: C4_4  and  C5_5 
REMARK    4  A    between atoms: C5_5  and  C6_6 
REMARK    5  A    between atoms: C6_6  and  C7_7 
REMARK    6  A    between atoms: C7_7  and  C8_8 
REMARK    7  A    between atoms: C8_8  and  N1_9 
REMARK    8  A    between atoms: C13_14  and  N2_15 
REMARK       I    between atoms: N2_15  and  C14_17 
REMARK       I    between atoms: C14_17  and  N3_19 
REMARK    9  A    between atoms: C24_31  and  N5_32 
REMARK   10  A    between atoms: N5_32  and  C26_34 
REMARK   11  A    between atoms: C26_34  and  N6_36 
REMARK   12  A    between atoms: N6_36  and  C27_38 
ROOT
HETATM    1  N1  UNL     1       6.591   5.631  20.166  1.00  0.00    -0.002 N 
HETATM    2  C9  UNL     1       5.486   4.852  20.686  1.00  0.00     0.283 C 
HETATM    3  C10 UNL     1       6.188   5.989  18.818  1.00  0.00     0.272 C 
HETATM    4  C11 UNL     1       6.368   7.448  18.734  1.00  0.00     0.105 C 
HETATM    5  C12 UNL     1       5.887   8.260  17.585  1.00  0.00     0.051 C 
HETATM    6  C13 UNL     1       6.244   9.686  18.053  1.00  0.00     0.088 C 
HETATM    7  C21 UNL     1       6.304   9.835  19.588  1.00  0.00     0.037 C 
HETATM    8  C22 UNL     1       7.361   9.175  20.301  1.00  0.00     0.061 C 
HETATM    9  C23 UNL     1       8.396   8.715  19.232  1.00  0.00     0.125 C 
HETATM   10  N4  UNL     1       7.754   7.604  18.709  1.00  0.00    -0.415 N 
ATOM     11  H4  UNL     1       8.319   6.867  18.288  1.00  0.00     0.153 HD
HETATM   12  C24 UNL     1       7.309   8.097  21.269  1.00  0.00     0.095 C 
HETATM   13  C29 UNL     1       6.934   6.722  21.048  1.00  0.00     0.364 C 
HETATM   14  O2  UNL     1       6.880   6.196  22.186  1.00  0.00    -0.258 OA
ENDROOT
BRANCH   6  15
HETATM   15  N2  UNL     1       5.116  10.500  17.640  1.00  0.00    -0.338 N 
HETATM   16  C14 UNL     1       5.072  11.200  16.413  1.00  0.00     0.318 C 
HETATM   17  O1  UNL     1       6.096  11.076  15.670  1.00  0.00    -0.247 OA
HETATM   18  N3  UNL     1       4.017  11.998  15.961  1.00  0.00    -0.334 N 
HETATM   19  C15 UNL     1       2.816  12.194  16.741  1.00  0.00     0.127 C 
HETATM   20  C20 UNL     1       4.209  12.623  14.642  1.00  0.00     0.127 C 
HETATM   21  C16 UNL     1       2.820  13.613  17.314  1.00  0.00     0.020 C 
HETATM   22  C17 UNL     1       4.162  14.261  17.225  1.00  0.00     0.002 C 
HETATM   23  C18 UNL     1       4.534  14.775  15.878  1.00  0.00     0.002 C 
HETATM   24  C19 UNL     1       3.849  14.091  14.728  1.00  0.00     0.020 C 
ATOM     25  H2  UNL     1       4.315  10.571  18.267  1.00  0.00     0.164 HD
ENDBRANCH   6  15
BRANCH  12  26
HETATM   26  N5  UNL     1       7.082   8.630  22.628  1.00  0.00    -0.327 N 
HETATM   27  C25 UNL     1       5.661   8.944  22.951  1.00  0.00     0.159 C 
BRANCH  26  28
HETATM   28  C26 UNL     1       8.026   8.808  23.613  1.00  0.00     0.173 C 
HETATM   29  S1  UNL     1       7.633   8.111  25.104  1.00  0.00    -0.041 SA
BRANCH  28  30
HETATM   30  N6  UNL     1       9.213   9.491  23.640  1.00  0.00    -0.367 N 
ATOM     31  H6  UNL     1       9.119  10.462  23.343  1.00  0.00     0.161 HD
BRANCH  30  32
HETATM   32  C27 UNL     1      10.547   9.146  23.990  1.00  0.00     0.117 C 
HETATM   33  C28 UNL     1      10.804   8.862  25.443  1.00  0.00     0.026 C 
ENDBRANCH  30  32
ENDBRANCH  28  30
ENDBRANCH  26  28
ENDBRANCH  12  26
BRANCH   1  34
HETATM   34  C8  UNL     1       7.793   4.835  20.023  1.00  0.00     0.247 C 
BRANCH  34  35
HETATM   35  C7  UNL     1       7.783   3.687  19.100  1.00  0.00     0.029 C 
BRANCH  35  36
HETATM   36  C6  UNL     1       8.919   3.612  18.121  1.00  0.00     0.002 C 
BRANCH  36  37
HETATM   37  C5  UNL     1       9.618   2.296  18.041  1.00  0.00     0.000 C 
BRANCH  37  38
HETATM   38  C4  UNL     1       8.678   1.177  18.345  1.00  0.00     0.000 C 
BRANCH  38  39
HETATM   39  C3  UNL     1       8.232   0.418  17.110  1.00  0.00    -0.000 C 
BRANCH  39  40
HETATM   40  C2  UNL     1       6.832   0.812  16.780  1.00  0.00    -0.005 C 
HETATM   41  C1  UNL     1       6.907   1.699  15.538  1.00  0.00     0.005 C 
ENDBRANCH  39  40
ENDBRANCH  38  39
ENDBRANCH  37  38
ENDBRANCH  36  37
ENDBRANCH  35  36
ENDBRANCH  34  35
ENDBRANCH   1  34
TORSDOF 12
ENDMDL
MODEL 4
REMARK VINA RESULT: -6.987377589      0.968      1.448
REMARK  12 active torsions:
REMARK  status: ('A' for Active; 'I' for Inactive)
REMARK    1  A    between atoms: C2_2  and  C3_3 
REMARK    2  A    between atoms: C3_3  and  C4_4 
REMARK    3  A    between atoms: C4_4  and  C5_5 
REMARK    4  A    between atoms: C5_5  and  C6_6 
REMARK    5  A    between atoms: C6_6  and  C7_7 
REMARK    6  A    between atoms: C7_7  and  C8_8 
REMARK    7  A    between atoms: C8_8  and  N1_9 
REMARK    8  A    between atoms: C13_14  and  N2_15 
REMARK       I    between atoms: N2_15  and  C14_17 
REMARK       I    between atoms: C14_17  and  N3_19 
REMARK    9  A    between atoms: C24_31  and  N5_32 
REMARK   10  A    between atoms: N5_32  and  C26_34 
REMARK   11  A    between atoms: C26_34  and  N6_36 
REMARK   12  A    between atoms: N6_36  and  C27_38 
ROOT
HETATM    1  N1  UNL     1       6.397   5.757  20.230  1.00  0.00    -0.002 N 
HETATM    2  C9  UNL     1       6.336   4.474  20.901  1.00  0.00     0.283 C 
HETATM    3  C10 UNL     1       5.079   5.931  19.648  1.00  0.00     0.272 C 
HETATM    4  C11 UNL     1       4.631   7.262  20.093  1.00  0.00     0.105 C 
HETATM    5  C12 UNL     1       3.248   7.763  19.886  1.00  0.00     0.051 C 
HETATM    6  C13 UNL     1       3.308   9.124  20.610  1.00  0.00     0.088 C 
HETATM    7  C21 UNL     1       4.368   9.180  21.730  1.00  0.00     0.037 C 
HETATM    8  C22 UNL     1       5.756   9.144  21.365  1.00  0.00     0.061 C 
HETATM    9  C23 UNL     1       5.815   9.381  19.826  1.00  0.00     0.125 C 
HETATM   10  N4  UNL     1       5.429   8.136  19.356  1.00  0.00    -0.415 N 
ATOM     11  H4  UNL     1       5.742   7.847  18.429  1.00  0.00     0.153 HD
HETATM   12  C24 UNL     1       6.772   8.144  21.635  1.00  0.00     0.095 C 
HETATM   13  C29 UNL     1       6.855   6.800  21.117  1.00  0.00     0.364 C 
HETATM   14  O2  UNL     1       7.797   6.254  21.738  1.00  0.00    -0.258 OA
ENDROOT
BRANCH   6  15
HETATM   15  N2  UNL     1       2.033   9.233  21.294  1.00  0.00    -0.338 N 
HETATM   16  C14 UNL     1       1.246  10.406  21.286  1.00  0.00     0.318 C 
HETATM   17  O1  UNL     1       1.723  11.386  20.631  1.00  0.00    -0.247 OA
HETATM   18  N3  UNL     1       0.013  10.572  21.923  1.00  0.00    -0.334 N 
HETATM   19  C15 UNL     1      -0.603   9.511  22.688  1.00  0.00     0.127 C 
HETATM   20  C20 UNL     1      -0.616  11.893  21.764  1.00  0.00     0.127 C 
HETATM   21  C16 UNL     1      -0.493   9.842  24.178  1.00  0.00     0.020 C 
HETATM   22  C17 UNL     1       0.491  10.932  24.449  1.00  0.00     0.002 C 
HETATM   23  C18 UNL     1       0.012  12.311  24.151  1.00  0.00     0.002 C 
HETATM   24  C19 UNL     1      -1.076  12.393  23.117  1.00  0.00     0.020 C 
ATOM     25  H2  UNL     1       1.688   8.422  21.806  1.00  0.00     0.164 HD
ENDBRANCH   6  15
BRANCH  12  26
HETATM   26  N5  UNL     1       7.397   8.381  22.951  1.00  0.00    -0.327 N 
HETATM   27  C25 UNL     1       8.273   9.584  23.025  1.00  0.00     0.159 C 
BRANCH  26  28
HETATM   28  C26 UNL     1       7.208   7.643  24.098  1.00  0.00     0.173 C 
HETATM   29  S1  UNL     1       5.591   7.293  24.455  1.00  0.00    -0.041 SA
BRANCH  28  30
HETATM   30  N6  UNL     1       8.078   7.175  25.047  1.00  0.00    -0.367 N 
ATOM     31  H6  UNL     1       7.974   6.176  25.223  1.00  0.00     0.161 HD
BRANCH  30  32
HETATM   32  C27 UNL     1       9.094   7.774  25.841  1.00  0.00     0.117 C 
HETATM   33  C28 UNL     1       9.757   6.887  26.858  1.00  0.00     0.026 C 
ENDBRANCH  30  32
ENDBRANCH  28  30
ENDBRANCH  26  28
ENDBRANCH  12  26
BRANCH   1  34
HETATM   34  C8  UNL     1       7.324   5.739  19.117  1.00  0.00     0.247 C 
BRANCH  34  35
HETATM   35  C7  UNL     1       6.942   5.034  17.881  1.00  0.00     0.029 C 
BRANCH  35  36
HETATM   36  C6  UNL     1       7.878   3.956  17.414  1.00  0.00     0.002 C 
BRANCH  36  37
HETATM   37  C5  UNL     1       8.955   3.575  18.374  1.00  0.00     0.000 C 
BRANCH  37  38
HETATM   38  C4  UNL     1       9.774   2.450  17.831  1.00  0.00     0.000 C 
BRANCH  38  39
HETATM   39  C3  UNL     1       9.329   1.090  18.334  1.00  0.00    -0.000 C 
BRANCH  39  40
HETATM   40  C2  UNL     1       9.229   0.156  17.174  1.00  0.00    -0.005 C 
HETATM   41  C1  UNL     1       7.807   0.287  16.629  1.00  0.00     0.005 C 
ENDBRANCH  39  40
ENDBRANCH  38  39
ENDBRANCH  37  38
ENDBRANCH  36  37
ENDBRANCH  35  36
ENDBRANCH  34  35
ENDBRANCH   1  34
TORSDOF 12
ENDMDL
MODEL 5
REMARK VINA RESULT: -6.982229362      3.427      4.423
REMARK  12 active torsions:
REMARK  status: ('A' for Active; 'I' for Inactive)
REMARK    1  A    between atoms: C2_2  and  C3_3 
REMARK    2  A    between atoms: C3_3  and  C4_4 
REMARK    3  A    between atoms: C4_4  and  C5_5 
REMARK    4  A    between atoms: C5_5  and  C6_6 
REMARK    5  A    between atoms: C6_6  and  C7_7 
REMARK    6  A    between atoms: C7_7  and  C8_8 
REMARK    7  A    between atoms: C8_8  and  N1_9 
REMARK    8  A    between atoms: C13_14  and  N2_15 
REMARK       I    between atoms: N2_15  and  C14_17 
REMARK       I    between atoms: C14_17  and  N3_19 
REMARK    9  A    between atoms: C24_31  and  N5_32 
REMARK   10  A    between atoms: N5_32  and  C26_34 
REMARK   11  A    between atoms: C26_34  and  N6_36 
REMARK   12  A    between atoms: N6_36  and  C27_38 
ROOT
HETATM    1  N1  UNL     1       6.049   6.083  19.263  1.00  0.00    -0.002 N 
HETATM    2  C9  UNL     1       4.979   5.331  19.885  1.00  0.00     0.283 C 
HETATM    3  C10 UNL     1       5.448   6.666  18.078  1.00  0.00     0.272 C 
HETATM    4  C11 UNL     1       5.770   8.102  18.147  1.00  0.00     0.105 C 
HETATM    5  C12 UNL     1       5.180   9.111  17.229  1.00  0.00     0.051 C 
HETATM    6  C13 UNL     1       5.771  10.418  17.796  1.00  0.00     0.088 C 
HETATM    7  C21 UNL     1       6.127  10.335  19.295  1.00  0.00     0.037 C 
HETATM    8  C22 UNL     1       7.216   9.492  19.697  1.00  0.00     0.061 C 
HETATM    9  C23 UNL     1       7.982   9.108  18.396  1.00  0.00     0.125 C 
HETATM   10  N4  UNL     1       7.137   8.143  17.871  1.00  0.00    -0.415 N 
ATOM     11  H4  UNL     1       7.531   7.431  17.257  1.00  0.00     0.153 HD
HETATM   12  C24 UNL     1       7.224   8.291  20.511  1.00  0.00     0.095 C 
HETATM   13  C29 UNL     1       6.665   6.999  20.193  1.00  0.00     0.364 C 
HETATM   14  O2  UNL     1       6.763   6.319  21.242  1.00  0.00    -0.258 OA
ENDROOT
BRANCH   6  15
HETATM   15  N2  UNL     1       4.684  11.375  17.720  1.00  0.00    -0.338 N 
HETATM   16  C14 UNL     1       4.480  12.233  16.615  1.00  0.00     0.318 C 
HETATM   17  O1  UNL     1       5.319  12.119  15.666  1.00  0.00    -0.247 OA
HETATM   18  N3  UNL     1       3.454  13.173  16.484  1.00  0.00    -0.334 N 
HETATM   19  C15 UNL     1       2.458  13.369  17.513  1.00  0.00     0.127 C 
HETATM   20  C20 UNL     1       3.455  13.948  15.232  1.00  0.00     0.127 C 
HETATM   21  C16 UNL     1       2.734  14.694  18.227  1.00  0.00     0.020 C 
HETATM   22  C17 UNL     1       4.098  15.227  17.935  1.00  0.00     0.002 C 
HETATM   23  C18 UNL     1       4.255  15.881  16.606  1.00  0.00     0.002 C 
HETATM   24  C19 UNL     1       3.286  15.418  15.555  1.00  0.00     0.020 C 
ATOM     25  H2  UNL     1       4.034  11.433  18.503  1.00  0.00     0.164 HD
ENDBRANCH   6  15
BRANCH  12  26
HETATM   26  N5  UNL     1       7.308   8.636  21.944  1.00  0.00    -0.327 N 
HETATM   27  C25 UNL     1       8.692   8.807  22.470  1.00  0.00     0.159 C 
BRANCH  26  28
HETATM   28  C26 UNL     1       6.255   8.858  22.803  1.00  0.00     0.173 C 
HETATM   29  S1  UNL     1       6.609   8.597  24.437  1.00  0.00    -0.041 SA
BRANCH  28  30
HETATM   30  N6  UNL     1       4.947   9.202  22.588  1.00  0.00    -0.367 N 
ATOM     31  H6  UNL     1       4.780  10.204  22.679  1.00  0.00     0.161 HD
BRANCH  30  32
HETATM   32  C27 UNL     1       3.771   8.472  22.266  1.00  0.00     0.117 C 
HETATM   33  C28 UNL     1       3.289   8.573  20.845  1.00  0.00     0.026 C 
ENDBRANCH  30  32
ENDBRANCH  28  30
ENDBRANCH  26  28
ENDBRANCH  12  26
BRANCH   1  34
HETATM   34  C8  UNL     1       7.109   5.218  18.787  1.00  0.00     0.247 C 
BRANCH  34  35
HETATM   35  C7  UNL     1       7.006   4.639  17.436  1.00  0.00     0.029 C 
BRANCH  35  36
HETATM   36  C6  UNL     1       8.033   3.605  17.076  1.00  0.00     0.002 C 
BRANCH  36  37
HETATM   37  C5  UNL     1       9.069   3.333  18.115  1.00  0.00     0.000 C 
BRANCH  37  38
HETATM   38  C4  UNL     1       9.206   1.866  18.355  1.00  0.00     0.000 C 
BRANCH  38  39
HETATM   39  C3  UNL     1       7.872   1.153  18.478  1.00  0.00    -0.000 C 
BRANCH  39  40
HETATM   40  C2  UNL     1       7.212   1.581  19.746  1.00  0.00    -0.005 C 
HETATM   41  C1  UNL     1       5.732   1.784  19.422  1.00  0.00     0.005 C 
ENDBRANCH  39  40
ENDBRANCH  38  39
ENDBRANCH  37  38
ENDBRANCH  36  37
ENDBRANCH  35  36
ENDBRANCH  34  35
ENDBRANCH   1  34
TORSDOF 12
ENDMDL
