MODEL 1
REMARK VINA RESULT: -8.657461107      0.000      0.000
REMARK  11 active torsions:
REMARK  status: ('A' for Active; 'I' for Inactive)
REMARK    1  A    between atoms: C4_4  and  C5_5 
REMARK    2  A    between atoms: C9_13  and  C10_14 
REMARK    3  A    between atoms: C10_14  and  C11_15 
REMARK    4  A    between atoms: C11_15  and  N3_16 
REMARK       I    between atoms: N3_16  and  C12_18 
REMARK    5  A    between atoms: C12_18  and  C13_20 
REMARK    6  A    between atoms: C13_20  and  C14_21 
REMARK    7  A    between atoms: C14_21  and  C15_22 
REMARK    8  A    between atoms: C15_22  and  C16_23 
REMARK    9  A    between atoms: C16_23  and  C17_24 
REMARK       I    between atoms: N4_27  and  C20_28 
REMARK   10  A    between atoms: C20_28  and  C21_30 
REMARK       I    between atoms: N5_34  and  C25_35 
REMARK   11  A    between atoms: C25_35  and  C26_37 
ROOT
HETATM    1  C1  UNL     1      10.866   8.007  26.429  1.00  0.00     0.027 C 
HETATM    2  C2  UNL     1      10.219   8.348  25.470  1.00  0.00    -0.026 C 
HETATM    3  C3  UNL     1       9.446   8.727  24.349  1.00  0.00    -0.009 C 
HETATM    4  C4  UNL     1       8.770   9.035  23.389  1.00  0.00    -0.034 C 
ENDROOT
BRANCH   4   5
HETATM    5  C5  UNL     1       7.965   9.370  22.259  1.00  0.00     0.101 A 
HETATM    6  N1  UNL     1       8.314  10.114  21.201  1.00  0.00    -0.356 N 
HETATM    7  C6  UNL     1       7.317  10.217  20.330  1.00  0.00     0.119 A 
ATOM      8  H1  UNL     1       9.230  10.546  21.080  1.00  0.00     0.166 HD
HETATM    9  C7  UNL     1       6.250   9.497  20.845  1.00  0.00     0.061 A 
HETATM   10  N2  UNL     1       4.979   9.140  20.580  1.00  0.00    -0.363 N 
HETATM   11  C32 UNL     1       6.664   8.974  22.047  1.00  0.00     0.039 A 
HETATM   12  C8  UNL     1       4.545   8.384  21.594  1.00  0.00     0.101 A 
ATOM     13  H2  UNL     1       4.442   9.399  19.752  1.00  0.00     0.165 HD
HETATM   14  C9  UNL     1       5.578   8.255  22.543  1.00  0.00    -0.004 A 
BRANCH  14  15
HETATM   15  C10 UNL     1       5.502   7.481  23.764  1.00  0.00     0.031 C 
BRANCH  15  16
HETATM   16  C11 UNL     1       4.975   8.039  25.014  1.00  0.00     0.092 C 
BRANCH  16  17
HETATM   17  N3  UNL     1       3.610   8.153  25.273  1.00  0.00    -0.337 N 
HETATM   18  C12 UNL     1       2.694   9.117  24.856  1.00  0.00     0.221 C 
HETATM   19  O1  UNL     1       2.941  10.133  24.146  1.00  0.00    -0.273 OA
ATOM     20  H3  UNL     1       3.220   7.415  25.859  1.00  0.00     0.168 HD
BRANCH  18  21
HETATM   21  C13 UNL     1       1.237   8.961  25.285  1.00  0.00     0.103 C 
BRANCH  21  22
HETATM   22  C14 UNL     1       0.940   7.504  25.421  1.00  0.00     0.009 C 
BRANCH  22  23
HETATM   23  C15 UNL     1       0.789   6.815  24.082  1.00  0.00     0.001 C 
BRANCH  23  24
HETATM   24  C16 UNL     1       1.426   5.442  24.162  1.00  0.00     0.005 C 
BRANCH  24  25
HETATM   25  C17 UNL     1       2.442   5.223  23.087  1.00  0.00    -0.012 C 
HETATM   26  C18 UNL     1       1.884   5.224  21.711  1.00  0.00     0.024 C 
HETATM   27  C19 UNL     1       2.870   4.876  20.673  1.00  0.00     0.126 C 
HETATM   28  N4  UNL     1       4.220   4.613  21.116  1.00  0.00    -0.350 N 
HETATM   29  C20 UNL     1       5.259   4.713  20.162  1.00  0.00     0.242 C 
HETATM   30  C30 UNL     1       4.546   4.234  22.471  1.00  0.00     0.126 C 
HETATM   31  O2  UNL     1       4.949   5.005  18.950  1.00  0.00    -0.271 OA
HETATM   32  C31 UNL     1       3.274   3.975  23.276  1.00  0.00     0.024 C 
BRANCH  29  33
HETATM   33  C21 UNL     1       6.660   4.484  20.550  1.00  0.00     0.179 C 
HETATM   34  C22 UNL     1       7.427   5.769  20.828  1.00  0.00     0.037 C 
HETATM   35  C23 UNL     1       7.653   6.325  19.443  1.00  0.00     0.022 C 
HETATM   36  C24 UNL     1       7.719   5.140  18.544  1.00  0.00     0.127 C 
HETATM   37  N5  UNL     1       7.348   4.003  19.327  1.00  0.00    -0.338 N 
HETATM   38  C25 UNL     1       7.559   2.639  19.069  1.00  0.00     0.224 C 
HETATM   39  O3  UNL     1       7.176   1.731  19.871  1.00  0.00    -0.273 OA
BRANCH  38  40
HETATM   40  C26 UNL     1       8.243   2.210  17.832  1.00  0.00     0.078 C 
HETATM   41  C27 UNL     1       8.336   0.724  17.613  1.00  0.00     0.014 C 
HETATM   42  C28 UNL     1       9.805   0.772  17.977  1.00  0.00     0.002 C 
HETATM   43  C29 UNL     1       9.734   2.283  17.914  1.00  0.00     0.014 C 
ENDBRANCH  38  40
ENDBRANCH  29  33
ENDBRANCH  24  25
ENDBRANCH  23  24
ENDBRANCH  22  23
ENDBRANCH  21  22
ENDBRANCH  18  21
ENDBRANCH  16  17
ENDBRANCH  15  16
ENDBRANCH  14  15
ENDBRANCH   4   5
TORSDOF 11
ENDMDL
MODEL 2
REMARK VINA RESULT: -8.421882584      1.069      2.888
REMARK  11 active torsions:
REMARK  status: ('A' for Active; 'I' for Inactive)
REMARK    1  A    between atoms: C4_4  and  C5_5 
REMARK    2  A    between atoms: C9_13  and  C10_14 
REMARK    3  A    between atoms: C10_14  and  C11_15 
REMARK    4  A    between atoms: C11_15  and  N3_16 
REMARK       I    between atoms: N3_16  and  C12_18 
REMARK    5  A    between atoms: C12_18  and  C13_20 
REMARK    6  A    between atoms: C13_20  and  C14_21 
REMARK    7  A    between atoms: C14_21  and  C15_22 
REMARK    8  A    between atoms: C15_22  and  C16_23 
REMARK    9  A    between atoms: C16_23  and  C17_24 
REMARK       I    between atoms: N4_27  and  C20_28 
REMARK   10  A    between atoms: C20_28  and  C21_30 
REMARK       I    between atoms: N5_34  and  C25_35 
REMARK   11  A    between atoms: C25_35  and  C26_37 
ROOT
HETATM    1  C1  UNL     1       1.246   8.727  21.786  1.00  0.00     0.027 C 
HETATM    2  C2  UNL     1       2.437   8.873  21.668  1.00  0.00    -0.026 C 
HETATM    3  C3  UNL     1       3.832   9.035  21.508  1.00  0.00    -0.009 C 
HETATM    4  C4  UNL     1       5.028   9.164  21.350  1.00  0.00    -0.034 C 
ENDROOT
BRANCH   4   5
HETATM    5  C5  UNL     1       6.434   9.297  21.144  1.00  0.00     0.101 A 
HETATM    6  N1  UNL     1       7.063   9.678  20.024  1.00  0.00    -0.356 N 
HETATM    7  C6  UNL     1       8.380   9.698  20.189  1.00  0.00     0.119 A 
ATOM      8  H1  UNL     1       6.589   9.922  19.155  1.00  0.00     0.166 HD
HETATM    9  C7  UNL     1       8.633   9.308  21.495  1.00  0.00     0.061 A 
HETATM   10  N2  UNL     1       9.637   9.097  22.369  1.00  0.00    -0.363 N 
HETATM   11  C32 UNL     1       7.415   9.060  22.082  1.00  0.00     0.039 A 
HETATM   12  C8  UNL     1       9.096   8.710  23.528  1.00  0.00     0.101 A 
ATOM     13  H2  UNL     1      10.632   9.210  22.178  1.00  0.00     0.165 HD
HETATM   14  C9  UNL     1       7.695   8.673  23.391  1.00  0.00    -0.004 A 
BRANCH  14  15
HETATM   15  C10 UNL     1       6.758   8.336  24.442  1.00  0.00     0.031 C 
BRANCH  15  16
HETATM   16  C11 UNL     1       5.802   7.231  24.315  1.00  0.00     0.092 C 
BRANCH  16  17
HETATM   17  N3  UNL     1       4.469   7.338  24.709  1.00  0.00    -0.337 N 
HETATM   18  C12 UNL     1       3.720   8.464  25.047  1.00  0.00     0.221 C 
HETATM   19  O1  UNL     1       4.129   9.659  25.082  1.00  0.00    -0.273 OA
ATOM     20  H3  UNL     1       3.963   6.454  24.759  1.00  0.00     0.168 HD
BRANCH  18  21
HETATM   21  C13 UNL     1       2.252   8.268  25.421  1.00  0.00     0.103 C 
BRANCH  21  22
HETATM   22  C14 UNL     1       1.965   6.803  25.446  1.00  0.00     0.009 C 
BRANCH  22  23
HETATM   23  C15 UNL     1       0.940   6.394  24.411  1.00  0.00     0.001 C 
BRANCH  23  24
HETATM   24  C16 UNL     1       1.163   4.939  24.048  1.00  0.00     0.005 C 
BRANCH  24  25
HETATM   25  C17 UNL     1       2.209   4.770  22.992  1.00  0.00    -0.012 C 
HETATM   26  C18 UNL     1       1.675   4.720  21.607  1.00  0.00     0.024 C 
HETATM   27  C19 UNL     1       2.697   4.422  20.590  1.00  0.00     0.126 C 
HETATM   28  N4  UNL     1       4.054   4.248  21.058  1.00  0.00    -0.350 N 
HETATM   29  C20 UNL     1       5.100   4.400  20.120  1.00  0.00     0.242 C 
HETATM   30  C30 UNL     1       4.380   3.906  22.423  1.00  0.00     0.126 C 
HETATM   31  O2  UNL     1       4.794   4.658  18.899  1.00  0.00    -0.271 OA
HETATM   32  C31 UNL     1       3.113   3.578  23.210  1.00  0.00     0.024 C 
BRANCH  29  33
HETATM   33  C21 UNL     1       6.506   4.263  20.533  1.00  0.00     0.179 C 
HETATM   34  C22 UNL     1       7.177   5.593  20.843  1.00  0.00     0.037 C 
HETATM   35  C23 UNL     1       7.390   6.183  19.470  1.00  0.00     0.022 C 
HETATM   36  C24 UNL     1       7.556   5.017  18.557  1.00  0.00     0.127 C 
HETATM   37  N5  UNL     1       7.249   3.847  19.318  1.00  0.00    -0.338 N 
HETATM   38  C25 UNL     1       7.558   2.505  19.048  1.00  0.00     0.224 C 
HETATM   39  O3  UNL     1       7.224   1.562  19.830  1.00  0.00    -0.273 OA
BRANCH  38  40
HETATM   40  C26 UNL     1       8.295   2.141  17.819  1.00  0.00     0.078 C 
HETATM   41  C27 UNL     1       8.428   0.668  17.544  1.00  0.00     0.014 C 
HETATM   42  C28 UNL     1       9.882   0.731  17.961  1.00  0.00     0.002 C 
HETATM   43  C29 UNL     1       9.780   2.242  17.957  1.00  0.00     0.014 C 
ENDBRANCH  38  40
ENDBRANCH  29  33
ENDBRANCH  24  25
ENDBRANCH  23  24
ENDBRANCH  22  23
ENDBRANCH  21  22
ENDBRANCH  18  21
ENDBRANCH  16  17
ENDBRANCH  15  16
ENDBRANCH  14  15
ENDBRANCH   4   5
TORSDOF 11
ENDMDL
MODEL 3
REMARK VINA RESULT: -8.333969905      1.245      2.815
REMARK  11 active torsions:
REMARK  status: ('A' for Active; 'I' for Inactive)
REMARK    1  A    between atoms: C4_4  and  C5_5 
REMARK    2  A    between atoms: C9_13  and  C10_14 
REMARK    3  A    between atoms: C10_14  and  C11_15 
REMARK    4  A    between atoms: C11_15  and  N3_16 
REMARK       I    between atoms: N3_16  and  C12_18 
REMARK    5  A    between atoms: C12_18  and  C13_20 
REMARK    6  A    between atoms: C13_20  and  C14_21 
REMARK    7  A    between atoms: C14_21  and  C15_22 
REMARK    8  A    between atoms: C15_22  and  C16_23 
REMARK    9  A    between atoms: C16_23  and  C17_24 
REMARK       I    between atoms: N4_27  and  C20_28 
REMARK   10  A    between atoms: C20_28  and  C21_30 
REMARK       I    between atoms: N5_34  and  C25_35 
REMARK   11  A    between atoms: C25_35  and  C26_37 
ROOT
HETATM    1  C1  UNL     1       7.145  10.213  16.975  1.00  0.00     0.027 C 
HETATM    2  C2  UNL     1       7.459   9.993  18.118  1.00  0.00    -0.026 C 
HETATM    3  C3  UNL     1       7.829   9.711  19.452  1.00  0.00    -0.009 C 
HETATM    4  C4  UNL     1       8.145   9.446  20.594  1.00  0.00    -0.034 C 
ENDROOT
BRANCH   4   5
HETATM    5  C5  UNL     1       8.509   9.109  21.932  1.00  0.00     0.101 A 
HETATM    6  N1  UNL     1       9.735   9.119  22.472  1.00  0.00    -0.356 N 
HETATM    7  C6  UNL     1       9.708   8.755  23.748  1.00  0.00     0.119 A 
ATOM      8  H1  UNL     1      10.583   9.375  21.966  1.00  0.00     0.166 HD
HETATM    9  C7  UNL     1       8.385   8.491  24.068  1.00  0.00     0.061 A 
HETATM   10  N2  UNL     1       7.592   8.103  25.085  1.00  0.00    -0.363 N 
HETATM   11  C32 UNL     1       7.647   8.714  22.930  1.00  0.00     0.039 A 
HETATM   12  C8  UNL     1       6.334   8.066  24.632  1.00  0.00     0.101 A 
ATOM     13  H2  UNL     1       7.896   7.876  26.031  1.00  0.00     0.165 HD
HETATM   14  C9  UNL     1       6.323   8.444  23.276  1.00  0.00    -0.004 A 
BRANCH  14  15
HETATM   15  C10 UNL     1       5.143   8.561  22.447  1.00  0.00     0.031 C 
BRANCH  15  16
HETATM   16  C11 UNL     1       3.984   9.369  22.842  1.00  0.00     0.092 C 
BRANCH  16  17
HETATM   17  N3  UNL     1       2.904   8.843  23.551  1.00  0.00    -0.337 N 
HETATM   18  C12 UNL     1       2.608   8.905  24.911  1.00  0.00     0.221 C 
HETATM   19  O1  UNL     1       3.303   9.458  25.810  1.00  0.00    -0.273 OA
ATOM     20  H3  UNL     1       2.226   8.334  22.985  1.00  0.00     0.168 HD
BRANCH  18  21
HETATM   21  C13 UNL     1       1.319   8.245  25.399  1.00  0.00     0.103 C 
BRANCH  21  22
HETATM   22  C14 UNL     1       1.510   6.764  25.373  1.00  0.00     0.009 C 
BRANCH  22  23
HETATM   23  C15 UNL     1       0.745   6.099  24.249  1.00  0.00     0.001 C 
BRANCH  23  24
HETATM   24  C16 UNL     1       1.235   4.673  24.100  1.00  0.00     0.005 C 
BRANCH  24  25
HETATM   25  C17 UNL     1       2.270   4.536  23.028  1.00  0.00    -0.012 C 
HETATM   26  C18 UNL     1       1.718   4.467  21.652  1.00  0.00     0.024 C 
HETATM   27  C19 UNL     1       2.734   4.201  20.619  1.00  0.00     0.126 C 
HETATM   28  N4  UNL     1       4.102   4.070  21.068  1.00  0.00    -0.350 N 
HETATM   29  C20 UNL     1       5.130   4.255  20.114  1.00  0.00     0.242 C 
HETATM   30  C30 UNL     1       4.459   3.741  22.428  1.00  0.00     0.126 C 
HETATM   31  O2  UNL     1       4.797   4.501  18.898  1.00  0.00    -0.271 OA
HETATM   32  C31 UNL     1       3.215   3.374  23.234  1.00  0.00     0.024 C 
BRANCH  29  33
HETATM   33  C21 UNL     1       6.545   4.164  20.506  1.00  0.00     0.179 C 
HETATM   34  C22 UNL     1       7.179   5.516  20.798  1.00  0.00     0.037 C 
HETATM   35  C23 UNL     1       7.354   6.103  19.418  1.00  0.00     0.022 C 
HETATM   36  C24 UNL     1       7.541   4.937  18.510  1.00  0.00     0.127 C 
HETATM   37  N5  UNL     1       7.282   3.762  19.282  1.00  0.00    -0.338 N 
HETATM   38  C25 UNL     1       7.628   2.429  19.016  1.00  0.00     0.224 C 
HETATM   39  O3  UNL     1       7.334   1.481  19.809  1.00  0.00    -0.273 OA
BRANCH  38  40
HETATM   40  C26 UNL     1       8.356   2.079  17.778  1.00  0.00     0.078 C 
HETATM   41  C27 UNL     1       8.502   0.609  17.494  1.00  0.00     0.014 C 
HETATM   42  C28 UNL     1       9.959   0.685  17.898  1.00  0.00     0.002 C 
HETATM   43  C29 UNL     1       9.841   2.195  17.903  1.00  0.00     0.014 C 
ENDBRANCH  38  40
ENDBRANCH  29  33
ENDBRANCH  24  25
ENDBRANCH  23  24
ENDBRANCH  22  23
ENDBRANCH  21  22
ENDBRANCH  18  21
ENDBRANCH  16  17
ENDBRANCH  15  16
ENDBRANCH  14  15
ENDBRANCH   4   5
TORSDOF 11
ENDMDL
MODEL 4
REMARK VINA RESULT: -7.942261547      1.476      3.165
REMARK  11 active torsions:
REMARK  status: ('A' for Active; 'I' for Inactive)
REMARK    1  A    between atoms: C4_4  and  C5_5 
REMARK    2  A    between atoms: C9_13  and  C10_14 
REMARK    3  A    between atoms: C10_14  and  C11_15 
REMARK    4  A    between atoms: C11_15  and  N3_16 
REMARK       I    between atoms: N3_16  and  C12_18 
REMARK    5  A    between atoms: C12_18  and  C13_20 
REMARK    6  A    between atoms: C13_20  and  C14_21 
REMARK    7  A    between atoms: C14_21  and  C15_22 
REMARK    8  A    between atoms: C15_22  and  C16_23 
REMARK    9  A    between atoms: C16_23  and  C17_24 
REMARK       I    between atoms: N4_27  and  C20_28 
REMARK   10  A    between atoms: C20_28  and  C21_30 
REMARK       I    between atoms: N5_34  and  C25_35 
REMARK   11  A    between atoms: C25_35  and  C26_37 
ROOT
HETATM    1  C1  UNL     1       1.132   8.591  21.331  1.00  0.00     0.027 C 
HETATM    2  C2  UNL     1       2.326   8.705  21.208  1.00  0.00    -0.026 C 
HETATM    3  C3  UNL     1       3.723   8.863  21.065  1.00  0.00    -0.009 C 
HETATM    4  C4  UNL     1       4.920   9.021  20.940  1.00  0.00    -0.034 C 
ENDROOT
BRANCH   4   5
HETATM    5  C5  UNL     1       6.323   9.233  20.784  1.00  0.00     0.101 A 
HETATM    6  N1  UNL     1       6.960   9.726  19.714  1.00  0.00    -0.356 N 
HETATM    7  C6  UNL     1       8.270   9.793  19.916  1.00  0.00     0.119 A 
ATOM      8  H1  UNL     1       6.496  10.015  18.853  1.00  0.00     0.166 HD
HETATM    9  C7  UNL     1       8.510   9.317  21.196  1.00  0.00     0.061 A 
HETATM   10  N2  UNL     1       9.500   9.084  22.079  1.00  0.00    -0.363 N 
HETATM   11  C32 UNL     1       7.290   8.970  21.728  1.00  0.00     0.039 A 
HETATM   12  C8  UNL     1       8.950   8.586  23.190  1.00  0.00     0.101 A 
ATOM     13  H2  UNL     1      10.493   9.257  21.925  1.00  0.00     0.165 HD
HETATM   14  C9  UNL     1       7.556   8.496  23.012  1.00  0.00    -0.004 A 
BRANCH  14  15
HETATM   15  C10 UNL     1       6.611   8.037  24.007  1.00  0.00     0.031 C 
BRANCH  15  16
HETATM   16  C11 UNL     1       5.677   8.947  24.679  1.00  0.00     0.092 C 
BRANCH  16  17
HETATM   17  N3  UNL     1       4.293   8.783  24.623  1.00  0.00    -0.337 N 
HETATM   18  C12 UNL     1       3.273   9.584  25.133  1.00  0.00     0.221 C 
HETATM   19  O1  UNL     1       3.413  10.653  25.793  1.00  0.00    -0.273 OA
ATOM     20  H3  UNL     1       3.979   7.947  24.132  1.00  0.00     0.168 HD
BRANCH  18  21
HETATM   21  C13 UNL     1       1.828   9.154  24.889  1.00  0.00     0.103 C 
BRANCH  21  22
HETATM   22  C14 UNL     1       1.656   7.766  25.411  1.00  0.00     0.009 C 
BRANCH  22  23
HETATM   23  C15 UNL     1       1.451   6.751  24.308  1.00  0.00     0.001 C 
BRANCH  23  24
HETATM   24  C16 UNL     1       2.619   5.786  24.306  1.00  0.00     0.005 C 
BRANCH  24  25
HETATM   25  C17 UNL     1       3.180   5.574  22.935  1.00  0.00    -0.012 C 
HETATM   26  C18 UNL     1       2.350   4.705  22.063  1.00  0.00     0.024 C 
HETATM   27  C19 UNL     1       2.975   4.399  20.766  1.00  0.00     0.126 C 
HETATM   28  N4  UNL     1       4.270   4.990  20.509  1.00  0.00    -0.350 N 
HETATM   29  C20 UNL     1       4.693   5.091  19.163  1.00  0.00     0.242 C 
HETATM   30  C30 UNL     1       5.148   5.454  21.557  1.00  0.00     0.126 C 
HETATM   31  O2  UNL     1       3.922   4.631  18.244  1.00  0.00    -0.271 OA
HETATM   32  C31 UNL     1       4.601   5.059  22.927  1.00  0.00     0.024 C 
BRANCH  29  33
HETATM   33  C21 UNL     1       5.987   5.706  18.827  1.00  0.00     0.179 C 
HETATM   34  C22 UNL     1       5.863   6.900  17.892  1.00  0.00     0.037 C 
HETATM   35  C23 UNL     1       5.558   6.250  16.564  1.00  0.00     0.022 C 
HETATM   36  C24 UNL     1       6.217   4.916  16.614  1.00  0.00     0.127 C 
HETATM   37  N5  UNL     1       6.685   4.732  17.952  1.00  0.00    -0.338 N 
HETATM   38  C25 UNL     1       7.636   3.826  18.445  1.00  0.00     0.224 C 
HETATM   39  O3  UNL     1       7.962   3.785  19.672  1.00  0.00    -0.273 OA
BRANCH  38  40
HETATM   40  C26 UNL     1       8.300   2.870  17.533  1.00  0.00     0.078 C 
HETATM   41  C27 UNL     1       7.882   1.432  17.670  1.00  0.00     0.014 C 
HETATM   42  C28 UNL     1       9.195   1.125  18.359  1.00  0.00     0.002 C 
HETATM   43  C29 UNL     1       9.685   2.500  17.956  1.00  0.00     0.014 C 
ENDBRANCH  38  40
ENDBRANCH  29  33
ENDBRANCH  24  25
ENDBRANCH  23  24
ENDBRANCH  22  23
ENDBRANCH  21  22
ENDBRANCH  18  21
ENDBRANCH  16  17
ENDBRANCH  15  16
ENDBRANCH  14  15
ENDBRANCH   4   5
TORSDOF 11
ENDMDL
MODEL 5
REMARK VINA RESULT: -7.843504064      1.225      1.659
REMARK  11 active torsions:
REMARK  status: ('A' for Active; 'I' for Inactive)
REMARK    1  A    between atoms: C4_4  and  C5_5 
REMARK    2  A    between atoms: C9_13  and  C10_14 
REMARK    3  A    between atoms: C10_14  and  C11_15 
REMARK    4  A    between atoms: C11_15  and  N3_16 
REMARK       I    between atoms: N3_16  and  C12_18 
REMARK    5  A    between atoms: C12_18  and  C13_20 
REMARK    6  A    between atoms: C13_20  and  C14_21 
REMARK    7  A    between atoms: C14_21  and  C15_22 
REMARK    8  A    between atoms: C15_22  and  C16_23 
REMARK    9  A    between atoms: C16_23  and  C17_24 
REMARK       I    between atoms: N4_27  and  C20_28 
REMARK   10  A    between atoms: C20_28  and  C21_30 
REMARK       I    between atoms: N5_34  and  C25_35 
REMARK   11  A    between atoms: C25_35  and  C26_37 
ROOT
HETATM    1  C1  UNL     1      10.930   7.994  26.583  1.00  0.00     0.027 C 
HETATM    2  C2  UNL     1      10.356   8.254  25.555  1.00  0.00    -0.026 C 
HETATM    3  C3  UNL     1       9.664   8.566  24.364  1.00  0.00    -0.009 C 
HETATM    4  C4  UNL     1       9.050   8.838  23.352  1.00  0.00    -0.034 C 
ENDROOT
BRANCH   4   5
HETATM    5  C5  UNL     1       8.304   9.155  22.177  1.00  0.00     0.101 A 
HETATM    6  N1  UNL     1       8.783   9.539  20.986  1.00  0.00    -0.356 N 
HETATM    7  C6  UNL     1       7.804   9.745  20.113  1.00  0.00     0.119 A 
ATOM      8  H1  UNL     1       9.774   9.657  20.776  1.00  0.00     0.166 HD
HETATM    9  C7  UNL     1       6.611   9.480  20.768  1.00  0.00     0.061 A 
HETATM   10  N2  UNL     1       5.277   9.455  20.584  1.00  0.00    -0.363 N 
HETATM   11  C32 UNL     1       6.934   9.113  22.053  1.00  0.00     0.039 A 
HETATM   12  C8  UNL     1       4.712   9.076  21.734  1.00  0.00     0.101 A 
ATOM     13  H2  UNL     1       4.786   9.685  19.720  1.00  0.00     0.165 HD
HETATM   14  C9  UNL     1       5.722   8.851  22.689  1.00  0.00    -0.004 A 
BRANCH  14  15
HETATM   15  C10 UNL     1       5.506   8.394  24.045  1.00  0.00     0.031 C 
BRANCH  15  16
HETATM   16  C11 UNL     1       4.695   9.147  25.007  1.00  0.00     0.092 C 
BRANCH  16  17
HETATM   17  N3  UNL     1       3.387   8.791  25.333  1.00  0.00    -0.337 N 
HETATM   18  C12 UNL     1       2.179   9.191  24.765  1.00  0.00     0.221 C 
HETATM   19  O1  UNL     1       2.029  10.007  23.811  1.00  0.00    -0.273 OA
ATOM     20  H3  UNL     1       3.301   8.136  26.110  1.00  0.00     0.168 HD
BRANCH  18  21
HETATM   21  C13 UNL     1       0.887   8.603  25.328  1.00  0.00     0.103 C 
BRANCH  21  22
HETATM   22  C14 UNL     1       1.053   7.124  25.440  1.00  0.00     0.009 C 
BRANCH  22  23
HETATM   23  C15 UNL     1       0.894   6.419  24.111  1.00  0.00     0.001 C 
BRANCH  23  24
HETATM   24  C16 UNL     1       1.247   4.956  24.286  1.00  0.00     0.005 C 
BRANCH  24  25
HETATM   25  C17 UNL     1       2.323   4.513  23.345  1.00  0.00    -0.012 C 
HETATM   26  C18 UNL     1       2.929   3.201  23.685  1.00  0.00     0.024 C 
HETATM   27  C19 UNL     1       4.073   2.839  22.831  1.00  0.00     0.126 C 
HETATM   28  N4  UNL     1       4.430   3.772  21.786  1.00  0.00    -0.350 N 
HETATM   29  C20 UNL     1       5.198   3.288  20.703  1.00  0.00     0.242 C 
HETATM   30  C30 UNL     1       4.059   5.168  21.814  1.00  0.00     0.126 C 
HETATM   31  O2  UNL     1       5.560   2.055  20.714  1.00  0.00    -0.271 OA
HETATM   32  C31 UNL     1       3.428   5.528  23.158  1.00  0.00     0.024 C 
BRANCH  29  33
HETATM   33  C21 UNL     1       5.574   4.175  19.591  1.00  0.00     0.179 C 
HETATM   34  C22 UNL     1       4.382   4.674  18.786  1.00  0.00     0.037 C 
HETATM   35  C23 UNL     1       3.987   3.453  17.991  1.00  0.00     0.022 C 
HETATM   36  C24 UNL     1       5.247   2.685  17.790  1.00  0.00     0.127 C 
HETATM   37  N5  UNL     1       6.250   3.312  18.592  1.00  0.00    -0.338 N 
HETATM   38  C25 UNL     1       7.647   3.199  18.518  1.00  0.00     0.224 C 
HETATM   39  O3  UNL     1       8.420   3.833  19.301  1.00  0.00    -0.273 OA
BRANCH  38  40
HETATM   40  C26 UNL     1       8.273   2.320  17.507  1.00  0.00     0.078 C 
HETATM   41  C27 UNL     1       8.243   0.846  17.809  1.00  0.00     0.014 C 
HETATM   42  C28 UNL     1       9.717   0.895  18.150  1.00  0.00     0.002 C 
HETATM   43  C29 UNL     1       9.766   2.296  17.576  1.00  0.00     0.014 C 
ENDBRANCH  38  40
ENDBRANCH  29  33
ENDBRANCH  24  25
ENDBRANCH  23  24
ENDBRANCH  22  23
ENDBRANCH  21  22
ENDBRANCH  18  21
ENDBRANCH  16  17
ENDBRANCH  15  16
ENDBRANCH  14  15
ENDBRANCH   4   5
TORSDOF 11
ENDMDL
