MODEL 1
REMARK VINA RESULT: -9.051546511      0.000      0.000
REMARK  11 active torsions:
REMARK  status: ('A' for Active; 'I' for Inactive)
REMARK    1  A    between atoms: C2_2  and  C3_3 
REMARK    2  A    between atoms: C3_3  and  C4_4 
REMARK    3  A    between atoms: C4_4  and  N1_5 
REMARK    4  A    between atoms: N1_5  and  C5_6 
REMARK       I    between atoms: N1_5  and  C24_35 
REMARK    5  A    between atoms: C6_7  and  O1_8 
REMARK    6  A    between atoms: C6_7  and  N2_10 
REMARK    7  A    between atoms: N2_10  and  C8_12 
REMARK       I    between atoms: N3_20  and  C16_21 
REMARK       I    between atoms: C16_21  and  N4_23 
REMARK    8  A    between atoms: N4_23  and  C17_25 
REMARK    9  A    between atoms: C17_25  and  C18_26 
REMARK       I    between atoms: C24_35  and  N6_37 
REMARK   10  A    between atoms: N6_37  and  C25_39 
REMARK   11  A    between atoms: C25_39  and  C26_40 
ROOT
HETATM    1  C8  UNL     1       5.305   8.806  20.677  1.00  0.00     0.036 A 
HETATM    2  C9  UNL     1       4.499   7.750  20.376  1.00  0.00     0.032 A 
HETATM    3  C10 UNL     1       3.648   7.195  21.349  1.00  0.00     0.032 A 
HETATM    4  C11 UNL     1       3.633   7.726  22.617  1.00  0.00     0.045 A 
HETATM    5  C12 UNL     1       4.456   8.806  22.927  1.00  0.00    -0.027 A 
HETATM    6  C13 UNL     1       5.291   9.337  21.936  1.00  0.00     0.039 A 
HETATM    7  C14 UNL     1       4.191   9.155  24.347  1.00  0.00     0.061 C 
HETATM    8  C15 UNL     1       2.744   8.654  24.492  1.00  0.00     0.138 C 
HETATM    9  N3  UNL     1       2.902   7.363  23.787  1.00  0.00    -0.299 N 
HETATM   10  C16 UNL     1       2.469   6.094  24.209  1.00  0.00     0.322 C 
HETATM   11  O2  UNL     1       1.726   6.069  25.241  1.00  0.00    -0.247 OA
HETATM   12  N4  UNL     1       2.775   4.859  23.608  1.00  0.00    -0.342 N 
ATOM     13  H4  UNL     1       3.369   4.873  22.779  1.00  0.00     0.164 HD
ENDROOT
BRANCH   1  14
HETATM   14  N2  UNL     1       6.175   9.329  19.622  1.00  0.00    -0.331 N 
HETATM   15  C7  UNL     1       5.488  10.054  18.603  1.00  0.00     0.158 C 
BRANCH  14  16
HETATM   16  C6  UNL     1       7.550   9.089  19.708  1.00  0.00     0.158 C 
HETATM   17  C5  UNL     1       8.338   8.034  20.294  1.00  0.00     0.151 C 
BRANCH  17  18
HETATM   18  N1  UNL     1       7.755   6.944  20.971  1.00  0.00    -0.306 N 
HETATM   19  C24 UNL     1       7.305   5.803  20.185  1.00  0.00     0.322 C 
HETATM   20  O3  UNL     1       6.740   4.903  20.827  1.00  0.00    -0.247 OA
HETATM   21  N6  UNL     1       7.505   5.742  18.814  1.00  0.00    -0.342 N 
ATOM     22  H6  UNL     1       8.006   6.549  18.439  1.00  0.00     0.164 HD
BRANCH  18  23
HETATM   23  C4  UNL     1       7.541   6.874  22.377  1.00  0.00     0.133 C 
BRANCH  23  24
HETATM   24  C3  UNL     1       8.245   7.847  23.233  1.00  0.00     0.020 C 
BRANCH  24  25
HETATM   25  C2  UNL     1       8.209   7.690  24.701  1.00  0.00    -0.003 C 
HETATM   26  C1  UNL     1       9.488   8.114  25.414  1.00  0.00     0.005 C 
ENDBRANCH  24  25
ENDBRANCH  23  24
ENDBRANCH  18  23
BRANCH  21  27
HETATM   27  C25 UNL     1       7.156   4.789  17.830  1.00  0.00     0.129 C 
BRANCH  27  28
HETATM   28  C26 UNL     1       7.806   3.465  17.806  1.00  0.00     0.003 C 
HETATM   29  C27 UNL     1       6.954   2.405  18.496  1.00  0.00     0.006 C 
HETATM   30  C28 UNL     1       7.852   1.284  19.008  1.00  0.00     0.000 C 
HETATM   31  C29 UNL     1       8.963   0.992  18.049  1.00  0.00     0.000 C 
HETATM   32  C30 UNL     1       9.846   2.147  17.720  1.00  0.00     0.000 C 
HETATM   33  C31 UNL     1       9.182   3.415  18.349  1.00  0.00     0.006 C 
ENDBRANCH  27  28
ENDBRANCH  21  27
ENDBRANCH  17  18
BRANCH  16  34
HETATM   34  O1  UNL     1       8.299  10.016  19.137  1.00  0.00    -0.345 OA
ATOM     35  H1  UNL     1       8.000  10.894  19.339  1.00  0.00     0.219 HD
ENDBRANCH  16  34
ENDBRANCH  14  16
ENDBRANCH   1  14
BRANCH  12  36
HETATM   36  C17 UNL     1       2.314   3.577  24.076  1.00  0.00     0.131 C 
BRANCH  36  37
HETATM   37  C18 UNL     1       2.557   2.533  23.048  1.00  0.00     0.040 C 
HETATM   38  C19 UNL     1       3.443   3.011  21.917  1.00  0.00     0.194 C 
HETATM   39  C20 UNL     1       3.784   1.676  21.242  1.00  0.00     0.067 C 
HETATM   40  N5  UNL     1       4.775   2.967  22.456  1.00  0.00    -0.066 N 
HETATM   41  C21 UNL     1       4.554   1.514  22.539  1.00  0.00     0.192 C 
HETATM   42  C22 UNL     1       3.499   1.430  23.586  1.00  0.00     0.020 C 
HETATM   43  C23 UNL     1       2.817   0.110  23.696  1.00  0.00     0.012 C 
ATOM     44  H52 UNL     1       5.574   3.368  21.965  1.00  0.00     0.278 HD
ATOM     45  H51 UNL     1       5.053   3.522  23.265  1.00  0.00     0.278 HD
ENDBRANCH  36  37
ENDBRANCH  12  36
TORSDOF 11
ENDMDL
MODEL 2
REMARK VINA RESULT: -8.771908630      2.231      6.021
REMARK  11 active torsions:
REMARK  status: ('A' for Active; 'I' for Inactive)
REMARK    1  A    between atoms: C2_2  and  C3_3 
REMARK    2  A    between atoms: C3_3  and  C4_4 
REMARK    3  A    between atoms: C4_4  and  N1_5 
REMARK    4  A    between atoms: N1_5  and  C5_6 
REMARK       I    between atoms: N1_5  and  C24_35 
REMARK    5  A    between atoms: C6_7  and  O1_8 
REMARK    6  A    between atoms: C6_7  and  N2_10 
REMARK    7  A    between atoms: N2_10  and  C8_12 
REMARK       I    between atoms: N3_20  and  C16_21 
REMARK       I    between atoms: C16_21  and  N4_23 
REMARK    8  A    between atoms: N4_23  and  C17_25 
REMARK    9  A    between atoms: C17_25  and  C18_26 
REMARK       I    between atoms: C24_35  and  N6_37 
REMARK   10  A    between atoms: N6_37  and  C25_39 
REMARK   11  A    between atoms: C25_39  and  C26_40 
ROOT
HETATM    1  C8  UNL     1       7.300   8.277  21.930  1.00  0.00     0.036 A 
HETATM    2  C9  UNL     1       8.022   7.407  21.171  1.00  0.00     0.032 A 
HETATM    3  C10 UNL     1       7.729   7.229  19.807  1.00  0.00     0.032 A 
HETATM    4  C11 UNL     1       6.700   7.940  19.238  1.00  0.00     0.045 A 
HETATM    5  C12 UNL     1       5.960   8.831  20.013  1.00  0.00    -0.027 A 
HETATM    6  C13 UNL     1       6.278   8.987  21.367  1.00  0.00     0.039 A 
HETATM    7  C14 UNL     1       4.954   9.452  19.112  1.00  0.00     0.061 C 
HETATM    8  C15 UNL     1       5.680   9.335  17.761  1.00  0.00     0.138 C 
HETATM    9  N3  UNL     1       6.174   7.949  17.911  1.00  0.00    -0.299 N 
HETATM   10  C16 UNL     1       6.094   6.901  16.979  1.00  0.00     0.322 C 
HETATM   11  O2  UNL     1       5.684   7.214  15.817  1.00  0.00    -0.247 OA
HETATM   12  N4  UNL     1       6.417   5.550  17.203  1.00  0.00    -0.342 N 
ATOM     13  H4  UNL     1       6.748   5.292  18.133  1.00  0.00     0.164 HD
ENDROOT
BRANCH   1  14
HETATM   14  N2  UNL     1       7.651   8.407  23.346  1.00  0.00    -0.331 N 
HETATM   15  C7  UNL     1       8.527   9.495  23.634  1.00  0.00     0.158 C 
BRANCH  14  16
HETATM   16  C6  UNL     1       7.107   7.495  24.257  1.00  0.00     0.158 C 
HETATM   17  C5  UNL     1       5.759   7.127  24.608  1.00  0.00     0.151 C 
BRANCH  17  18
HETATM   18  N1  UNL     1       4.633   7.727  24.008  1.00  0.00    -0.306 N 
HETATM   19  C24 UNL     1       3.962   7.014  22.930  1.00  0.00     0.322 C 
HETATM   20  O3  UNL     1       3.019   7.619  22.396  1.00  0.00    -0.247 OA
HETATM   21  N6  UNL     1       4.362   5.743  22.541  1.00  0.00    -0.342 N 
ATOM     22  H6  UNL     1       5.135   5.373  23.094  1.00  0.00     0.164 HD
BRANCH  18  23
HETATM   23  C4  UNL     1       4.104   9.002  24.355  1.00  0.00     0.133 C 
BRANCH  23  24
HETATM   24  C3  UNL     1       3.266   9.099  25.564  1.00  0.00     0.020 C 
BRANCH  24  25
HETATM   25  C2  UNL     1       1.796   9.011  25.445  1.00  0.00    -0.003 C 
HETATM   26  C1  UNL     1       1.243   7.591  25.486  1.00  0.00     0.005 C 
ENDBRANCH  24  25
ENDBRANCH  23  24
ENDBRANCH  18  23
BRANCH  21  27
HETATM   27  C25 UNL     1       3.914   4.858  21.534  1.00  0.00     0.129 C 
BRANCH  27  28
HETATM   28  C26 UNL     1       4.814   3.821  20.995  1.00  0.00     0.003 C 
HETATM   29  C27 UNL     1       4.389   3.372  19.601  1.00  0.00     0.006 C 
HETATM   30  C28 UNL     1       4.887   1.953  19.349  1.00  0.00     0.000 C 
HETATM   31  C29 UNL     1       6.248   1.740  19.934  1.00  0.00     0.000 C 
HETATM   32  C30 UNL     1       6.363   1.992  21.399  1.00  0.00     0.000 C 
HETATM   33  C31 UNL     1       5.010   2.631  21.853  1.00  0.00     0.006 C 
ENDBRANCH  27  28
ENDBRANCH  21  27
ENDBRANCH  17  18
BRANCH  16  34
HETATM   34  O1  UNL     1       8.008   6.819  24.949  1.00  0.00    -0.345 OA
ATOM     35  H1  UNL     1       8.090   5.921  24.652  1.00  0.00     0.219 HD
ENDBRANCH  16  34
ENDBRANCH  14  16
ENDBRANCH   1  14
BRANCH  12  36
HETATM   36  C17 UNL     1       6.315   4.502  16.220  1.00  0.00     0.131 C 
BRANCH  36  37
HETATM   37  C18 UNL     1       6.844   3.226  16.765  1.00  0.00     0.040 C 
HETATM   38  C19 UNL     1       6.745   2.078  15.784  1.00  0.00     0.194 C 
HETATM   39  C20 UNL     1       7.650   1.044  16.466  1.00  0.00     0.067 C 
HETATM   40  N5  UNL     1       7.837   2.285  14.871  1.00  0.00    -0.066 N 
HETATM   41  C21 UNL     1       8.693   2.063  16.047  1.00  0.00     0.192 C 
HETATM   42  C22 UNL     1       8.387   3.264  16.872  1.00  0.00     0.020 C 
HETATM   43  C23 UNL     1       8.856   3.201  18.285  1.00  0.00     0.012 C 
ATOM     44  H52 UNL     1       7.939   1.742  14.013  1.00  0.00     0.278 HD
ATOM     45  H51 UNL     1       7.911   3.123  14.294  1.00  0.00     0.278 HD
ENDBRANCH  36  37
ENDBRANCH  12  36
TORSDOF 11
ENDMDL
MODEL 3
REMARK VINA RESULT: -8.651276850      2.254      5.995
REMARK  11 active torsions:
REMARK  status: ('A' for Active; 'I' for Inactive)
REMARK    1  A    between atoms: C2_2  and  C3_3 
REMARK    2  A    between atoms: C3_3  and  C4_4 
REMARK    3  A    between atoms: C4_4  and  N1_5 
REMARK    4  A    between atoms: N1_5  and  C5_6 
REMARK       I    between atoms: N1_5  and  C24_35 
REMARK    5  A    between atoms: C6_7  and  O1_8 
REMARK    6  A    between atoms: C6_7  and  N2_10 
REMARK    7  A    between atoms: N2_10  and  C8_12 
REMARK       I    between atoms: N3_20  and  C16_21 
REMARK       I    between atoms: C16_21  and  N4_23 
REMARK    8  A    between atoms: N4_23  and  C17_25 
REMARK    9  A    between atoms: C17_25  and  C18_26 
REMARK       I    between atoms: C24_35  and  N6_37 
REMARK   10  A    between atoms: N6_37  and  C25_39 
REMARK   11  A    between atoms: C25_39  and  C26_40 
ROOT
HETATM    1  C8  UNL     1       6.915   7.628  20.955  1.00  0.00     0.036 A 
HETATM    2  C9  UNL     1       7.805   6.760  20.400  1.00  0.00     0.032 A 
HETATM    3  C10 UNL     1       7.576   6.215  19.124  1.00  0.00     0.032 A 
HETATM    4  C11 UNL     1       6.439   6.563  18.433  1.00  0.00     0.045 A 
HETATM    5  C12 UNL     1       5.528   7.451  19.000  1.00  0.00    -0.027 A 
HETATM    6  C13 UNL     1       5.786   7.978  20.271  1.00  0.00     0.039 A 
HETATM    7  C14 UNL     1       4.437   7.639  18.007  1.00  0.00     0.061 C 
HETATM    8  C15 UNL     1       5.196   7.351  16.701  1.00  0.00     0.138 C 
HETATM    9  N3  UNL     1       5.945   6.160  17.156  1.00  0.00    -0.299 N 
HETATM   10  C16 UNL     1       6.085   4.927  16.496  1.00  0.00     0.322 C 
HETATM   11  O2  UNL     1       5.644   4.875  15.305  1.00  0.00    -0.247 OA
HETATM   12  N4  UNL     1       6.659   3.754  17.020  1.00  0.00    -0.342 N 
ATOM     13  H4  UNL     1       7.017   3.789  17.975  1.00  0.00     0.164 HD
ENDROOT
BRANCH   1  14
HETATM   14  N2  UNL     1       7.209   8.151  22.292  1.00  0.00    -0.331 N 
HETATM   15  C7  UNL     1       7.560   9.533  22.315  1.00  0.00     0.158 C 
BRANCH  14  16
HETATM   16  C6  UNL     1       7.112   7.284  23.385  1.00  0.00     0.158 C 
HETATM   17  C5  UNL     1       6.005   6.642  24.048  1.00  0.00     0.151 C 
BRANCH  17  18
HETATM   18  N1  UNL     1       4.669   6.831  23.639  1.00  0.00    -0.306 N 
HETATM   19  C24 UNL     1       3.962   5.705  23.044  1.00  0.00     0.322 C 
HETATM   20  O3  UNL     1       2.813   5.949  22.642  1.00  0.00    -0.247 OA
HETATM   21  N6  UNL     1       4.548   4.452  22.942  1.00  0.00    -0.342 N 
ATOM     22  H6  UNL     1       5.487   4.409  23.339  1.00  0.00     0.164 HD
BRANCH  18  23
HETATM   23  C4  UNL     1       3.950   8.056  23.736  1.00  0.00     0.133 C 
BRANCH  23  24
HETATM   24  C3  UNL     1       4.350   9.013  24.785  1.00  0.00     0.020 C 
BRANCH  24  25
HETATM   25  C2  UNL     1       3.315   9.689  25.592  1.00  0.00    -0.003 C 
HETATM   26  C1  UNL     1       2.515  10.745  24.837  1.00  0.00     0.005 C 
ENDBRANCH  24  25
ENDBRANCH  23  24
ENDBRANCH  18  23
BRANCH  21  27
HETATM   27  C25 UNL     1       4.109   3.223  22.400  1.00  0.00     0.129 C 
BRANCH  27  28
HETATM   28  C26 UNL     1       3.667   3.140  20.995  1.00  0.00     0.003 C 
HETATM   29  C27 UNL     1       3.623   1.698  20.500  1.00  0.00     0.006 C 
HETATM   30  C28 UNL     1       3.794   1.673  18.985  1.00  0.00     0.000 C 
HETATM   31  C29 UNL     1       3.081   2.819  18.337  1.00  0.00     0.000 C 
HETATM   32  C30 UNL     1       3.488   4.175  18.803  1.00  0.00     0.000 C 
HETATM   33  C31 UNL     1       4.432   3.963  20.031  1.00  0.00     0.006 C 
ENDBRANCH  27  28
ENDBRANCH  21  27
ENDBRANCH  17  18
BRANCH  16  34
HETATM   34  O1  UNL     1       8.273   6.979  23.939  1.00  0.00    -0.345 OA
ATOM     35  H1  UNL     1       8.991   7.032  23.321  1.00  0.00     0.219 HD
ENDBRANCH  16  34
ENDBRANCH  14  16
ENDBRANCH   1  14
BRANCH  12  36
HETATM   36  C17 UNL     1       6.778   2.506  16.311  1.00  0.00     0.131 C 
BRANCH  36  37
HETATM   37  C18 UNL     1       7.469   1.495  17.152  1.00  0.00     0.040 C 
HETATM   38  C19 UNL     1       8.795   1.051  16.574  1.00  0.00     0.194 C 
HETATM   39  C20 UNL     1       9.399   0.320  17.780  1.00  0.00     0.067 C 
HETATM   40  N5  UNL     1       9.705   2.119  16.890  1.00  0.00    -0.066 N 
HETATM   41  C21 UNL     1       9.450   1.747  18.292  1.00  0.00     0.192 C 
HETATM   42  C22 UNL     1       8.021   2.134  18.449  1.00  0.00     0.020 C 
HETATM   43  C23 UNL     1       7.351   1.604  19.669  1.00  0.00     0.012 C 
ATOM     44  H52 UNL     1      10.648   2.163  16.502  1.00  0.00     0.278 HD
ATOM     45  H51 UNL     1       9.569   3.069  16.545  1.00  0.00     0.278 HD
ENDBRANCH  36  37
ENDBRANCH  12  36
TORSDOF 11
ENDMDL
MODEL 4
REMARK VINA RESULT: -8.525665395      3.043      4.837
REMARK  11 active torsions:
REMARK  status: ('A' for Active; 'I' for Inactive)
REMARK    1  A    between atoms: C2_2  and  C3_3 
REMARK    2  A    between atoms: C3_3  and  C4_4 
REMARK    3  A    between atoms: C4_4  and  N1_5 
REMARK    4  A    between atoms: N1_5  and  C5_6 
REMARK       I    between atoms: N1_5  and  C24_35 
REMARK    5  A    between atoms: C6_7  and  O1_8 
REMARK    6  A    between atoms: C6_7  and  N2_10 
REMARK    7  A    between atoms: N2_10  and  C8_12 
REMARK       I    between atoms: N3_20  and  C16_21 
REMARK       I    between atoms: C16_21  and  N4_23 
REMARK    8  A    between atoms: N4_23  and  C17_25 
REMARK    9  A    between atoms: C17_25  and  C18_26 
REMARK       I    between atoms: C24_35  and  N6_37 
REMARK   10  A    between atoms: N6_37  and  C25_39 
REMARK   11  A    between atoms: C25_39  and  C26_40 
ROOT
HETATM    1  C8  UNL     1       6.501   8.769  19.259  1.00  0.00     0.036 A 
HETATM    2  C9  UNL     1       6.886   7.758  18.431  1.00  0.00     0.032 A 
HETATM    3  C10 UNL     1       5.929   6.968  17.769  1.00  0.00     0.032 A 
HETATM    4  C11 UNL     1       4.592   7.219  17.963  1.00  0.00     0.045 A 
HETATM    5  C12 UNL     1       4.196   8.253  18.809  1.00  0.00    -0.027 A 
HETATM    6  C13 UNL     1       5.173   9.023  19.452  1.00  0.00     0.039 A 
HETATM    7  C14 UNL     1       2.710   8.282  18.786  1.00  0.00     0.061 C 
HETATM    8  C15 UNL     1       2.441   7.686  17.394  1.00  0.00     0.138 C 
HETATM    9  N3  UNL     1       3.423   6.581  17.450  1.00  0.00    -0.299 N 
HETATM   10  C16 UNL     1       3.220   5.231  17.117  1.00  0.00     0.322 C 
HETATM   11  O2  UNL     1       2.110   4.951  16.564  1.00  0.00    -0.247 OA
HETATM   12  N4  UNL     1       4.115   4.167  17.336  1.00  0.00    -0.342 N 
ATOM     13  H4  UNL     1       5.008   4.386  17.778  1.00  0.00     0.164 HD
ENDROOT
BRANCH   1  14
HETATM   14  N2  UNL     1       7.547   9.547  19.925  1.00  0.00    -0.331 N 
HETATM   15  C7  UNL     1       7.433  10.957  19.744  1.00  0.00     0.158 C 
BRANCH  14  16
HETATM   16  C6  UNL     1       8.522   8.865  20.661  1.00  0.00     0.158 C 
HETATM   17  C5  UNL     1       8.471   7.989  21.804  1.00  0.00     0.151 C 
BRANCH  17  18
HETATM   18  N1  UNL     1       7.260   7.654  22.444  1.00  0.00    -0.306 N 
HETATM   19  C24 UNL     1       6.578   6.432  22.040  1.00  0.00     0.322 C 
HETATM   20  O3  UNL     1       5.485   6.224  22.589  1.00  0.00    -0.247 OA
HETATM   21  N6  UNL     1       7.131   5.569  21.104  1.00  0.00    -0.342 N 
ATOM     22  H6  UNL     1       8.045   5.869  20.764  1.00  0.00     0.164 HD
BRANCH  18  23
HETATM   23  C4  UNL     1       6.623   8.437  23.448  1.00  0.00     0.133 C 
BRANCH  23  24
HETATM   24  C3  UNL     1       7.371   8.713  24.689  1.00  0.00     0.020 C 
BRANCH  24  25
HETATM   25  C2  UNL     1       8.361   7.733  25.180  1.00  0.00    -0.003 C 
HETATM   26  C1  UNL     1       9.768   8.293  25.361  1.00  0.00     0.005 C 
ENDBRANCH  24  25
ENDBRANCH  23  24
ENDBRANCH  18  23
BRANCH  21  27
HETATM   27  C25 UNL     1       6.684   4.359  20.527  1.00  0.00     0.129 C 
BRANCH  27  28
HETATM   28  C26 UNL     1       7.619   3.493  19.784  1.00  0.00     0.003 C 
HETATM   29  C27 UNL     1       8.328   4.253  18.668  1.00  0.00     0.006 C 
HETATM   30  C28 UNL     1       8.756   3.275  17.578  1.00  0.00     0.000 C 
HETATM   31  C29 UNL     1       9.229   1.981  18.162  1.00  0.00     0.000 C 
HETATM   32  C30 UNL     1       8.246   1.270  19.028  1.00  0.00     0.000 C 
HETATM   33  C31 UNL     1       7.042   2.245  19.235  1.00  0.00     0.006 C 
ENDBRANCH  27  28
ENDBRANCH  21  27
ENDBRANCH  17  18
BRANCH  16  34
HETATM   34  O1  UNL     1       9.757   9.053  20.229  1.00  0.00    -0.345 OA
ATOM     35  H1  UNL     1      10.376   9.155  20.943  1.00  0.00     0.219 HD
ENDBRANCH  16  34
ENDBRANCH  14  16
ENDBRANCH   1  14
BRANCH  12  36
HETATM   36  C17 UNL     1       3.865   2.793  16.984  1.00  0.00     0.131 C 
BRANCH  36  37
HETATM   37  C18 UNL     1       5.123   2.133  16.549  1.00  0.00     0.040 C 
HETATM   38  C19 UNL     1       5.011   0.625  16.496  1.00  0.00     0.194 C 
HETATM   39  C20 UNL     1       6.282   0.274  15.711  1.00  0.00     0.067 C 
HETATM   40  N5  UNL     1       4.301   0.356  15.275  1.00  0.00    -0.066 N 
HETATM   41  C21 UNL     1       5.477   0.944  14.613  1.00  0.00     0.192 C 
HETATM   42  C22 UNL     1       5.382   2.367  15.042  1.00  0.00     0.020 C 
HETATM   43  C23 UNL     1       6.602   3.186  14.799  1.00  0.00     0.012 C 
ATOM     44  H52 UNL     1       3.954  -0.575  15.041  1.00  0.00     0.278 HD
ATOM     45  H51 UNL     1       3.355   0.699  15.109  1.00  0.00     0.278 HD
ENDBRANCH  36  37
ENDBRANCH  12  36
TORSDOF 11
ENDMDL
MODEL 5
REMARK VINA RESULT: -8.507958541      2.071      6.100
REMARK  11 active torsions:
REMARK  status: ('A' for Active; 'I' for Inactive)
REMARK    1  A    between atoms: C2_2  and  C3_3 
REMARK    2  A    between atoms: C3_3  and  C4_4 
REMARK    3  A    between atoms: C4_4  and  N1_5 
REMARK    4  A    between atoms: N1_5  and  C5_6 
REMARK       I    between atoms: N1_5  and  C24_35 
REMARK    5  A    between atoms: C6_7  and  O1_8 
REMARK    6  A    between atoms: C6_7  and  N2_10 
REMARK    7  A    between atoms: N2_10  and  C8_12 
REMARK       I    between atoms: N3_20  and  C16_21 
REMARK       I    between atoms: C16_21  and  N4_23 
REMARK    8  A    between atoms: N4_23  and  C17_25 
REMARK    9  A    between atoms: C17_25  and  C18_26 
REMARK       I    between atoms: C24_35  and  N6_37 
REMARK   10  A    between atoms: N6_37  and  C25_39 
REMARK   11  A    between atoms: C25_39  and  C26_40 
ROOT
HETATM    1  C8  UNL     1       6.997   7.654  21.323  1.00  0.00     0.036 A 
HETATM    2  C9  UNL     1       7.791   6.687  20.784  1.00  0.00     0.032 A 
HETATM    3  C10 UNL     1       7.535   6.182  19.497  1.00  0.00     0.032 A 
HETATM    4  C11 UNL     1       6.469   6.669  18.778  1.00  0.00     0.045 A 
HETATM    5  C12 UNL     1       5.656   7.658  19.328  1.00  0.00    -0.027 A 
HETATM    6  C13 UNL     1       5.938   8.141  20.611  1.00  0.00     0.039 A 
HETATM    7  C14 UNL     1       4.624   7.982  18.307  1.00  0.00     0.061 C 
HETATM    8  C15 UNL     1       5.380   7.612  17.020  1.00  0.00     0.138 C 
HETATM    9  N3  UNL     1       5.967   6.337  17.484  1.00  0.00    -0.299 N 
HETATM   10  C16 UNL     1       5.976   5.100  16.817  1.00  0.00     0.322 C 
HETATM   11  O2  UNL     1       5.566   5.109  15.614  1.00  0.00    -0.247 OA
HETATM   12  N4  UNL     1       6.388   3.863  17.345  1.00  0.00    -0.342 N 
ATOM     13  H4  UNL     1       6.720   3.849  18.310  1.00  0.00     0.164 HD
ENDROOT
BRANCH   1  14
HETATM   14  N2  UNL     1       7.313   8.129  22.671  1.00  0.00    -0.331 N 
HETATM   15  C7  UNL     1       7.758   9.483  22.725  1.00  0.00     0.158 C 
BRANCH  14  16
HETATM   16  C6  UNL     1       7.147   7.250  23.746  1.00  0.00     0.158 C 
HETATM   17  C5  UNL     1       6.001   6.593  24.324  1.00  0.00     0.151 C 
BRANCH  17  18
HETATM   18  N1  UNL     1       4.695   6.778  23.824  1.00  0.00    -0.306 N 
HETATM   19  C24 UNL     1       4.193   5.834  22.836  1.00  0.00     0.322 C 
HETATM   20  O3  UNL     1       3.065   6.084  22.383  1.00  0.00    -0.247 OA
HETATM   21  N6  UNL     1       4.939   4.733  22.439  1.00  0.00    -0.342 N 
ATOM     22  H6  UNL     1       5.835   4.654  22.921  1.00  0.00     0.164 HD
BRANCH  18  23
HETATM   23  C4  UNL     1       3.823   7.841  24.191  1.00  0.00     0.133 C 
BRANCH  23  24
HETATM   24  C3  UNL     1       4.037   9.160  23.565  1.00  0.00     0.020 C 
BRANCH  24  25
HETATM   25  C2  UNL     1       2.902   9.863  22.933  1.00  0.00    -0.003 C 
HETATM   26  C1  UNL     1       2.615   9.436  21.498  1.00  0.00     0.005 C 
ENDBRANCH  24  25
ENDBRANCH  23  24
ENDBRANCH  18  23
BRANCH  21  27
HETATM   27  C25 UNL     1       4.709   3.699  21.504  1.00  0.00     0.129 C 
BRANCH  27  28
HETATM   28  C26 UNL     1       4.181   2.393  21.945  1.00  0.00     0.003 C 
HETATM   29  C27 UNL     1       3.432   1.679  20.826  1.00  0.00     0.006 C 
HETATM   30  C28 UNL     1       2.410   0.720  21.428  1.00  0.00     0.000 C 
HETATM   31  C29 UNL     1       2.945   0.053  22.657  1.00  0.00     0.000 C 
HETATM   32  C30 UNL     1       3.382   0.972  23.747  1.00  0.00     0.000 C 
HETATM   33  C31 UNL     1       3.336   2.420  23.160  1.00  0.00     0.006 C 
ENDBRANCH  27  28
ENDBRANCH  21  27
ENDBRANCH  17  18
BRANCH  16  34
HETATM   34  O1  UNL     1       8.268   6.947  24.377  1.00  0.00    -0.345 OA
ATOM     35  H1  UNL     1       8.838   7.700  24.478  1.00  0.00     0.219 HD
ENDBRANCH  16  34
ENDBRANCH  14  16
ENDBRANCH   1  14
BRANCH  12  36
HETATM   36  C17 UNL     1       6.377   2.614  16.628  1.00  0.00     0.131 C 
BRANCH  36  37
HETATM   37  C18 UNL     1       7.168   1.590  17.357  1.00  0.00     0.040 C 
HETATM   38  C19 UNL     1       8.441   1.202  16.636  1.00  0.00     0.194 C 
HETATM   39  C20 UNL     1       9.175   0.440  17.747  1.00  0.00     0.067 C 
HETATM   40  N5  UNL     1       9.354   2.279  16.906  1.00  0.00    -0.066 N 
HETATM   41  C21 UNL     1       9.245   1.848  18.309  1.00  0.00     0.192 C 
HETATM   42  C22 UNL     1       7.830   2.192  18.619  1.00  0.00     0.020 C 
HETATM   43  C23 UNL     1       7.293   1.599  19.876  1.00  0.00     0.012 C 
ATOM     44  H52 UNL     1      10.253   2.362  16.430  1.00  0.00     0.278 HD
ATOM     45  H51 UNL     1       9.165   3.238  16.614  1.00  0.00     0.278 HD
ENDBRANCH  36  37
ENDBRANCH  12  36
TORSDOF 11
ENDMDL
