MODEL 1
REMARK VINA RESULT: -7.862372702      0.000      0.000
REMARK  9 active torsions:
REMARK  status: ('A' for Active; 'I' for Inactive)
REMARK    1  A    between atoms: C2_2  and  C3_3 
REMARK    2  A    between atoms: C3_3  and  N1_4 
REMARK       I    between atoms: N1_4  and  C4_5 
REMARK    3  A    between atoms: C4_5  and  C5_7 
REMARK    4  A    between atoms: C5_7  and  N2_8 
REMARK    5  A    between atoms: C5_7  and  C19_35 
REMARK    6  A    between atoms: N2_8  and  C6_10 
REMARK    7  A    between atoms: C6_10  and  O2_11 
REMARK    8  A    between atoms: C6_10  and  C7_13 
REMARK    9  A    between atoms: C11_26  and  N7_28 
ROOT
HETATM    1  C7  UNL     1       7.307   6.740  21.526  1.00  0.00     0.165 C 
HETATM    2  N3  UNL     1       7.273   5.613  22.198  1.00  0.00    -0.307 N 
ATOM      3  H3  UNL     1       7.376   5.524  23.209  1.00  0.00     0.170 HD
HETATM    4  C8  UNL     1       7.070   4.532  21.285  1.00  0.00     0.251 C 
HETATM    5  O3  UNL     1       6.553   3.459  21.624  1.00  0.00    -0.271 OA
HETATM    6  C9  UNL     1       7.610   5.057  20.005  1.00  0.00     0.243 C 
HETATM    7  N4  UNL     1       7.050   6.440  20.145  1.00  0.00    -0.283 N 
HETATM    8  C10 UNL     1       6.504   6.831  18.920  1.00  0.00     0.179 C 
HETATM    9  N5  UNL     1       5.782   7.850  18.709  1.00  0.00    -0.371 N 
ATOM     10  H51 UNL     1       5.383   8.136  17.814  1.00  0.00     0.159 HD
ATOM     11  H52 UNL     1       5.503   8.575  19.371  1.00  0.00     0.159 HD
HETATM   12  N6  UNL     1       6.898   5.805  17.982  1.00  0.00    -0.327 N 
ATOM     13  H6  UNL     1       7.095   5.919  16.988  1.00  0.00     0.165 HD
HETATM   14  C11 UNL     1       6.956   4.547  18.776  1.00  0.00     0.229 C 
HETATM   15  C12 UNL     1       5.505   4.186  19.004  1.00  0.00     0.074 C 
ENDROOT
BRANCH   1  16
HETATM   16  C6  UNL     1       7.492   8.036  22.100  1.00  0.00     0.182 C 
BRANCH  16  17
HETATM   17  N2  UNL     1       8.347   8.428  23.124  1.00  0.00    -0.353 N 
ATOM     18  H2  UNL     1       9.075   9.114  22.922  1.00  0.00     0.162 HD
BRANCH  17  19
HETATM   19  C5  UNL     1       8.238   7.893  24.478  1.00  0.00     0.194 C 
BRANCH  19  20
HETATM   20  C4  UNL     1       6.784   8.157  24.894  1.00  0.00     0.314 C 
HETATM   21  N1  UNL     1       5.863   7.130  24.753  1.00  0.00    -0.382 NA
HETATM   22  O1  UNL     1       6.550   9.304  25.328  1.00  0.00    -0.255 OA
BRANCH  21  23
HETATM   23  C3  UNL     1       4.979   6.151  24.619  1.00  0.00     0.185 C 
BRANCH  23  24
HETATM   24  C2  UNL     1       3.547   6.490  24.954  1.00  0.00     0.021 C 
HETATM   25  C1  UNL     1       3.269   7.427  25.864  1.00  0.00     0.013 C 
ENDBRANCH  23  24
ENDBRANCH  21  23
ENDBRANCH  19  20
BRANCH  19  26
HETATM   26  C19 UNL     1       9.173   8.479  25.443  1.00  0.00     0.010 C 
HETATM   27  C20 UNL     1      10.447   9.003  24.820  1.00  0.00     0.012 C 
HETATM   28  C21 UNL     1       9.538   7.483  26.532  1.00  0.00     0.012 C 
ENDBRANCH  19  26
ENDBRANCH  17  19
ENDBRANCH  16  17
BRANCH  16  29
HETATM   29  O2  UNL     1       6.756   8.969  21.568  1.00  0.00    -0.344 OA
ATOM     30  H2  UNL     1       5.969   9.210  22.042  1.00  0.00     0.219 HD
ENDBRANCH  16  29
ENDBRANCH   1  16
BRANCH  14  31
HETATM   31  N7  UNL     1       7.690   3.602  18.000  1.00  0.00    -0.042 N 
HETATM   32  C13 UNL     1       7.645   3.967  16.594  1.00  0.00     0.275 C 
HETATM   33  C14 UNL     1       7.081   2.298  18.122  1.00  0.00     0.240 C 
HETATM   34  C15 UNL     1       7.772   1.218  17.332  1.00  0.00     0.028 C 
HETATM   35  C16 UNL     1       9.274   1.302  17.437  1.00  0.00     0.003 C 
HETATM   36  C17 UNL     1       9.689   2.249  18.516  1.00  0.00     0.028 C 
HETATM   37  C18 UNL     1       9.066   3.620  18.423  1.00  0.00     0.240 C 
ENDBRANCH  14  31
TORSDOF 9
ENDMDL
MODEL 2
REMARK VINA RESULT: -7.852606703      1.301      2.966
REMARK  9 active torsions:
REMARK  status: ('A' for Active; 'I' for Inactive)
REMARK    1  A    between atoms: C2_2  and  C3_3 
REMARK    2  A    between atoms: C3_3  and  N1_4 
REMARK       I    between atoms: N1_4  and  C4_5 
REMARK    3  A    between atoms: C4_5  and  C5_7 
REMARK    4  A    between atoms: C5_7  and  N2_8 
REMARK    5  A    between atoms: C5_7  and  C19_35 
REMARK    6  A    between atoms: N2_8  and  C6_10 
REMARK    7  A    between atoms: C6_10  and  O2_11 
REMARK    8  A    between atoms: C6_10  and  C7_13 
REMARK    9  A    between atoms: C11_26  and  N7_28 
ROOT
HETATM    1  C7  UNL     1       7.248   6.337  21.545  1.00  0.00     0.165 C 
HETATM    2  N3  UNL     1       6.976   5.181  22.105  1.00  0.00    -0.307 N 
ATOM      3  H3  UNL     1       6.943   5.003  23.109  1.00  0.00     0.170 HD
HETATM    4  C8  UNL     1       6.734   4.212  21.081  1.00  0.00     0.251 C 
HETATM    5  O3  UNL     1       6.035   3.207  21.264  1.00  0.00    -0.271 OA
HETATM    6  C9  UNL     1       7.492   4.744  19.919  1.00  0.00     0.243 C 
HETATM    7  N4  UNL     1       7.119   6.181  20.123  1.00  0.00    -0.283 N 
HETATM    8  C10 UNL     1       6.783   6.738  18.887  1.00  0.00     0.179 C 
HETATM    9  N5  UNL     1       6.241   7.867  18.692  1.00  0.00    -0.371 N 
ATOM     10  H51 UNL     1       5.996   8.274  17.789  1.00  0.00     0.159 HD
ATOM     11  H52 UNL     1       5.990   8.574  19.382  1.00  0.00     0.159 HD
HETATM   12  N6  UNL     1       7.139   5.737  17.908  1.00  0.00    -0.327 N 
ATOM     13  H6  UNL     1       7.467   5.893  16.955  1.00  0.00     0.165 HD
HETATM   14  C11 UNL     1       6.925   4.429  18.586  1.00  0.00     0.229 C 
HETATM   15  C12 UNL     1       5.421   4.274  18.623  1.00  0.00     0.074 C 
ENDROOT
BRANCH   1  16
HETATM   16  C6  UNL     1       7.542   7.545  22.250  1.00  0.00     0.182 C 
BRANCH  16  17
HETATM   17  N2  UNL     1       8.351   7.735  23.365  1.00  0.00    -0.353 N 
ATOM     18  H2  UNL     1       9.174   7.144  23.482  1.00  0.00     0.162 HD
BRANCH  17  19
HETATM   19  C5  UNL     1       8.062   8.751  24.373  1.00  0.00     0.194 C 
BRANCH  19  20
HETATM   20  C4  UNL     1       9.390   8.969  25.110  1.00  0.00     0.314 C 
HETATM   21  N1  UNL     1       9.669   8.178  26.214  1.00  0.00    -0.382 NA
HETATM   22  O1  UNL     1      10.122   9.867  24.642  1.00  0.00    -0.255 OA
BRANCH  21  23
HETATM   23  C3  UNL     1       9.939   7.424  27.271  1.00  0.00     0.185 C 
BRANCH  23  24
HETATM   24  C2  UNL     1      11.398   7.226  27.598  1.00  0.00     0.021 C 
HETATM   25  C1  UNL     1      12.337   7.926  26.956  1.00  0.00     0.013 C 
ENDBRANCH  23  24
ENDBRANCH  21  23
ENDBRANCH  19  20
BRANCH  19  26
HETATM   26  C19 UNL     1       6.995   8.392  25.313  1.00  0.00     0.010 C 
HETATM   27  C20 UNL     1       6.640   6.923  25.303  1.00  0.00     0.012 C 
HETATM   28  C21 UNL     1       5.733   9.199  25.049  1.00  0.00     0.012 C 
ENDBRANCH  19  26
ENDBRANCH  17  19
ENDBRANCH  16  17
BRANCH  16  29
HETATM   29  O2  UNL     1       6.973   8.606  21.757  1.00  0.00    -0.344 OA
ATOM     30  H2  UNL     1       7.544   9.238  21.335  1.00  0.00     0.219 HD
ENDBRANCH  16  29
ENDBRANCH   1  16
BRANCH  14  31
HETATM   31  N7  UNL     1       7.606   3.445  17.812  1.00  0.00    -0.042 N 
HETATM   32  C13 UNL     1       7.570   3.803  16.404  1.00  0.00     0.275 C 
HETATM   33  C14 UNL     1       6.936   2.173  17.947  1.00  0.00     0.240 C 
HETATM   34  C15 UNL     1       7.569   1.055  17.159  1.00  0.00     0.028 C 
HETATM   35  C16 UNL     1       9.074   1.067  17.254  1.00  0.00     0.003 C 
HETATM   36  C17 UNL     1       9.541   2.000  18.324  1.00  0.00     0.028 C 
HETATM   37  C18 UNL     1       8.985   3.399  18.226  1.00  0.00     0.240 C 
ENDBRANCH  14  31
TORSDOF 9
ENDMDL
MODEL 3
REMARK VINA RESULT: -7.776765774      1.465      3.198
REMARK  9 active torsions:
REMARK  status: ('A' for Active; 'I' for Inactive)
REMARK    1  A    between atoms: C2_2  and  C3_3 
REMARK    2  A    between atoms: C3_3  and  N1_4 
REMARK       I    between atoms: N1_4  and  C4_5 
REMARK    3  A    between atoms: C4_5  and  C5_7 
REMARK    4  A    between atoms: C5_7  and  N2_8 
REMARK    5  A    between atoms: C5_7  and  C19_35 
REMARK    6  A    between atoms: N2_8  and  C6_10 
REMARK    7  A    between atoms: C6_10  and  O2_11 
REMARK    8  A    between atoms: C6_10  and  C7_13 
REMARK    9  A    between atoms: C11_26  and  N7_28 
ROOT
HETATM    1  C7  UNL     1       6.386   6.514  21.943  1.00  0.00     0.165 C 
HETATM    2  N3  UNL     1       5.785   5.512  22.542  1.00  0.00    -0.307 N 
ATOM      3  H3  UNL     1       5.380   5.539  23.478  1.00  0.00     0.170 HD
HETATM    4  C8  UNL     1       5.790   4.377  21.671  1.00  0.00     0.251 C 
HETATM    5  O3  UNL     1       4.944   3.476  21.744  1.00  0.00    -0.271 OA
HETATM    6  C9  UNL     1       6.969   4.618  20.801  1.00  0.00     0.243 C 
HETATM    7  N4  UNL     1       6.743   6.088  20.619  1.00  0.00    -0.283 N 
HETATM    8  C10 UNL     1       6.937   6.410  19.274  1.00  0.00     0.179 C 
HETATM    9  N5  UNL     1       6.653   7.510  18.714  1.00  0.00    -0.371 N 
ATOM     10  H51 UNL     1       6.795   7.746  17.731  1.00  0.00     0.159 HD
ATOM     11  H52 UNL     1       6.272   8.355  19.140  1.00  0.00     0.159 HD
HETATM   12  N6  UNL     1       7.477   5.213  18.669  1.00  0.00    -0.327 N 
ATOM     13  H6  UNL     1       8.135   5.156  17.892  1.00  0.00     0.165 HD
HETATM   14  C11 UNL     1       6.867   4.083  19.422  1.00  0.00     0.229 C 
HETATM   15  C12 UNL     1       5.439   4.036  18.927  1.00  0.00     0.074 C 
ENDROOT
BRANCH   1  16
HETATM   16  C6  UNL     1       6.573   7.815  22.503  1.00  0.00     0.182 C 
BRANCH  16  17
HETATM   17  N2  UNL     1       5.635   8.670  23.069  1.00  0.00    -0.353 N 
ATOM     18  H2  UNL     1       4.982   9.160  22.456  1.00  0.00     0.162 HD
BRANCH  17  19
HETATM   19  C5  UNL     1       5.549   8.891  24.510  1.00  0.00     0.194 C 
BRANCH  19  20
HETATM   20  C4  UNL     1       6.126   7.616  25.142  1.00  0.00     0.314 C 
HETATM   21  N1  UNL     1       7.463   7.610  25.510  1.00  0.00    -0.382 NA
HETATM   22  O1  UNL     1       5.322   6.668  25.268  1.00  0.00    -0.255 OA
BRANCH  21  23
HETATM   23  C3  UNL     1       8.741   7.601  25.862  1.00  0.00     0.185 C 
BRANCH  23  24
HETATM   24  C2  UNL     1       9.581   8.753  25.367  1.00  0.00     0.021 C 
HETATM   25  C1  UNL     1      10.853   8.878  25.755  1.00  0.00     0.013 C 
ENDBRANCH  23  24
ENDBRANCH  21  23
ENDBRANCH  19  20
BRANCH  19  26
HETATM   26  C19 UNL     1       4.197   9.156  25.008  1.00  0.00     0.010 C 
HETATM   27  C20 UNL     1       3.368  10.028  24.093  1.00  0.00     0.012 C 
HETATM   28  C21 UNL     1       4.232   9.794  26.388  1.00  0.00     0.012 C 
ENDBRANCH  19  26
ENDBRANCH  17  19
ENDBRANCH  16  17
BRANCH  16  29
HETATM   29  O2  UNL     1       7.804   8.237  22.481  1.00  0.00    -0.344 OA
ATOM     30  H2  UNL     1       8.481   7.571  22.461  1.00  0.00     0.219 HD
ENDBRANCH  16  29
ENDBRANCH   1  16
BRANCH  14  31
HETATM   31  N7  UNL     1       7.640   2.922  19.122  1.00  0.00    -0.042 N 
HETATM   32  C13 UNL     1       7.646   2.018  20.259  1.00  0.00     0.275 C 
HETATM   33  C14 UNL     1       9.009   3.304  18.872  1.00  0.00     0.240 C 
HETATM   34  C15 UNL     1       9.923   2.150  18.551  1.00  0.00     0.028 C 
HETATM   35  C16 UNL     1       9.289   1.160  17.607  1.00  0.00     0.003 C 
HETATM   36  C17 UNL     1       8.036   1.713  17.007  1.00  0.00     0.028 C 
HETATM   37  C18 UNL     1       7.036   2.236  18.009  1.00  0.00     0.240 C 
ENDBRANCH  14  31
TORSDOF 9
ENDMDL
MODEL 4
REMARK VINA RESULT: -7.723211366      1.878      3.499
REMARK  9 active torsions:
REMARK  status: ('A' for Active; 'I' for Inactive)
REMARK    1  A    between atoms: C2_2  and  C3_3 
REMARK    2  A    between atoms: C3_3  and  N1_4 
REMARK       I    between atoms: N1_4  and  C4_5 
REMARK    3  A    between atoms: C4_5  and  C5_7 
REMARK    4  A    between atoms: C5_7  and  N2_8 
REMARK    5  A    between atoms: C5_7  and  C19_35 
REMARK    6  A    between atoms: N2_8  and  C6_10 
REMARK    7  A    between atoms: C6_10  and  O2_11 
REMARK    8  A    between atoms: C6_10  and  C7_13 
REMARK    9  A    between atoms: C11_26  and  N7_28 
ROOT
HETATM    1  C7  UNL     1       4.960   7.180  21.263  1.00  0.00     0.165 C 
HETATM    2  N3  UNL     1       3.948   6.530  20.738  1.00  0.00    -0.307 N 
ATOM      3  H3  UNL     1       2.971   6.634  21.012  1.00  0.00     0.170 HD
HETATM    4  C8  UNL     1       4.435   5.651  19.720  1.00  0.00     0.251 C 
HETATM    5  O3  UNL     1       3.734   5.270  18.774  1.00  0.00    -0.271 OA
HETATM    6  C9  UNL     1       5.840   5.395  20.131  1.00  0.00     0.243 C 
HETATM    7  N4  UNL     1       6.147   6.801  20.549  1.00  0.00    -0.283 N 
HETATM    8  C10 UNL     1       7.407   7.150  20.057  1.00  0.00     0.179 C 
HETATM    9  N5  UNL     1       7.917   8.310  20.050  1.00  0.00    -0.371 N 
ATOM     10  H51 UNL     1       8.838   8.566  19.691  1.00  0.00     0.159 HD
ATOM     11  H52 UNL     1       7.525   9.174  20.424  1.00  0.00     0.159 HD
HETATM   12  N6  UNL     1       7.963   5.927  19.526  1.00  0.00    -0.327 N 
ATOM     13  H6  UNL     1       8.945   5.654  19.501  1.00  0.00     0.165 HD
HETATM   14  C11 UNL     1       6.796   5.150  19.025  1.00  0.00     0.229 C 
HETATM   15  C12 UNL     1       6.398   5.862  17.751  1.00  0.00     0.074 C 
ENDROOT
BRANCH   1  16
HETATM   16  C6  UNL     1       4.863   8.149  22.309  1.00  0.00     0.182 C 
BRANCH  16  17
HETATM   17  N2  UNL     1       4.247   8.040  23.550  1.00  0.00    -0.353 N 
ATOM     18  H2  UNL     1       3.275   7.732  23.592  1.00  0.00     0.162 HD
BRANCH  17  19
HETATM   19  C5  UNL     1       4.943   8.351  24.796  1.00  0.00     0.194 C 
BRANCH  19  20
HETATM   20  C4  UNL     1       5.972   7.226  24.967  1.00  0.00     0.314 C 
HETATM   21  N1  UNL     1       7.317   7.563  24.997  1.00  0.00    -0.382 NA
HETATM   22  O1  UNL     1       5.498   6.074  25.062  1.00  0.00    -0.255 OA
BRANCH  21  23
HETATM   23  C3  UNL     1       8.604   7.881  25.026  1.00  0.00     0.185 C 
BRANCH  23  24
HETATM   24  C2  UNL     1       9.292   7.775  26.364  1.00  0.00     0.021 C 
HETATM   25  C1  UNL     1      10.570   8.136  26.499  1.00  0.00     0.013 C 
ENDBRANCH  23  24
ENDBRANCH  21  23
ENDBRANCH  19  20
BRANCH  19  26
HETATM   26  C19 UNL     1       4.074   8.449  25.972  1.00  0.00     0.010 C 
HETATM   27  C20 UNL     1       2.679   7.909  25.750  1.00  0.00     0.012 C 
HETATM   28  C21 UNL     1       3.967   9.885  26.461  1.00  0.00     0.012 C 
ENDBRANCH  19  26
ENDBRANCH  17  19
ENDBRANCH  16  17
BRANCH  16  29
HETATM   29  O2  UNL     1       5.450   9.281  22.048  1.00  0.00    -0.344 OA
ATOM     30  H2  UNL     1       6.172   9.525  22.615  1.00  0.00     0.219 HD
ENDBRANCH  16  29
ENDBRANCH   1  16
BRANCH  14  31
HETATM   31  N7  UNL     1       7.241   3.807  18.843  1.00  0.00    -0.042 N 
HETATM   32  C13 UNL     1       6.272   3.061  18.058  1.00  0.00     0.275 C 
HETATM   33  C14 UNL     1       7.345   3.154  20.126  1.00  0.00     0.240 C 
HETATM   34  C15 UNL     1       7.801   1.720  20.053  1.00  0.00     0.028 C 
HETATM   35  C16 UNL     1       8.932   1.526  19.075  1.00  0.00     0.003 C 
HETATM   36  C17 UNL     1       9.502   2.838  18.641  1.00  0.00     0.028 C 
HETATM   37  C18 UNL     1       8.485   3.823  18.119  1.00  0.00     0.240 C 
ENDBRANCH  14  31
TORSDOF 9
ENDMDL
MODEL 5
REMARK VINA RESULT: -7.684364648      1.647      3.165
REMARK  9 active torsions:
REMARK  status: ('A' for Active; 'I' for Inactive)
REMARK    1  A    between atoms: C2_2  and  C3_3 
REMARK    2  A    between atoms: C3_3  and  N1_4 
REMARK       I    between atoms: N1_4  and  C4_5 
REMARK    3  A    between atoms: C4_5  and  C5_7 
REMARK    4  A    between atoms: C5_7  and  N2_8 
REMARK    5  A    between atoms: C5_7  and  C19_35 
REMARK    6  A    between atoms: N2_8  and  C6_10 
REMARK    7  A    between atoms: C6_10  and  O2_11 
REMARK    8  A    between atoms: C6_10  and  C7_13 
REMARK    9  A    between atoms: C11_26  and  N7_28 
ROOT
HETATM    1  C7  UNL     1       5.814   6.194  22.133  1.00  0.00     0.165 C 
HETATM    2  N3  UNL     1       5.026   5.173  22.378  1.00  0.00    -0.307 N 
ATOM      3  H3  UNL     1       4.390   5.094  23.172  1.00  0.00     0.170 HD
HETATM    4  C8  UNL     1       5.202   4.191  21.354  1.00  0.00     0.251 C 
HETATM    5  O3  UNL     1       4.323   3.373  21.054  1.00  0.00    -0.271 OA
HETATM    6  C9  UNL     1       6.580   4.450  20.864  1.00  0.00     0.243 C 
HETATM    7  N4  UNL     1       6.485   5.945  20.888  1.00  0.00    -0.283 N 
HETATM    8  C10 UNL     1       7.044   6.450  19.712  1.00  0.00     0.179 C 
HETATM    9  N5  UNL     1       6.975   7.646  19.298  1.00  0.00    -0.371 N 
ATOM     10  H51 UNL     1       7.383   8.015  18.439  1.00  0.00     0.159 HD
ATOM     11  H52 UNL     1       6.538   8.447  19.754  1.00  0.00     0.159 HD
HETATM   12  N6  UNL     1       7.663   5.316  19.065  1.00  0.00    -0.327 N 
ATOM     13  H6  UNL     1       8.499   5.317  18.481  1.00  0.00     0.165 HD
HETATM   14  C11 UNL     1       6.819   4.145  19.433  1.00  0.00     0.229 C 
HETATM   15  C12 UNL     1       5.572   4.311  18.593  1.00  0.00     0.074 C 
ENDROOT
BRANCH   1  16
HETATM   16  C6  UNL     1       5.912   7.371  22.939  1.00  0.00     0.182 C 
BRANCH  16  17
HETATM   17  N2  UNL     1       6.987   8.238  23.096  1.00  0.00    -0.353 N 
ATOM     18  H2  UNL     1       6.909   9.189  22.734  1.00  0.00     0.162 HD
BRANCH  17  19
HETATM   19  C5  UNL     1       8.223   7.836  23.762  1.00  0.00     0.194 C 
BRANCH  19  20
HETATM   20  C4  UNL     1       8.069   8.318  25.211  1.00  0.00     0.314 C 
HETATM   21  N1  UNL     1       8.976   7.864  26.156  1.00  0.00    -0.382 NA
HETATM   22  O1  UNL     1       7.111   9.093  25.420  1.00  0.00    -0.255 OA
BRANCH  21  23
HETATM   23  C3  UNL     1       9.841   7.431  27.062  1.00  0.00     0.185 C 
BRANCH  23  24
HETATM   24  C2  UNL     1      11.257   7.935  26.932  1.00  0.00     0.021 C 
HETATM   25  C1  UNL     1      12.240   7.385  27.649  1.00  0.00     0.013 C 
ENDBRANCH  23  24
ENDBRANCH  21  23
ENDBRANCH  19  20
BRANCH  19  26
HETATM   26  C19 UNL     1       9.445   8.375  23.158  1.00  0.00     0.010 C 
HETATM   27  C20 UNL     1      10.052   9.526  23.927  1.00  0.00     0.012 C 
HETATM   28  C21 UNL     1       9.201   8.823  21.725  1.00  0.00     0.012 C 
ENDBRANCH  19  26
ENDBRANCH  17  19
ENDBRANCH  16  17
BRANCH  16  29
HETATM   29  O2  UNL     1       4.830   7.659  23.602  1.00  0.00    -0.344 OA
ATOM     30  H2  UNL     1       4.046   7.812  23.089  1.00  0.00     0.219 HD
ENDBRANCH  16  29
ENDBRANCH   1  16
BRANCH  14  31
HETATM   31  N7  UNL     1       7.583   2.977  19.141  1.00  0.00    -0.042 N 
HETATM   32  C13 UNL     1       7.588   2.084  20.287  1.00  0.00     0.275 C 
HETATM   33  C14 UNL     1       8.955   3.348  18.882  1.00  0.00     0.240 C 
HETATM   34  C15 UNL     1       9.860   2.186  18.569  1.00  0.00     0.028 C 
HETATM   35  C16 UNL     1       9.216   1.191  17.636  1.00  0.00     0.003 C 
HETATM   36  C17 UNL     1       7.964   1.746  17.036  1.00  0.00     0.028 C 
HETATM   37  C18 UNL     1       6.972   2.285  18.037  1.00  0.00     0.240 C 
ENDBRANCH  14  31
TORSDOF 9
ENDMDL
