MODEL 1
REMARK VINA RESULT: -6.513076053      0.000      0.000
REMARK  13 active torsions:
REMARK  status: ('A' for Active; 'I' for Inactive)
REMARK    1  A    between atoms: C2_2  and  C3_3 
REMARK    2  A    between atoms: C2_2  and  C15_18 
REMARK    3  A    between atoms: C4_4  and  C5_5 
REMARK    4  A    between atoms: C6_6  and  C7_7 
REMARK    5  A    between atoms: C7_7  and  N1_8 
REMARK    6  A    between atoms: N1_8  and  C8_9 
REMARK    7  A    between atoms: C8_9  and  C9_10 
REMARK    8  A    between atoms: C13_14  and  O1_16 
REMARK       I    between atoms: C15_18  and  N2_20 
REMARK    9  A    between atoms: N2_20  and  C16_22 
REMARK       I    between atoms: N3_25  and  C19_26 
REMARK   10  A    between atoms: C19_26  and  C20_28 
REMARK   11  A    between atoms: C20_28  and  O4_29 
REMARK   12  A    between atoms: C20_28  and  C21_31 
REMARK   13  A    between atoms: C21_31  and  C22_32 
ROOT
HETATM    1  C9  UNL     1       7.563   2.257  20.333  1.00  0.00    -0.079 C 
HETATM    2  C10 UNL     1       6.900   1.961  21.288  1.00  0.00    -0.109 C 
HETATM    3  C11 UNL     1       6.085   1.624  22.459  1.00  0.00     0.112 C 
ENDROOT
BRANCH   1   4
HETATM    4  C8  UNL     1       8.368   2.632  19.175  1.00  0.00     0.335 C 
BRANCH   4   5
HETATM    5  N1  UNL     1       7.498   3.116  18.137  1.00  0.00    -0.009 N 
HETATM    6  C12 UNL     1       6.187   2.469  18.153  1.00  0.00     0.311 A 
HETATM    7  C13 UNL     1       7.162   2.332  17.004  1.00  0.00     0.251 A 
HETATM    8  C14 UNL     1       6.692   2.998  15.737  1.00  0.00     0.081 C 
BRANCH   5   9
HETATM    9  C7  UNL     1       7.529   4.542  17.952  1.00  0.00     0.336 C 
BRANCH   9  10
HETATM   10  C6  UNL     1       7.650   5.264  19.210  1.00  0.00    -0.064 C 
HETATM   11  C5  UNL     1       7.773   5.891  20.260  1.00  0.00    -0.013 C 
BRANCH  11  12
HETATM   12  C4  UNL     1       7.894   6.627  21.462  1.00  0.00    -0.009 C 
HETATM   13  C3  UNL     1       8.001   7.239  22.499  1.00  0.00    -0.048 C 
BRANCH  13  14
HETATM   14  C2  UNL     1       8.126   7.980  23.720  1.00  0.00     0.076 C 
HETATM   15  C1  UNL     1       9.276   8.479  24.090  1.00  0.00     0.039 C 
BRANCH  14  16
HETATM   16  C15 UNL     1       6.959   8.169  24.543  1.00  0.00     0.259 C 
HETATM   17  O2  UNL     1       7.016   9.026  25.459  1.00  0.00    -0.267 OA
HETATM   18  N2  UNL     1       5.750   7.439  24.378  1.00  0.00    -0.350 N 
ATOM     19  H2  UNL     1       5.716   6.744  23.631  1.00  0.00     0.163 HD
BRANCH  18  20
HETATM   20  C16 UNL     1       4.581   7.607  25.179  1.00  0.00     0.104 C 
HETATM   21  C17 UNL     1       3.658   8.684  24.670  1.00  0.00     0.046 C 
HETATM   22  C18 UNL     1       2.364   8.326  25.418  1.00  0.00     0.128 C 
HETATM   23  N3  UNL     1       2.319   6.907  25.355  1.00  0.00    -0.348 N 
HETATM   24  C19 UNL     1       1.203   6.043  25.485  1.00  0.00     0.248 C 
HETATM   25  C25 UNL     1       3.676   6.401  25.126  1.00  0.00     0.151 C 
HETATM   26  O3  UNL     1       1.345   4.769  25.401  1.00  0.00    -0.270 OA
BRANCH  24  27
HETATM   27  C20 UNL     1      -0.193   6.464  25.719  1.00  0.00     0.210 C 
BRANCH  27  28
HETATM   28  O4  UNL     1      -0.472   6.956  26.959  1.00  0.00    -0.386 OA
ATOM     29  H4  UNL     1      -1.115   7.654  26.998  1.00  0.00     0.210 HD
ENDBRANCH  27  28
BRANCH  27  30
HETATM   30  C21 UNL     1      -0.720   7.391  24.668  1.00  0.00     0.045 C 
BRANCH  30  31
HETATM   31  C22 UNL     1      -0.557   6.810  23.302  1.00  0.00    -0.020 C 
HETATM   32  C23 UNL     1       0.152   7.742  22.345  1.00  0.00     0.009 C 
HETATM   33  C24 UNL     1      -1.931   6.431  22.790  1.00  0.00     0.009 C 
ENDBRANCH  30  31
ENDBRANCH  27  30
ENDBRANCH  24  27
ENDBRANCH  18  20
ENDBRANCH  14  16
ENDBRANCH  13  14
ENDBRANCH  11  12
ENDBRANCH   9  10
ENDBRANCH   5   9
BRANCH   7  34
HETATM   34  O1  UNL     1       7.650   1.052  16.819  1.00  0.00    -0.363 OA
ATOM     35  H1  UNL     1       7.079   0.297  16.739  1.00  0.00     0.212 HD
ENDBRANCH   7  34
ENDBRANCH   4   5
ENDBRANCH   1   4
TORSDOF 13
ENDMDL
MODEL 2
REMARK VINA RESULT: -6.470175938      3.012      4.829
REMARK  13 active torsions:
REMARK  status: ('A' for Active; 'I' for Inactive)
REMARK    1  A    between atoms: C2_2  and  C3_3 
REMARK    2  A    between atoms: C2_2  and  C15_18 
REMARK    3  A    between atoms: C4_4  and  C5_5 
REMARK    4  A    between atoms: C6_6  and  C7_7 
REMARK    5  A    between atoms: C7_7  and  N1_8 
REMARK    6  A    between atoms: N1_8  and  C8_9 
REMARK    7  A    between atoms: C8_9  and  C9_10 
REMARK    8  A    between atoms: C13_14  and  O1_16 
REMARK       I    between atoms: C15_18  and  N2_20 
REMARK    9  A    between atoms: N2_20  and  C16_22 
REMARK       I    between atoms: N3_25  and  C19_26 
REMARK   10  A    between atoms: C19_26  and  C20_28 
REMARK   11  A    between atoms: C20_28  and  O4_29 
REMARK   12  A    between atoms: C20_28  and  C21_31 
REMARK   13  A    between atoms: C21_31  and  C22_32 
ROOT
HETATM    1  C9  UNL     1       6.676   3.717  16.645  1.00  0.00    -0.079 C 
HETATM    2  C10 UNL     1       6.562   4.720  15.997  1.00  0.00    -0.109 C 
HETATM    3  C11 UNL     1       6.407   5.955  15.222  1.00  0.00     0.112 C 
ENDROOT
BRANCH   1   4
HETATM    4  C8  UNL     1       6.803   2.502  17.444  1.00  0.00     0.335 C 
BRANCH   4   5
HETATM    5  N1  UNL     1       8.157   2.391  17.915  1.00  0.00    -0.009 N 
HETATM    6  C12 UNL     1       9.142   2.589  16.852  1.00  0.00     0.311 A 
HETATM    7  C13 UNL     1       8.981   1.281  17.596  1.00  0.00     0.251 A 
HETATM    8  C14 UNL     1      10.159   0.940  18.469  1.00  0.00     0.081 C 
BRANCH   5   9
HETATM    9  C7  UNL     1       8.404   3.040  19.174  1.00  0.00     0.336 C 
BRANCH   9  10
HETATM   10  C6  UNL     1       7.381   2.740  20.165  1.00  0.00    -0.064 C 
HETATM   11  C5  UNL     1       6.535   2.498  21.023  1.00  0.00    -0.013 C 
BRANCH  11  12
HETATM   12  C4  UNL     1       5.549   2.240  22.005  1.00  0.00    -0.009 C 
HETATM   13  C3  UNL     1       4.701   2.005  22.834  1.00  0.00    -0.048 C 
BRANCH  13  14
HETATM   14  C2  UNL     1       3.700   1.739  23.825  1.00  0.00     0.076 C 
HETATM   15  C1  UNL     1       3.460   0.519  24.228  1.00  0.00     0.039 C 
BRANCH  14  16
HETATM   16  C15 UNL     1       2.956   2.842  24.378  1.00  0.00     0.259 C 
HETATM   17  O2  UNL     1       1.944   2.580  25.075  1.00  0.00    -0.267 OA
HETATM   18  N2  UNL     1       3.302   4.206  24.178  1.00  0.00    -0.350 N 
ATOM     19  H2  UNL     1       4.125   4.406  23.609  1.00  0.00     0.163 HD
BRANCH  18  20
HETATM   20  C16 UNL     1       2.582   5.315  24.714  1.00  0.00     0.104 C 
HETATM   21  C17 UNL     1       3.443   6.253  25.520  1.00  0.00     0.046 C 
HETATM   22  C18 UNL     1       2.544   7.500  25.561  1.00  0.00     0.128 C 
HETATM   23  N3  UNL     1       2.005   7.571  24.247  1.00  0.00    -0.348 N 
HETATM   24  C19 UNL     1       1.466   8.689  23.564  1.00  0.00     0.248 C 
HETATM   25  C25 UNL     1       2.076   6.241  23.635  1.00  0.00     0.151 C 
HETATM   26  O3  UNL     1       1.017   8.573  22.366  1.00  0.00    -0.270 OA
BRANCH  24  27
HETATM   27  C20 UNL     1       1.353  10.059  24.102  1.00  0.00     0.210 C 
BRANCH  27  28
HETATM   28  O4  UNL     1       1.840  11.058  23.312  1.00  0.00    -0.386 OA
ATOM     29  H4  UNL     1       1.375  11.886  23.349  1.00  0.00     0.210 HD
ENDBRANCH  27  28
BRANCH  27  30
HETATM   30  C21 UNL     1      -0.027  10.403  24.572  1.00  0.00     0.045 C 
BRANCH  30  31
HETATM   31  C22 UNL     1      -0.112  10.382  26.063  1.00  0.00    -0.020 C 
HETATM   32  C23 UNL     1      -0.615   9.064  26.607  1.00  0.00     0.009 C 
HETATM   33  C24 UNL     1      -0.997  11.533  26.495  1.00  0.00     0.009 C 
ENDBRANCH  30  31
ENDBRANCH  27  30
ENDBRANCH  24  27
ENDBRANCH  18  20
ENDBRANCH  14  16
ENDBRANCH  13  14
ENDBRANCH  11  12
ENDBRANCH   9  10
ENDBRANCH   5   9
BRANCH   7  34
HETATM   34  O1  UNL     1       8.537   0.230  16.815  1.00  0.00    -0.363 OA
ATOM     35  H1  UNL     1       9.084  -0.520  16.613  1.00  0.00     0.212 HD
ENDBRANCH   7  34
ENDBRANCH   4   5
ENDBRANCH   1   4
TORSDOF 13
ENDMDL
MODEL 3
REMARK VINA RESULT: -6.430708245      1.350      1.697
REMARK  13 active torsions:
REMARK  status: ('A' for Active; 'I' for Inactive)
REMARK    1  A    between atoms: C2_2  and  C3_3 
REMARK    2  A    between atoms: C2_2  and  C15_18 
REMARK    3  A    between atoms: C4_4  and  C5_5 
REMARK    4  A    between atoms: C6_6  and  C7_7 
REMARK    5  A    between atoms: C7_7  and  N1_8 
REMARK    6  A    between atoms: N1_8  and  C8_9 
REMARK    7  A    between atoms: C8_9  and  C9_10 
REMARK    8  A    between atoms: C13_14  and  O1_16 
REMARK       I    between atoms: C15_18  and  N2_20 
REMARK    9  A    between atoms: N2_20  and  C16_22 
REMARK       I    between atoms: N3_25  and  C19_26 
REMARK   10  A    between atoms: C19_26  and  C20_28 
REMARK   11  A    between atoms: C20_28  and  O4_29 
REMARK   12  A    between atoms: C20_28  and  C21_31 
REMARK   13  A    between atoms: C21_31  and  C22_32 
ROOT
HETATM    1  C9  UNL     1       7.922   2.013  19.033  1.00  0.00    -0.079 C 
HETATM    2  C10 UNL     1       8.951   1.429  18.836  1.00  0.00    -0.109 C 
HETATM    3  C11 UNL     1      10.198   0.702  18.579  1.00  0.00     0.112 C 
ENDROOT
BRANCH   1   4
HETATM    4  C8  UNL     1       6.663   2.714  19.261  1.00  0.00     0.335 C 
BRANCH   4   5
HETATM    5  N1  UNL     1       6.473   3.687  18.219  1.00  0.00    -0.009 N 
HETATM    6  C12 UNL     1       5.094   4.169  18.142  1.00  0.00     0.311 A 
HETATM    7  C13 UNL     1       5.762   3.393  17.027  1.00  0.00     0.251 A 
HETATM    8  C14 UNL     1       5.998   4.212  15.786  1.00  0.00     0.081 C 
BRANCH   5   9
HETATM    9  C7  UNL     1       7.521   4.667  18.123  1.00  0.00     0.336 C 
BRANCH   9  10
HETATM   10  C6  UNL     1       7.691   5.424  19.354  1.00  0.00    -0.064 C 
HETATM   11  C5  UNL     1       7.834   6.089  20.378  1.00  0.00    -0.013 C 
BRANCH  11  12
HETATM   12  C4  UNL     1       7.973   6.852  21.561  1.00  0.00    -0.009 C 
HETATM   13  C3  UNL     1       8.077   7.497  22.579  1.00  0.00    -0.048 C 
BRANCH  13  14
HETATM   14  C2  UNL     1       8.214   8.268  23.780  1.00  0.00     0.076 C 
HETATM   15  C1  UNL     1       9.323   8.907  24.046  1.00  0.00     0.039 C 
BRANCH  14  16
HETATM   16  C15 UNL     1       7.106   8.330  24.698  1.00  0.00     0.259 C 
HETATM   17  O2  UNL     1       7.275   7.878  25.858  1.00  0.00    -0.267 OA
HETATM   18  N2  UNL     1       5.834   8.871  24.364  1.00  0.00    -0.350 N 
ATOM     19  H2  UNL     1       5.708   9.234  23.419  1.00  0.00     0.163 HD
BRANCH  18  20
HETATM   20  C16 UNL     1       4.722   8.944  25.255  1.00  0.00     0.104 C 
HETATM   21  C17 UNL     1       3.728  10.014  24.883  1.00  0.00     0.046 C 
HETATM   22  C18 UNL     1       2.504   9.560  25.695  1.00  0.00     0.128 C 
HETATM   23  N3  UNL     1       2.503   8.147  25.544  1.00  0.00    -0.348 N 
HETATM   24  C19 UNL     1       1.430   7.234  25.695  1.00  0.00     0.248 C 
HETATM   25  C25 UNL     1       3.856   7.710  25.188  1.00  0.00     0.151 C 
HETATM   26  O3  UNL     1       1.609   5.975  25.519  1.00  0.00    -0.270 OA
BRANCH  24  27
HETATM   27  C20 UNL     1       0.041   7.585  26.053  1.00  0.00     0.210 C 
BRANCH  27  28
HETATM   28  O4  UNL     1      -0.172   7.946  27.351  1.00  0.00    -0.386 OA
ATOM     29  H4  UNL     1      -0.992   7.659  27.736  1.00  0.00     0.210 HD
ENDBRANCH  27  28
BRANCH  27  30
HETATM   30  C21 UNL     1      -0.575   8.592  25.133  1.00  0.00     0.045 C 
BRANCH  30  31
HETATM   31  C22 UNL     1      -0.556   8.115  23.717  1.00  0.00    -0.020 C 
HETATM   32  C23 UNL     1       0.074   9.109  22.768  1.00  0.00     0.009 C 
HETATM   33  C24 UNL     1      -1.980   7.791  23.315  1.00  0.00     0.009 C 
ENDBRANCH  30  31
ENDBRANCH  27  30
ENDBRANCH  24  27
ENDBRANCH  18  20
ENDBRANCH  14  16
ENDBRANCH  13  14
ENDBRANCH  11  12
ENDBRANCH   9  10
ENDBRANCH   5   9
BRANCH   7  34
HETATM   34  O1  UNL     1       5.207   2.150  16.785  1.00  0.00    -0.363 OA
ATOM     35  H1  UNL     1       4.516   1.788  17.327  1.00  0.00     0.212 HD
ENDBRANCH   7  34
ENDBRANCH   4   5
ENDBRANCH   1   4
TORSDOF 13
ENDMDL
MODEL 4
REMARK VINA RESULT: -6.395532146      2.485      4.464
REMARK  13 active torsions:
REMARK  status: ('A' for Active; 'I' for Inactive)
REMARK    1  A    between atoms: C2_2  and  C3_3 
REMARK    2  A    between atoms: C2_2  and  C15_18 
REMARK    3  A    between atoms: C4_4  and  C5_5 
REMARK    4  A    between atoms: C6_6  and  C7_7 
REMARK    5  A    between atoms: C7_7  and  N1_8 
REMARK    6  A    between atoms: N1_8  and  C8_9 
REMARK    7  A    between atoms: C8_9  and  C9_10 
REMARK    8  A    between atoms: C13_14  and  O1_16 
REMARK       I    between atoms: C15_18  and  N2_20 
REMARK    9  A    between atoms: N2_20  and  C16_22 
REMARK       I    between atoms: N3_25  and  C19_26 
REMARK   10  A    between atoms: C19_26  and  C20_28 
REMARK   11  A    between atoms: C20_28  and  O4_29 
REMARK   12  A    between atoms: C20_28  and  C21_31 
REMARK   13  A    between atoms: C21_31  and  C22_32 
ROOT
HETATM    1  C9  UNL     1       8.038   4.738  19.338  1.00  0.00    -0.079 C 
HETATM    2  C10 UNL     1       7.122   5.340  19.827  1.00  0.00    -0.109 C 
HETATM    3  C11 UNL     1       6.018   6.094  20.429  1.00  0.00     0.112 C 
ENDROOT
BRANCH   1   4
HETATM    4  C8  UNL     1       9.162   4.018  18.749  1.00  0.00     0.335 C 
BRANCH   4   5
HETATM    5  N1  UNL     1       8.685   2.779  18.195  1.00  0.00    -0.009 N 
HETATM    6  C12 UNL     1       9.165   2.549  16.833  1.00  0.00     0.311 A 
HETATM    7  C13 UNL     1       7.702   2.734  17.174  1.00  0.00     0.251 A 
HETATM    8  C14 UNL     1       6.878   1.490  16.973  1.00  0.00     0.081 C 
BRANCH   5   9
HETATM    9  C7  UNL     1       8.725   1.666  19.106  1.00  0.00     0.336 C 
BRANCH   9  10
HETATM   10  C6  UNL     1       7.692   1.747  20.128  1.00  0.00    -0.064 C 
HETATM   11  C5  UNL     1       6.799   1.823  20.970  1.00  0.00    -0.013 C 
BRANCH  11  12
HETATM   12  C4  UNL     1       5.769   1.886  21.937  1.00  0.00    -0.009 C 
HETATM   13  C3  UNL     1       4.879   1.926  22.756  1.00  0.00    -0.048 C 
BRANCH  13  14
HETATM   14  C2  UNL     1       3.833   1.984  23.733  1.00  0.00     0.076 C 
HETATM   15  C1  UNL     1       3.096   0.936  23.994  1.00  0.00     0.039 C 
BRANCH  14  16
HETATM   16  C15 UNL     1       3.600   3.223  24.432  1.00  0.00     0.259 C 
HETATM   17  O2  UNL     1       2.891   3.191  25.468  1.00  0.00    -0.267 OA
HETATM   18  N2  UNL     1       4.125   4.476  24.012  1.00  0.00    -0.350 N 
ATOM     19  H2  UNL     1       4.698   4.489  23.168  1.00  0.00     0.163 HD
BRANCH  18  20
HETATM   20  C16 UNL     1       3.908   5.715  24.686  1.00  0.00     0.104 C 
HETATM   21  C17 UNL     1       4.931   6.768  24.342  1.00  0.00     0.046 C 
HETATM   22  C18 UNL     1       4.206   8.035  24.823  1.00  0.00     0.128 C 
HETATM   23  N3  UNL     1       2.859   7.829  24.419  1.00  0.00    -0.348 N 
HETATM   24  C19 UNL     1       1.835   8.786  24.204  1.00  0.00     0.248 C 
HETATM   25  C25 UNL     1       2.635   6.392  24.239  1.00  0.00     0.151 C 
HETATM   26  O3  UNL     1       0.660   8.419  23.837  1.00  0.00    -0.270 OA
BRANCH  24  27
HETATM   27  C20 UNL     1       1.971  10.247  24.364  1.00  0.00     0.210 C 
BRANCH  27  28
HETATM   28  O4  UNL     1       2.133  10.699  25.640  1.00  0.00    -0.386 OA
ATOM     29  H4  UNL     1       3.025  10.891  25.906  1.00  0.00     0.210 HD
ENDBRANCH  27  28
BRANCH  27  30
HETATM   30  C21 UNL     1       3.008  10.850  23.469  1.00  0.00     0.045 C 
BRANCH  30  31
HETATM   31  C22 UNL     1       2.748  10.517  22.036  1.00  0.00    -0.020 C 
HETATM   32  C23 UNL     1       3.857   9.701  21.410  1.00  0.00     0.009 C 
HETATM   33  C24 UNL     1       2.526  11.815  21.289  1.00  0.00     0.009 C 
ENDBRANCH  30  31
ENDBRANCH  27  30
ENDBRANCH  24  27
ENDBRANCH  18  20
ENDBRANCH  14  16
ENDBRANCH  13  14
ENDBRANCH  11  12
ENDBRANCH   9  10
ENDBRANCH   5   9
BRANCH   7  34
HETATM   34  O1  UNL     1       7.132   3.877  16.645  1.00  0.00    -0.363 OA
ATOM     35  H1  UNL     1       6.783   3.909  15.762  1.00  0.00     0.212 HD
ENDBRANCH   7  34
ENDBRANCH   4   5
ENDBRANCH   1   4
TORSDOF 13
ENDMDL
MODEL 5
REMARK VINA RESULT: -6.305800212      1.264      1.309
REMARK  13 active torsions:
REMARK  status: ('A' for Active; 'I' for Inactive)
REMARK    1  A    between atoms: C2_2  and  C3_3 
REMARK    2  A    between atoms: C2_2  and  C15_18 
REMARK    3  A    between atoms: C4_4  and  C5_5 
REMARK    4  A    between atoms: C6_6  and  C7_7 
REMARK    5  A    between atoms: C7_7  and  N1_8 
REMARK    6  A    between atoms: N1_8  and  C8_9 
REMARK    7  A    between atoms: C8_9  and  C9_10 
REMARK    8  A    between atoms: C13_14  and  O1_16 
REMARK       I    between atoms: C15_18  and  N2_20 
REMARK    9  A    between atoms: N2_20  and  C16_22 
REMARK       I    between atoms: N3_25  and  C19_26 
REMARK   10  A    between atoms: C19_26  and  C20_28 
REMARK   11  A    between atoms: C20_28  and  O4_29 
REMARK   12  A    between atoms: C20_28  and  C21_31 
REMARK   13  A    between atoms: C21_31  and  C22_32 
ROOT
HETATM    1  C9  UNL     1       7.622   1.913  19.932  1.00  0.00    -0.079 C 
HETATM    2  C10 UNL     1       7.078   1.890  21.001  1.00  0.00    -0.109 C 
HETATM    3  C11 UNL     1       6.400   1.881  22.301  1.00  0.00     0.112 C 
ENDROOT
BRANCH   1   4
HETATM    4  C8  UNL     1       8.277   1.957  18.629  1.00  0.00     0.335 C 
BRANCH   4   5
HETATM    5  N1  UNL     1       7.469   2.729  17.724  1.00  0.00    -0.009 N 
HETATM    6  C12 UNL     1       6.038   2.497  17.907  1.00  0.00     0.311 A 
HETATM    7  C13 UNL     1       6.777   2.141  16.635  1.00  0.00     0.251 A 
HETATM    8  C14 UNL     1       6.374   2.982  15.453  1.00  0.00     0.081 C 
BRANCH   5   9
HETATM    9  C7  UNL     1       7.901   4.091  17.557  1.00  0.00     0.336 C 
BRANCH   9  10
HETATM   10  C6  UNL     1       7.848   4.848  18.798  1.00  0.00    -0.064 C 
HETATM   11  C5  UNL     1       7.800   5.463  19.862  1.00  0.00    -0.013 C 
BRANCH  11  12
HETATM   12  C4  UNL     1       7.769   6.170  21.087  1.00  0.00    -0.009 C 
HETATM   13  C3  UNL     1       7.761   6.772  22.136  1.00  0.00    -0.048 C 
BRANCH  13  14
HETATM   14  C2  UNL     1       7.736   7.488  23.377  1.00  0.00     0.076 C 
HETATM   15  C1  UNL     1       8.743   8.239  23.741  1.00  0.00     0.039 C 
BRANCH  14  16
HETATM   16  C15 UNL     1       6.579   7.370  24.227  1.00  0.00     0.259 C 
HETATM   17  O2  UNL     1       6.739   7.511  25.465  1.00  0.00    -0.267 OA
HETATM   18  N2  UNL     1       5.269   7.102  23.743  1.00  0.00    -0.350 N 
ATOM     19  H2  UNL     1       5.151   6.989  22.736  1.00  0.00     0.163 HD
BRANCH  18  20
HETATM   20  C16 UNL     1       4.108   6.981  24.563  1.00  0.00     0.104 C 
HETATM   21  C17 UNL     1       2.914   7.726  24.024  1.00  0.00     0.046 C 
HETATM   22  C18 UNL     1       1.780   7.062  24.820  1.00  0.00     0.128 C 
HETATM   23  N3  UNL     1       2.135   5.685  24.830  1.00  0.00    -0.348 N 
HETATM   24  C19 UNL     1       1.308   4.552  25.030  1.00  0.00     0.248 C 
HETATM   25  C25 UNL     1       3.577   5.568  24.593  1.00  0.00     0.151 C 
HETATM   26  O3  UNL     1       1.802   3.366  25.007  1.00  0.00    -0.270 OA
BRANCH  24  27
HETATM   27  C20 UNL     1      -0.147   4.577  25.276  1.00  0.00     0.210 C 
BRANCH  27  28
HETATM   28  O4  UNL     1      -0.546   5.119  26.462  1.00  0.00    -0.386 OA
ATOM     29  H4  UNL     1      -1.386   5.563  26.458  1.00  0.00     0.210 HD
ENDBRANCH  27  28
BRANCH  27  30
HETATM   30  C21 UNL     1      -0.932   5.173  24.150  1.00  0.00     0.045 C 
BRANCH  30  31
HETATM   31  C22 UNL     1      -0.492   4.623  22.832  1.00  0.00    -0.020 C 
HETATM   32  C23 UNL     1      -0.471   5.663  21.735  1.00  0.00     0.009 C 
HETATM   33  C24 UNL     1      -1.406   3.466  22.482  1.00  0.00     0.009 C 
ENDBRANCH  30  31
ENDBRANCH  27  30
ENDBRANCH  24  27
ENDBRANCH  18  20
ENDBRANCH  14  16
ENDBRANCH  13  14
ENDBRANCH  11  12
ENDBRANCH   9  10
ENDBRANCH   5   9
BRANCH   7  34
HETATM   34  O1  UNL     1       6.835   0.786  16.368  1.00  0.00    -0.363 OA
ATOM     35  H1  UNL     1       6.404   0.397  15.615  1.00  0.00     0.212 HD
ENDBRANCH   7  34
ENDBRANCH   4   5
ENDBRANCH   1   4
TORSDOF 13
ENDMDL
