MODEL 1
REMARK VINA RESULT: -7.193351493      0.000      0.000
REMARK  8 active torsions:
REMARK  status: ('A' for Active; 'I' for Inactive)
REMARK    1  A    between atoms: C3_3  and  N1_4 
REMARK    2  A    between atoms: N1_4  and  C4_5 
REMARK    3  A    between atoms: C4_5  and  C5_6 
REMARK       I    between atoms: C5_6  and  N2_8 
REMARK    4  A    between atoms: N2_8  and  C6_10 
REMARK    5  A    between atoms: C6_10  and  C7_11 
REMARK       I    between atoms: C7_11  and  N3_13 
REMARK    6  A    between atoms: N3_13  and  C8_15 
REMARK    7  A    between atoms: C8_15  and  C9_16 
REMARK       I    between atoms: N4_24  and  C17_25 
REMARK       I    between atoms: C17_25  and  N5_27 
REMARK    8  A    between atoms: N5_27  and  C18_29 
ROOT
HETATM    1  C1  UNL     1       0.488   3.746  24.017  1.00  0.00     0.098 C 
HETATM    2  C2  UNL     1       1.450   3.239  23.446  1.00  0.00    -0.159 C 
HETATM    3  C3  UNL     1       2.569   2.615  22.772  1.00  0.00     0.332 C 
ENDROOT
BRANCH   3   4
HETATM    4  N1  UNL     1       3.706   3.528  22.645  1.00  0.00     0.029 N 
HETATM    5  C15 UNL     1       3.433   4.565  21.731  1.00  0.00     0.274 A 
HETATM    6  C16 UNL     1       4.430   4.527  20.640  1.00  0.00     0.166 A 
HETATM    7  N4  UNL     1       5.232   3.376  20.918  1.00  0.00    -0.263 N 
HETATM    8  C17 UNL     1       6.329   2.900  20.103  1.00  0.00     0.325 C 
HETATM    9  C22 UNL     1       4.786   2.777  22.109  1.00  0.00     0.290 A 
HETATM   10  O3  UNL     1       6.960   1.866  20.461  1.00  0.00    -0.247 OA
HETATM   11  N5  UNL     1       6.685   3.595  18.914  1.00  0.00    -0.335 N 
ATOM     12  H5  UNL     1       6.164   4.427  18.639  1.00  0.00     0.165 HD
HETATM   13  N6  UNL     1       5.293   1.694  22.641  1.00  0.00    -0.364 N 
ATOM     14  H62 UNL     1       4.970   1.259  23.506  1.00  0.00     0.159 HD
ATOM     15  H61 UNL     1       6.069   1.156  22.257  1.00  0.00     0.159 HD
BRANCH   4  16
HETATM   16  C4  UNL     1       4.155   3.984  23.935  1.00  0.00     0.287 C 
BRANCH  16  17
HETATM   17  C5  UNL     1       4.540   5.365  24.110  1.00  0.00     0.266 C 
HETATM   18  O1  UNL     1       3.628   6.128  24.613  1.00  0.00    -0.267 OA
HETATM   19  N2  UNL     1       5.761   5.950  23.801  1.00  0.00    -0.338 N 
ATOM     20  H2  UNL     1       6.485   5.351  23.402  1.00  0.00     0.164 HD
BRANCH  19  21
HETATM   21  C6  UNL     1       6.087   7.361  24.004  1.00  0.00     0.114 C 
HETATM   22  C11 UNL     1       5.692   7.789  25.396  1.00  0.00     0.041 C 
HETATM   23  C12 UNL     1       5.206   9.194  25.235  1.00  0.00     0.003 C 
HETATM   24  C13 UNL     1       4.570   9.230  23.882  1.00  0.00     0.003 C 
HETATM   25  C14 UNL     1       5.268   8.193  23.060  1.00  0.00     0.041 C 
BRANCH  21  26
HETATM   26  C7  UNL     1       7.531   7.615  23.830  1.00  0.00     0.246 C 
HETATM   27  O2  UNL     1       8.177   6.898  23.039  1.00  0.00    -0.271 OA
HETATM   28  N3  UNL     1       8.165   8.647  24.532  1.00  0.00    -0.355 N 
ATOM     29  H3  UNL     1       7.564   9.198  25.145  1.00  0.00     0.162 HD
BRANCH  28  30
HETATM   30  C8  UNL     1       9.534   9.030  24.506  1.00  0.00     0.149 C 
BRANCH  30  31
HETATM   31  C9  UNL     1      10.275   8.640  25.711  1.00  0.00    -0.018 C 
HETATM   32  C10 UNL     1       9.925   7.820  26.665  1.00  0.00     0.008 C 
ENDBRANCH  30  31
ENDBRANCH  28  30
ENDBRANCH  21  26
ENDBRANCH  19  21
ENDBRANCH  16  17
ENDBRANCH   4  16
BRANCH  11  33
HETATM   33  C18 UNL     1       7.799   3.121  18.080  1.00  0.00     0.023 C 
HETATM   34  C19 UNL     1       9.132   3.356  18.756  1.00  0.00     0.037 C 
HETATM   35  C20 UNL     1       7.630   1.633  17.816  1.00  0.00     0.037 C 
HETATM   36  C21 UNL     1       7.793   3.890  16.778  1.00  0.00     0.037 C 
ENDBRANCH  11  33
ENDBRANCH   3   4
TORSDOF 8
ENDMDL
MODEL 2
REMARK VINA RESULT: -7.137493699      3.151      8.615
REMARK  8 active torsions:
REMARK  status: ('A' for Active; 'I' for Inactive)
REMARK    1  A    between atoms: C3_3  and  N1_4 
REMARK    2  A    between atoms: N1_4  and  C4_5 
REMARK    3  A    between atoms: C4_5  and  C5_6 
REMARK       I    between atoms: C5_6  and  N2_8 
REMARK    4  A    between atoms: N2_8  and  C6_10 
REMARK    5  A    between atoms: C6_10  and  C7_11 
REMARK       I    between atoms: C7_11  and  N3_13 
REMARK    6  A    between atoms: N3_13  and  C8_15 
REMARK    7  A    between atoms: C8_15  and  C9_16 
REMARK       I    between atoms: N4_24  and  C17_25 
REMARK       I    between atoms: C17_25  and  N5_27 
REMARK    8  A    between atoms: N5_27  and  C18_29 
ROOT
HETATM    1  C1  UNL     1       9.066   9.008  20.949  1.00  0.00     0.098 C 
HETATM    2  C2  UNL     1       8.385   7.997  20.799  1.00  0.00    -0.159 C 
HETATM    3  C3  UNL     1       7.607   6.790  20.619  1.00  0.00     0.332 C 
ENDROOT
BRANCH   3   4
HETATM    4  N1  UNL     1       6.171   7.069  20.573  1.00  0.00     0.029 N 
HETATM    5  C15 UNL     1       5.920   8.438  20.353  1.00  0.00     0.274 A 
HETATM    6  C16 UNL     1       5.127   8.975  21.479  1.00  0.00     0.166 A 
HETATM    7  N4  UNL     1       5.007   7.883  22.395  1.00  0.00    -0.263 N 
HETATM    8  C17 UNL     1       4.337   7.930  23.677  1.00  0.00     0.325 C 
HETATM    9  C22 UNL     1       5.643   6.752  21.853  1.00  0.00     0.290 A 
HETATM   10  O3  UNL     1       4.302   6.891  24.393  1.00  0.00    -0.247 OA
HETATM   11  N5  UNL     1       3.729   9.138  24.116  1.00  0.00    -0.335 N 
ATOM     12  H5  UNL     1       3.769   9.969  23.526  1.00  0.00     0.165 HD
HETATM   13  N6  UNL     1       5.732   5.586  22.441  1.00  0.00    -0.364 N 
ATOM     14  H62 UNL     1       6.194   4.765  22.048  1.00  0.00     0.159 HD
ATOM     15  H61 UNL     1       5.353   5.358  23.360  1.00  0.00     0.159 HD
BRANCH   4  16
HETATM   16  C4  UNL     1       5.498   6.192  19.650  1.00  0.00     0.287 C 
BRANCH  16  17
HETATM   17  C5  UNL     1       6.255   5.193  18.935  1.00  0.00     0.266 C 
HETATM   18  O1  UNL     1       6.570   5.507  17.722  1.00  0.00    -0.267 OA
HETATM   19  N2  UNL     1       6.673   3.952  19.399  1.00  0.00    -0.338 N 
ATOM     20  H2  UNL     1       6.426   3.699  20.356  1.00  0.00     0.164 HD
BRANCH  19  21
HETATM   21  C6  UNL     1       7.441   2.983  18.619  1.00  0.00     0.114 C 
HETATM   22  C11 UNL     1       7.823   1.807  19.485  1.00  0.00     0.041 C 
HETATM   23  C12 UNL     1       9.188   1.420  19.014  1.00  0.00     0.003 C 
HETATM   24  C13 UNL     1       9.835   2.704  18.605  1.00  0.00     0.003 C 
HETATM   25  C14 UNL     1       8.728   3.617  18.179  1.00  0.00     0.041 C 
BRANCH  21  26
HETATM   26  C7  UNL     1       6.668   2.480  17.466  1.00  0.00     0.246 C 
HETATM   27  O2  UNL     1       5.790   1.614  17.661  1.00  0.00    -0.271 OA
HETATM   28  N3  UNL     1       6.906   2.970  16.176  1.00  0.00    -0.355 N 
ATOM     29  H3  UNL     1       7.627   3.689  16.104  1.00  0.00     0.162 HD
BRANCH  28  30
HETATM   30  C8  UNL     1       6.280   2.602  14.955  1.00  0.00     0.149 C 
BRANCH  30  31
HETATM   31  C9  UNL     1       5.299   3.585  14.479  1.00  0.00    -0.018 C 
HETATM   32  C10 UNL     1       4.383   4.229  15.151  1.00  0.00     0.008 C 
ENDBRANCH  30  31
ENDBRANCH  28  30
ENDBRANCH  21  26
ENDBRANCH  19  21
ENDBRANCH  16  17
ENDBRANCH   4  16
BRANCH  11  33
HETATM   33  C18 UNL     1       3.045   9.198  25.416  1.00  0.00     0.023 C 
HETATM   34  C19 UNL     1       2.352   7.891  25.735  1.00  0.00     0.037 C 
HETATM   35  C20 UNL     1       4.063   9.500  26.505  1.00  0.00     0.037 C 
HETATM   36  C21 UNL     1       1.993  10.283  25.363  1.00  0.00     0.037 C 
ENDBRANCH  11  33
ENDBRANCH   3   4
TORSDOF 8
ENDMDL
MODEL 3
REMARK VINA RESULT: -7.074166312      3.101      5.539
REMARK  8 active torsions:
REMARK  status: ('A' for Active; 'I' for Inactive)
REMARK    1  A    between atoms: C3_3  and  N1_4 
REMARK    2  A    between atoms: N1_4  and  C4_5 
REMARK    3  A    between atoms: C4_5  and  C5_6 
REMARK       I    between atoms: C5_6  and  N2_8 
REMARK    4  A    between atoms: N2_8  and  C6_10 
REMARK    5  A    between atoms: C6_10  and  C7_11 
REMARK       I    between atoms: C7_11  and  N3_13 
REMARK    6  A    between atoms: N3_13  and  C8_15 
REMARK    7  A    between atoms: C8_15  and  C9_16 
REMARK       I    between atoms: N4_24  and  C17_25 
REMARK       I    between atoms: C17_25  and  N5_27 
REMARK    8  A    between atoms: N5_27  and  C18_29 
ROOT
HETATM    1  C1  UNL     1       8.437   2.858  19.429  1.00  0.00     0.098 C 
HETATM    2  C2  UNL     1       8.164   4.049  19.314  1.00  0.00    -0.159 C 
HETATM    3  C3  UNL     1       7.858   5.455  19.154  1.00  0.00     0.332 C 
ENDROOT
BRANCH   3   4
HETATM    4  N1  UNL     1       7.030   5.960  20.250  1.00  0.00     0.029 N 
HETATM    5  C15 UNL     1       5.789   5.296  20.305  1.00  0.00     0.274 A 
HETATM    6  C16 UNL     1       4.701   6.285  20.155  1.00  0.00     0.166 A 
HETATM    7  N4  UNL     1       5.367   7.530  19.925  1.00  0.00    -0.263 N 
HETATM    8  C17 UNL     1       4.716   8.800  19.684  1.00  0.00     0.325 C 
HETATM    9  C22 UNL     1       6.758   7.326  19.970  1.00  0.00     0.290 A 
HETATM   10  O3  UNL     1       5.423   9.829  19.494  1.00  0.00    -0.247 OA
HETATM   11  N5  UNL     1       3.297   8.877  19.661  1.00  0.00    -0.335 N 
ATOM     12  H5  UNL     1       2.741   8.036  19.814  1.00  0.00     0.165 HD
HETATM   13  N6  UNL     1       7.660   8.256  19.785  1.00  0.00    -0.364 N 
ATOM     14  H62 UNL     1       8.669   8.109  19.818  1.00  0.00     0.159 HD
ATOM     15  H61 UNL     1       7.464   9.237  19.585  1.00  0.00     0.159 HD
BRANCH   4  16
HETATM   16  C4  UNL     1       7.754   5.958  21.495  1.00  0.00     0.287 C 
BRANCH  16  17
HETATM   17  C5  UNL     1       7.347   6.844  22.559  1.00  0.00     0.266 C 
HETATM   18  O1  UNL     1       8.071   7.905  22.696  1.00  0.00    -0.267 OA
HETATM   19  N2  UNL     1       6.281   6.684  23.434  1.00  0.00    -0.338 N 
ATOM     20  H2  UNL     1       5.706   5.847  23.330  1.00  0.00     0.164 HD
BRANCH  19  21
HETATM   21  C6  UNL     1       5.921   7.624  24.494  1.00  0.00     0.114 C 
HETATM   22  C11 UNL     1       4.943   6.981  25.447  1.00  0.00     0.041 C 
HETATM   23  C12 UNL     1       4.018   8.087  25.841  1.00  0.00     0.003 C 
HETATM   24  C13 UNL     1       3.919   8.959  24.630  1.00  0.00     0.003 C 
HETATM   25  C14 UNL     1       5.208   8.797  23.888  1.00  0.00     0.041 C 
BRANCH  21  26
HETATM   26  C7  UNL     1       7.106   8.055  25.263  1.00  0.00     0.246 C 
HETATM   27  O2  UNL     1       7.272   9.272  25.481  1.00  0.00    -0.271 OA
HETATM   28  N3  UNL     1       8.024   7.116  25.749  1.00  0.00    -0.355 N 
ATOM     29  H3  UNL     1       7.807   6.140  25.544  1.00  0.00     0.162 HD
BRANCH  28  30
HETATM   30  C8  UNL     1       9.217   7.339  26.489  1.00  0.00     0.149 C 
BRANCH  30  31
HETATM   31  C9  UNL     1      10.180   8.208  25.802  1.00  0.00    -0.018 C 
HETATM   32  C10 UNL     1      11.369   8.588  26.186  1.00  0.00     0.008 C 
ENDBRANCH  30  31
ENDBRANCH  28  30
ENDBRANCH  21  26
ENDBRANCH  19  21
ENDBRANCH  16  17
ENDBRANCH   4  16
BRANCH  11  33
HETATM   33  C18 UNL     1       2.625  10.163  19.418  1.00  0.00     0.023 C 
HETATM   34  C19 UNL     1       3.165  10.841  18.179  1.00  0.00     0.037 C 
HETATM   35  C20 UNL     1       1.133   9.924  19.245  1.00  0.00     0.037 C 
HETATM   36  C21 UNL     1       2.878  11.075  20.599  1.00  0.00     0.037 C 
ENDBRANCH  11  33
ENDBRANCH   3   4
TORSDOF 8
ENDMDL
MODEL 4
REMARK VINA RESULT: -7.063279117      2.628      7.316
REMARK  8 active torsions:
REMARK  status: ('A' for Active; 'I' for Inactive)
REMARK    1  A    between atoms: C3_3  and  N1_4 
REMARK    2  A    between atoms: N1_4  and  C4_5 
REMARK    3  A    between atoms: C4_5  and  C5_6 
REMARK       I    between atoms: C5_6  and  N2_8 
REMARK    4  A    between atoms: N2_8  and  C6_10 
REMARK    5  A    between atoms: C6_10  and  C7_11 
REMARK       I    between atoms: C7_11  and  N3_13 
REMARK    6  A    between atoms: N3_13  and  C8_15 
REMARK    7  A    between atoms: C8_15  and  C9_16 
REMARK       I    between atoms: N4_24  and  C17_25 
REMARK       I    between atoms: C17_25  and  N5_27 
REMARK    8  A    between atoms: N5_27  and  C18_29 
ROOT
HETATM    1  C1  UNL     1       3.508   9.356  22.365  1.00  0.00     0.098 C 
HETATM    2  C2  UNL     1       4.646   8.971  22.111  1.00  0.00    -0.159 C 
HETATM    3  C3  UNL     1       5.997   8.543  21.818  1.00  0.00     0.332 C 
ENDROOT
BRANCH   3   4
HETATM    4  N1  UNL     1       6.041   7.159  21.347  1.00  0.00     0.029 N 
HETATM    5  C15 UNL     1       5.052   6.916  20.373  1.00  0.00     0.274 A 
HETATM    6  C16 UNL     1       4.160   5.835  20.844  1.00  0.00     0.166 A 
HETATM    7  N4  UNL     1       4.623   5.527  22.162  1.00  0.00    -0.263 N 
HETATM    8  C17 UNL     1       4.039   4.545  23.050  1.00  0.00     0.325 C 
HETATM    9  C22 UNL     1       5.738   6.330  22.461  1.00  0.00     0.290 A 
HETATM   10  O3  UNL     1       4.546   4.369  24.193  1.00  0.00    -0.247 OA
HETATM   11  N5  UNL     1       2.907   3.793  22.632  1.00  0.00    -0.335 N 
ATOM     12  H5  UNL     1       2.509   3.949  21.706  1.00  0.00     0.165 HD
HETATM   13  N6  UNL     1       6.396   6.312  23.592  1.00  0.00    -0.364 N 
ATOM     14  H62 UNL     1       7.205   6.895  23.809  1.00  0.00     0.159 HD
ATOM     15  H61 UNL     1       6.179   5.717  24.391  1.00  0.00     0.159 HD
BRANCH   4  16
HETATM   16  C4  UNL     1       7.371   6.787  20.939  1.00  0.00     0.287 C 
BRANCH  16  17
HETATM   17  C5  UNL     1       7.552   5.732  19.971  1.00  0.00     0.266 C 
HETATM   18  O1  UNL     1       7.581   6.118  18.739  1.00  0.00    -0.267 OA
HETATM   19  N2  UNL     1       7.697   4.373  20.216  1.00  0.00    -0.338 N 
ATOM     20  H2  UNL     1       7.675   4.063  21.188  1.00  0.00     0.164 HD
BRANCH  19  21
HETATM   21  C6  UNL     1       7.878   3.352  19.185  1.00  0.00     0.114 C 
HETATM   22  C11 UNL     1       7.884   1.979  19.810  1.00  0.00     0.041 C 
HETATM   23  C12 UNL     1       8.887   1.206  19.014  1.00  0.00     0.003 C 
HETATM   24  C13 UNL     1       9.924   2.210  18.620  1.00  0.00     0.003 C 
HETATM   25  C14 UNL     1       9.226   3.531  18.549  1.00  0.00     0.041 C 
BRANCH  21  26
HETATM   26  C7  UNL     1       6.799   3.401  18.178  1.00  0.00     0.246 C 
HETATM   27  O2  UNL     1       5.640   3.089  18.522  1.00  0.00    -0.271 OA
HETATM   28  N3  UNL     1       7.066   3.797  16.862  1.00  0.00    -0.355 N 
ATOM     29  H3  UNL     1       8.034   4.052  16.665  1.00  0.00     0.162 HD
BRANCH  28  30
HETATM   30  C8  UNL     1       6.169   3.891  15.762  1.00  0.00     0.149 C 
BRANCH  30  31
HETATM   31  C9  UNL     1       6.209   5.191  15.083  1.00  0.00    -0.018 C 
HETATM   32  C10 UNL     1       6.069   6.389  15.585  1.00  0.00     0.008 C 
ENDBRANCH  30  31
ENDBRANCH  28  30
ENDBRANCH  21  26
ENDBRANCH  19  21
ENDBRANCH  16  17
ENDBRANCH   4  16
BRANCH  11  33
HETATM   33  C18 UNL     1       2.306   2.792  23.526  1.00  0.00     0.023 C 
HETATM   34  C19 UNL     1       3.363   1.915  24.161  1.00  0.00     0.037 C 
HETATM   35  C20 UNL     1       1.525   3.502  24.621  1.00  0.00     0.037 C 
HETATM   36  C21 UNL     1       1.388   1.904  22.715  1.00  0.00     0.037 C 
ENDBRANCH  11  33
ENDBRANCH   3   4
TORSDOF 8
ENDMDL
MODEL 5
REMARK VINA RESULT: -7.033780732      2.944      7.493
REMARK  8 active torsions:
REMARK  status: ('A' for Active; 'I' for Inactive)
REMARK    1  A    between atoms: C3_3  and  N1_4 
REMARK    2  A    between atoms: N1_4  and  C4_5 
REMARK    3  A    between atoms: C4_5  and  C5_6 
REMARK       I    between atoms: C5_6  and  N2_8 
REMARK    4  A    between atoms: N2_8  and  C6_10 
REMARK    5  A    between atoms: C6_10  and  C7_11 
REMARK       I    between atoms: C7_11  and  N3_13 
REMARK    6  A    between atoms: N3_13  and  C8_15 
REMARK    7  A    between atoms: C8_15  and  C9_16 
REMARK       I    between atoms: N4_24  and  C17_25 
REMARK       I    between atoms: C17_25  and  N5_27 
REMARK    8  A    between atoms: N5_27  and  C18_29 
ROOT
HETATM    1  C1  UNL     1       5.747   9.407  19.495  1.00  0.00     0.098 C 
HETATM    2  C2  UNL     1       5.439   8.622  20.387  1.00  0.00    -0.159 C 
HETATM    3  C3  UNL     1       5.067   7.718  21.456  1.00  0.00     0.332 C 
ENDROOT
BRANCH   3   4
HETATM    4  N1  UNL     1       5.389   6.328  21.130  1.00  0.00     0.029 N 
HETATM    5  C15 UNL     1       4.554   5.834  20.108  1.00  0.00     0.274 A 
HETATM    6  C16 UNL     1       3.816   4.655  20.611  1.00  0.00     0.166 A 
HETATM    7  N4  UNL     1       4.194   4.546  21.986  1.00  0.00    -0.263 N 
HETATM    8  C17 UNL     1       3.700   3.555  22.917  1.00  0.00     0.325 C 
HETATM    9  C22 UNL     1       5.123   5.555  22.293  1.00  0.00     0.290 A 
HETATM   10  O3  UNL     1       4.115   3.568  24.109  1.00  0.00    -0.247 OA
HETATM   11  N5  UNL     1       2.757   2.582  22.485  1.00  0.00    -0.335 N 
ATOM     12  H5  UNL     1       2.431   2.587  21.518  1.00  0.00     0.165 HD
HETATM   13  N6  UNL     1       5.661   5.749  23.470  1.00  0.00    -0.364 N 
ATOM     14  H62 UNL     1       6.335   6.482  23.693  1.00  0.00     0.159 HD
ATOM     15  H61 UNL     1       5.471   5.195  24.304  1.00  0.00     0.159 HD
BRANCH   4  16
HETATM   16  C4  UNL     1       6.796   6.165  20.871  1.00  0.00     0.287 C 
BRANCH  16  17
HETATM   17  C5  UNL     1       7.234   5.207  19.884  1.00  0.00     0.266 C 
HETATM   18  O1  UNL     1       7.423   5.687  18.701  1.00  0.00    -0.267 OA
HETATM   19  N2  UNL     1       7.469   3.850  20.065  1.00  0.00    -0.338 N 
ATOM     20  H2  UNL     1       7.320   3.466  20.999  1.00  0.00     0.164 HD
BRANCH  19  21
HETATM   21  C6  UNL     1       7.913   2.932  19.018  1.00  0.00     0.114 C 
HETATM   22  C11 UNL     1       8.185   1.568  19.606  1.00  0.00     0.041 C 
HETATM   23  C12 UNL     1       9.366   1.058  18.845  1.00  0.00     0.003 C 
HETATM   24  C13 UNL     1      10.180   2.273  18.535  1.00  0.00     0.003 C 
HETATM   25  C14 UNL     1       9.219   3.418  18.462  1.00  0.00     0.041 C 
BRANCH  21  26
HETATM   26  C7  UNL     1       6.897   2.787  17.956  1.00  0.00     0.246 C 
HETATM   27  O2  UNL     1       5.865   2.127  18.197  1.00  0.00    -0.271 OA
HETATM   28  N3  UNL     1       7.081   3.386  16.704  1.00  0.00    -0.355 N 
ATOM     29  H3  UNL     1       7.942   3.922  16.594  1.00  0.00     0.162 HD
BRANCH  28  30
HETATM   30  C8  UNL     1       6.230   3.346  15.566  1.00  0.00     0.149 C 
BRANCH  30  31
HETATM   31  C9  UNL     1       5.837   4.674  15.082  1.00  0.00    -0.018 C 
HETATM   32  C10 UNL     1       6.502   5.798  15.121  1.00  0.00     0.008 C 
ENDBRANCH  30  31
ENDBRANCH  28  30
ENDBRANCH  21  26
ENDBRANCH  19  21
ENDBRANCH  16  17
ENDBRANCH   4  16
BRANCH  11  33
HETATM   33  C18 UNL     1       2.250   1.569  23.422  1.00  0.00     0.023 C 
HETATM   34  C19 UNL     1       3.379   0.894  24.169  1.00  0.00     0.037 C 
HETATM   35  C20 UNL     1       1.318   2.234  24.423  1.00  0.00     0.037 C 
HETATM   36  C21 UNL     1       1.509   0.508  22.638  1.00  0.00     0.037 C 
ENDBRANCH  11  33
ENDBRANCH   3   4
TORSDOF 8
ENDMDL
