MODEL 1
REMARK VINA RESULT: -7.695253070      0.000      0.000
REMARK  7 active torsions:
REMARK  status: ('A' for Active; 'I' for Inactive)
REMARK    1  A    between atoms: C2_2  and  S1_3 
REMARK    2  A    between atoms: S1_3  and  N1_6 
REMARK    3  A    between atoms: N1_6  and  C3_8 
REMARK    4  A    between atoms: C3_8  and  C4_9 
REMARK    5  A    between atoms: C4_9  and  N2_10 
REMARK    6  A    between atoms: C9_15  and  N3_16 
REMARK       I    between atoms: N3_16  and  C10_18 
REMARK       I    between atoms: C10_18  and  N5_22 
REMARK    7  A    between atoms: N5_22  and  C11_24 
ROOT
HETATM    1  N3  UNL     1       5.902   5.458  22.716  1.00  0.00    -0.220 N 
ATOM      2  H3  UNL     1       6.771   4.989  22.968  1.00  0.00     0.178 HD
HETATM    3  C10 UNL     1       5.100   4.975  21.647  1.00  0.00     0.668 C 
HETATM    4  N4  UNL     1       3.838   5.249  21.618  1.00  0.00    -0.235 N 
ATOM      5  H41 UNL     1       3.262   4.902  20.852  1.00  0.00     0.174 HD
ATOM      6  H42 UNL     1       3.475   5.815  22.386  1.00  0.00     0.174 HD
HETATM    7  N5  UNL     1       5.605   4.187  20.578  1.00  0.00    -0.220 N 
ATOM      8  H5  UNL     1       5.215   3.267  20.373  1.00  0.00     0.178 HD
ENDROOT
BRANCH   1   9
HETATM    9  C9  UNL     1       5.465   6.613  23.427  1.00  0.00     0.131 C 
HETATM   10  C7  UNL     1       5.755   7.906  22.726  1.00  0.00     0.038 C 
HETATM   11  C6  UNL     1       4.861   8.965  23.342  1.00  0.00     0.036 C 
HETATM   12  C8  UNL     1       7.089   8.292  23.386  1.00  0.00     0.244 C 
HETATM   13  C5  UNL     1       5.434   9.007  24.767  1.00  0.00     0.238 C 
HETATM   14  N2  UNL     1       6.602   8.187  24.774  1.00  0.00    -0.063 N 
HETATM   15  C19 UNL     1       6.178   6.782  24.763  1.00  0.00     0.263 C 
BRANCH  14  16
HETATM   16  C4  UNL     1       7.580   8.491  25.737  1.00  0.00     0.257 C 
BRANCH  16  17
HETATM   17  C3  UNL     1       9.003   8.399  25.252  1.00  0.00     0.160 C 
BRANCH  17  18
HETATM   18  N1  UNL     1       9.835   7.725  26.249  1.00  0.00    -0.318 N 
ATOM     19  H1  UNL     1       9.504   6.985  26.868  1.00  0.00     0.172 HD
BRANCH  18  20
HETATM   20  S1  UNL     1      11.437   8.337  26.243  1.00  0.00     0.226 S 
HETATM   21  O1  UNL     1      12.062   8.356  24.899  1.00  0.00    -0.206 OA
HETATM   22  O2  UNL     1      11.357   9.773  26.736  1.00  0.00    -0.206 OA
BRANCH  20  23
HETATM   23  C2  UNL     1      12.454   7.459  27.412  1.00  0.00     0.158 C 
HETATM   24  C1  UNL     1      13.886   7.486  26.926  1.00  0.00     0.023 C 
ENDBRANCH  20  23
ENDBRANCH  18  20
ENDBRANCH  17  18
ENDBRANCH  16  17
ENDBRANCH  14  16
ENDBRANCH   1   9
BRANCH   7  25
HETATM   25  C11 UNL     1       6.680   4.723  19.798  1.00  0.00     0.128 C 
HETATM   26  C12 UNL     1       8.024   4.085  20.187  1.00  0.00     0.061 C 
HETATM   27  C13 UNL     1       8.593   3.818  18.870  1.00  0.00     0.202 C 
HETATM   28  C14 UNL     1       9.513   2.692  18.676  1.00  0.00     0.043 C 
HETATM   29  N6  UNL     1       7.414   3.344  18.118  1.00  0.00    -0.003 N 
HETATM   30  C15 UNL     1       9.282   2.414  17.175  1.00  0.00     0.113 C 
HETATM   31  C16 UNL     1       7.999   3.162  16.863  1.00  0.00     0.318 C 
HETATM   32  O3  UNL     1       7.663   3.475  15.742  1.00  0.00    -0.265 OA
HETATM   33  C17 UNL     1       6.954   2.075  18.612  1.00  0.00     0.283 C 
HETATM   34  C18 UNL     1       6.518   4.410  18.300  1.00  0.00     0.273 C 
ENDBRANCH   7  25
TORSDOF 7
ENDMDL
MODEL 2
REMARK VINA RESULT: -7.595279466      2.090      2.676
REMARK  7 active torsions:
REMARK  status: ('A' for Active; 'I' for Inactive)
REMARK    1  A    between atoms: C2_2  and  S1_3 
REMARK    2  A    between atoms: S1_3  and  N1_6 
REMARK    3  A    between atoms: N1_6  and  C3_8 
REMARK    4  A    between atoms: C3_8  and  C4_9 
REMARK    5  A    between atoms: C4_9  and  N2_10 
REMARK    6  A    between atoms: C9_15  and  N3_16 
REMARK       I    between atoms: N3_16  and  C10_18 
REMARK       I    between atoms: C10_18  and  N5_22 
REMARK    7  A    between atoms: N5_22  and  C11_24 
ROOT
HETATM    1  N3  UNL     1       5.222   4.687  23.222  1.00  0.00    -0.220 N 
ATOM      2  H3  UNL     1       6.179   5.032  23.147  1.00  0.00     0.178 HD
HETATM    3  C10 UNL     1       4.872   3.404  22.721  1.00  0.00     0.668 C 
HETATM    4  N4  UNL     1       3.842   2.788  23.200  1.00  0.00    -0.235 N 
ATOM      5  H41 UNL     1       3.591   1.868  22.840  1.00  0.00     0.174 HD
ATOM      6  H42 UNL     1       3.321   3.270  23.933  1.00  0.00     0.174 HD
HETATM    7  N5  UNL     1       5.598   2.733  21.700  1.00  0.00    -0.220 N 
ATOM      8  H5  UNL     1       5.988   1.804  21.857  1.00  0.00     0.178 HD
ENDROOT
BRANCH   1   9
HETATM    9  C9  UNL     1       4.207   5.481  23.832  1.00  0.00     0.131 C 
HETATM   10  C7  UNL     1       3.417   6.307  22.863  1.00  0.00     0.038 C 
HETATM   11  C6  UNL     1       2.134   6.718  23.559  1.00  0.00     0.036 C 
HETATM   12  C8  UNL     1       4.179   7.640  22.942  1.00  0.00     0.244 C 
HETATM   13  C5  UNL     1       2.703   7.617  24.667  1.00  0.00     0.238 C 
HETATM   14  N2  UNL     1       4.099   7.770  24.409  1.00  0.00    -0.063 N 
HETATM   15  C19 UNL     1       4.775   6.523  24.787  1.00  0.00     0.263 C 
BRANCH  14  16
HETATM   16  C4  UNL     1       4.708   8.935  24.905  1.00  0.00     0.257 C 
BRANCH  16  17
HETATM   17  C3  UNL     1       6.100   8.746  25.446  1.00  0.00     0.160 C 
BRANCH  17  18
HETATM   18  N1  UNL     1       7.091   9.086  24.425  1.00  0.00    -0.318 N 
ATOM     19  H1  UNL     1       6.988   9.849  23.756  1.00  0.00     0.172 HD
BRANCH  18  20
HETATM   20  S1  UNL     1       8.446   8.038  24.495  1.00  0.00     0.226 S 
HETATM   21  O1  UNL     1       8.460   7.161  25.692  1.00  0.00    -0.206 OA
HETATM   22  O2  UNL     1       8.370   7.143  23.269  1.00  0.00    -0.206 OA
BRANCH  20  23
HETATM   23  C2  UNL     1       9.966   8.957  24.356  1.00  0.00     0.158 C 
HETATM   24  C1  UNL     1      10.811   8.686  25.580  1.00  0.00     0.023 C 
ENDBRANCH  20  23
ENDBRANCH  18  20
ENDBRANCH  17  18
ENDBRANCH  16  17
ENDBRANCH  14  16
ENDBRANCH   1   9
BRANCH   7  25
HETATM   25  C11 UNL     1       5.766   3.402  20.445  1.00  0.00     0.128 C 
HETATM   26  C12 UNL     1       7.100   4.167  20.395  1.00  0.00     0.061 C 
HETATM   27  C13 UNL     1       7.582   3.793  19.070  1.00  0.00     0.202 C 
HETATM   28  C14 UNL     1       9.021   3.723  18.797  1.00  0.00     0.043 C 
HETATM   29  N6  UNL     1       7.217   2.364  19.003  1.00  0.00    -0.003 N 
HETATM   30  C15 UNL     1       9.025   2.704  17.639  1.00  0.00     0.113 C 
HETATM   31  C16 UNL     1       7.644   2.077  17.705  1.00  0.00     0.318 C 
HETATM   32  O3  UNL     1       7.133   1.487  16.778  1.00  0.00    -0.265 OA
HETATM   33  C17 UNL     1       7.987   1.585  19.935  1.00  0.00     0.283 C 
HETATM   34  C18 UNL     1       5.840   2.412  19.269  1.00  0.00     0.273 C 
ENDBRANCH   7  25
TORSDOF 7
ENDMDL
MODEL 3
REMARK VINA RESULT: -7.374054935      1.983      2.641
REMARK  7 active torsions:
REMARK  status: ('A' for Active; 'I' for Inactive)
REMARK    1  A    between atoms: C2_2  and  S1_3 
REMARK    2  A    between atoms: S1_3  and  N1_6 
REMARK    3  A    between atoms: N1_6  and  C3_8 
REMARK    4  A    between atoms: C3_8  and  C4_9 
REMARK    5  A    between atoms: C4_9  and  N2_10 
REMARK    6  A    between atoms: C9_15  and  N3_16 
REMARK       I    between atoms: N3_16  and  C10_18 
REMARK       I    between atoms: C10_18  and  N5_22 
REMARK    7  A    between atoms: N5_22  and  C11_24 
ROOT
HETATM    1  N3  UNL     1       5.723   4.326  22.688  1.00  0.00    -0.220 N 
ATOM      2  H3  UNL     1       6.580   4.479  23.219  1.00  0.00     0.178 HD
HETATM    3  C10 UNL     1       5.611   3.229  21.792  1.00  0.00     0.668 C 
HETATM    4  N4  UNL     1       4.444   2.768  21.487  1.00  0.00    -0.235 N 
ATOM      5  H41 UNL     1       4.363   1.980  20.844  1.00  0.00     0.174 HD
ATOM      6  H42 UNL     1       3.642   3.229  21.917  1.00  0.00     0.174 HD
HETATM    7  N5  UNL     1       6.727   2.586  21.192  1.00  0.00    -0.220 N 
ATOM      8  H5  UNL     1       6.881   1.584  21.309  1.00  0.00     0.178 HD
ENDROOT
BRANCH   1   9
HETATM    9  C9  UNL     1       4.612   5.207  22.829  1.00  0.00     0.131 C 
HETATM   10  C7  UNL     1       4.433   6.150  21.678  1.00  0.00     0.038 C 
HETATM   11  C6  UNL     1       3.013   6.678  21.741  1.00  0.00     0.036 C 
HETATM   12  C8  UNL     1       5.180   7.386  22.207  1.00  0.00     0.244 C 
HETATM   13  C5  UNL     1       3.076   7.469  23.057  1.00  0.00     0.238 C 
HETATM   14  N2  UNL     1       4.439   7.472  23.480  1.00  0.00    -0.063 N 
HETATM   15  C19 UNL     1       4.757   6.145  24.020  1.00  0.00     0.263 C 
BRANCH  14  16
HETATM   16  C4  UNL     1       4.844   8.544  24.294  1.00  0.00     0.257 C 
BRANCH  16  17
HETATM   17  C3  UNL     1       6.017   8.254  25.193  1.00  0.00     0.160 C 
BRANCH  17  18
HETATM   18  N1  UNL     1       7.184   9.026  24.767  1.00  0.00    -0.318 N 
ATOM     19  H1  UNL     1       7.169  10.025  24.559  1.00  0.00     0.172 HD
BRANCH  18  20
HETATM   20  S1  UNL     1       8.582   8.039  24.661  1.00  0.00     0.226 S 
HETATM   21  O1  UNL     1       8.775   7.152  25.835  1.00  0.00    -0.206 OA
HETATM   22  O2  UNL     1       8.400   7.154  23.439  1.00  0.00    -0.206 OA
BRANCH  20  23
HETATM   23  C2  UNL     1      10.034   9.026  24.358  1.00  0.00     0.158 C 
HETATM   24  C1  UNL     1      10.973   8.884  25.535  1.00  0.00     0.023 C 
ENDBRANCH  20  23
ENDBRANCH  18  20
ENDBRANCH  17  18
ENDBRANCH  16  17
ENDBRANCH  14  16
ENDBRANCH   1   9
BRANCH   7  25
HETATM   25  C11 UNL     1       7.629   3.386  20.420  1.00  0.00     0.128 C 
HETATM   26  C12 UNL     1       8.460   2.521  19.459  1.00  0.00     0.061 C 
HETATM   27  C13 UNL     1       8.370   3.306  18.233  1.00  0.00     0.202 C 
HETATM   28  C14 UNL     1       8.431   2.646  16.924  1.00  0.00     0.043 C 
HETATM   29  N6  UNL     1       6.962   3.748  18.255  1.00  0.00    -0.003 N 
HETATM   30  C15 UNL     1       7.650   3.670  16.072  1.00  0.00     0.113 C 
HETATM   31  C16 UNL     1       6.948   4.536  17.103  1.00  0.00     0.318 C 
HETATM   32  O3  UNL     1       6.517   5.642  16.863  1.00  0.00    -0.265 OA
HETATM   33  C17 UNL     1       6.063   2.639  18.078  1.00  0.00     0.283 C 
HETATM   34  C18 UNL     1       6.884   4.377  19.508  1.00  0.00     0.273 C 
ENDBRANCH   7  25
TORSDOF 7
ENDMDL
MODEL 4
REMARK VINA RESULT: -7.320341242      2.611      3.045
REMARK  7 active torsions:
REMARK  status: ('A' for Active; 'I' for Inactive)
REMARK    1  A    between atoms: C2_2  and  S1_3 
REMARK    2  A    between atoms: S1_3  and  N1_6 
REMARK    3  A    between atoms: N1_6  and  C3_8 
REMARK    4  A    between atoms: C3_8  and  C4_9 
REMARK    5  A    between atoms: C4_9  and  N2_10 
REMARK    6  A    between atoms: C9_15  and  N3_16 
REMARK       I    between atoms: N3_16  and  C10_18 
REMARK       I    between atoms: C10_18  and  N5_22 
REMARK    7  A    between atoms: N5_22  and  C11_24 
ROOT
HETATM    1  N3  UNL     1       5.185   4.577  23.155  1.00  0.00    -0.220 N 
ATOM      2  H3  UNL     1       6.143   4.921  23.080  1.00  0.00     0.178 HD
HETATM    3  C10 UNL     1       4.835   3.292  22.661  1.00  0.00     0.668 C 
HETATM    4  N4  UNL     1       3.804   2.680  23.141  1.00  0.00    -0.235 N 
ATOM      5  H41 UNL     1       3.552   1.758  22.787  1.00  0.00     0.174 HD
ATOM      6  H42 UNL     1       3.282   3.166  23.871  1.00  0.00     0.174 HD
HETATM    7  N5  UNL     1       5.562   2.614  21.645  1.00  0.00    -0.220 N 
ATOM      8  H5  UNL     1       5.951   1.685  21.808  1.00  0.00     0.178 HD
ENDROOT
BRANCH   1   9
HETATM    9  C9  UNL     1       4.171   5.375  23.759  1.00  0.00     0.131 C 
HETATM   10  C7  UNL     1       3.421   6.240  22.791  1.00  0.00     0.038 C 
HETATM   11  C6  UNL     1       2.129   6.658  23.465  1.00  0.00     0.036 C 
HETATM   12  C8  UNL     1       4.206   7.556  22.922  1.00  0.00     0.244 C 
HETATM   13  C5  UNL     1       2.686   7.520  24.609  1.00  0.00     0.238 C 
HETATM   14  N2  UNL     1       4.090   7.651  24.389  1.00  0.00    -0.063 N 
HETATM   15  C19 UNL     1       4.734   6.383  24.753  1.00  0.00     0.263 C 
BRANCH  14  16
HETATM   16  C4  UNL     1       4.708   8.792  24.929  1.00  0.00     0.257 C 
BRANCH  16  17
HETATM   17  C3  UNL     1       6.105   8.575  25.450  1.00  0.00     0.160 C 
BRANCH  17  18
HETATM   18  N1  UNL     1       7.083   9.168  24.537  1.00  0.00    -0.318 N 
ATOM     19  H1  UNL     1       7.030  10.122  24.178  1.00  0.00     0.172 HD
BRANCH  18  20
HETATM   20  S1  UNL     1       8.329   8.056  24.148  1.00  0.00     0.226 S 
HETATM   21  O1  UNL     1       9.647   8.695  23.916  1.00  0.00    -0.206 OA
HETATM   22  O2  UNL     1       8.471   7.125  25.341  1.00  0.00    -0.206 OA
BRANCH  20  23
HETATM   23  C2  UNL     1       7.858   7.036  22.766  1.00  0.00     0.158 C 
HETATM   24  C1  UNL     1       8.224   7.754  21.486  1.00  0.00     0.023 C 
ENDBRANCH  20  23
ENDBRANCH  18  20
ENDBRANCH  17  18
ENDBRANCH  16  17
ENDBRANCH  14  16
ENDBRANCH   1   9
BRANCH   7  25
HETATM   25  C11 UNL     1       5.733   3.275  20.387  1.00  0.00     0.128 C 
HETATM   26  C12 UNL     1       7.036   4.092  20.358  1.00  0.00     0.061 C 
HETATM   27  C13 UNL     1       7.563   3.724  19.049  1.00  0.00     0.202 C 
HETATM   28  C14 UNL     1       9.010   3.708  18.810  1.00  0.00     0.043 C 
HETATM   29  N6  UNL     1       7.257   2.280  18.990  1.00  0.00    -0.003 N 
HETATM   30  C15 UNL     1       9.081   2.677  17.663  1.00  0.00     0.113 C 
HETATM   31  C16 UNL     1       7.725   1.997  17.705  1.00  0.00     0.318 C 
HETATM   32  O3  UNL     1       7.259   1.377  16.774  1.00  0.00    -0.265 OA
HETATM   33  C17 UNL     1       8.035   1.543  19.948  1.00  0.00     0.283 C 
HETATM   34  C18 UNL     1       5.873   2.277  19.224  1.00  0.00     0.273 C 
ENDBRANCH   7  25
TORSDOF 7
ENDMDL
MODEL 5
REMARK VINA RESULT: -7.276863284      2.024      2.888
REMARK  7 active torsions:
REMARK  status: ('A' for Active; 'I' for Inactive)
REMARK    1  A    between atoms: C2_2  and  S1_3 
REMARK    2  A    between atoms: S1_3  and  N1_6 
REMARK    3  A    between atoms: N1_6  and  C3_8 
REMARK    4  A    between atoms: C3_8  and  C4_9 
REMARK    5  A    between atoms: C4_9  and  N2_10 
REMARK    6  A    between atoms: C9_15  and  N3_16 
REMARK       I    between atoms: N3_16  and  C10_18 
REMARK       I    between atoms: C10_18  and  N5_22 
REMARK    7  A    between atoms: N5_22  and  C11_24 
ROOT
HETATM    1  N3  UNL     1       5.327   5.190  19.492  1.00  0.00    -0.220 N 
ATOM      2  H3  UNL     1       5.715   4.315  19.845  1.00  0.00     0.178 HD
HETATM    3  C10 UNL     1       4.740   5.254  18.200  1.00  0.00     0.668 C 
HETATM    4  N4  UNL     1       3.870   6.172  17.936  1.00  0.00    -0.235 N 
ATOM      5  H41 UNL     1       3.449   6.218  17.008  1.00  0.00     0.174 HD
ATOM      6  H42 UNL     1       3.646   6.821  18.691  1.00  0.00     0.174 HD
HETATM    7  N5  UNL     1       5.052   4.350  17.148  1.00  0.00    -0.220 N 
ATOM      8  H5  UNL     1       4.323   3.799  16.696  1.00  0.00     0.178 HD
ENDROOT
BRANCH   1   9
HETATM    9  C9  UNL     1       5.363   6.374  20.284  1.00  0.00     0.131 C 
HETATM   10  C7  UNL     1       6.738   6.765  20.733  1.00  0.00     0.038 C 
HETATM   11  C6  UNL     1       6.682   8.223  21.146  1.00  0.00     0.036 C 
HETATM   12  C8  UNL     1       6.776   6.114  22.125  1.00  0.00     0.244 C 
HETATM   13  C5  UNL     1       5.747   8.125  22.361  1.00  0.00     0.238 C 
HETATM   14  N2  UNL     1       5.530   6.737  22.613  1.00  0.00    -0.063 N 
HETATM   15  C19 UNL     1       4.604   6.223  21.596  1.00  0.00     0.263 C 
BRANCH  14  16
HETATM   16  C4  UNL     1       5.202   6.379  23.932  1.00  0.00     0.257 C 
BRANCH  16  17
HETATM   17  C3  UNL     1       5.774   7.277  24.997  1.00  0.00     0.160 C 
BRANCH  17  18
HETATM   18  N1  UNL     1       7.030   6.724  25.505  1.00  0.00    -0.318 N 
ATOM     19  H1  UNL     1       7.126   5.794  25.911  1.00  0.00     0.172 HD
BRANCH  18  20
HETATM   20  S1  UNL     1       8.320   7.841  25.331  1.00  0.00     0.226 S 
HETATM   21  O1  UNL     1       8.993   7.772  24.011  1.00  0.00    -0.206 OA
HETATM   22  O2  UNL     1       7.717   9.229  25.470  1.00  0.00    -0.206 OA
BRANCH  20  23
HETATM   23  C2  UNL     1       9.494   7.664  26.659  1.00  0.00     0.158 C 
HETATM   24  C1  UNL     1      10.754   8.416  26.296  1.00  0.00     0.023 C 
ENDBRANCH  20  23
ENDBRANCH  18  20
ENDBRANCH  17  18
ENDBRANCH  16  17
ENDBRANCH  14  16
ENDBRANCH   1   9
BRANCH   7  25
HETATM   25  C11 UNL     1       6.421   4.239  16.743  1.00  0.00     0.128 C 
HETATM   26  C12 UNL     1       7.372   4.727  17.848  1.00  0.00     0.061 C 
HETATM   27  C13 UNL     1       8.374   3.667  17.838  1.00  0.00     0.202 C 
HETATM   28  C14 UNL     1       9.101   3.323  19.064  1.00  0.00     0.043 C 
HETATM   29  N6  UNL     1       7.541   2.461  17.662  1.00  0.00    -0.003 N 
HETATM   30  C15 UNL     1       9.457   1.852  18.761  1.00  0.00     0.113 C 
HETATM   31  C16 UNL     1       8.547   1.493  17.599  1.00  0.00     0.318 C 
HETATM   32  O3  UNL     1       8.749   0.558  16.857  1.00  0.00    -0.265 OA
HETATM   33  C17 UNL     1       6.724   2.217  18.819  1.00  0.00     0.283 C 
HETATM   34  C18 UNL     1       6.832   2.777  16.493  1.00  0.00     0.273 C 
ENDBRANCH   7  25
TORSDOF 7
ENDMDL
