MODEL 1
REMARK VINA RESULT: -8.500148612      0.000      0.000
REMARK  9 active torsions:
REMARK  status: ('A' for Active; 'I' for Inactive)
REMARK    1  A    between atoms: C2_2  and  C3_3 
REMARK    2  A    between atoms: C3_3  and  C4_4 
REMARK    3  A    between atoms: C4_4  and  C13_19 
REMARK    4  A    between atoms: N1_5  and  N2_7 
REMARK    5  A    between atoms: N2_7  and  C5_8 
REMARK       I    between atoms: N2_7  and  C7_10 
REMARK       I    between atoms: C7_10  and  N3_12 
REMARK    6  A    between atoms: N3_12  and  C8_14 
REMARK       I    between atoms: C13_19  and  N4_21 
REMARK    7  A    between atoms: N4_21  and  C14_23 
REMARK    8  A    between atoms: C20_29  and  C21_30 
REMARK    9  A    between atoms: C21_30  and  O3_31 
ROOT
HETATM    1  C4  UNL     1       5.624   7.913  22.002  1.00  0.00     0.097 C 
HETATM    2  N1  UNL     1       6.398   8.637  22.721  1.00  0.00    -0.293 N 
ATOM      3  H1  UNL     1       6.069   9.575  22.946  1.00  0.00     0.187 HD
ENDROOT
BRANCH   1   4
HETATM    4  C3  UNL     1       4.300   8.452  21.528  1.00  0.00     0.090 C 
BRANCH   4   5
HETATM    5  C2  UNL     1       3.723   9.421  22.501  1.00  0.00    -0.031 C 
HETATM    6  C1  UNL     1       3.137  10.519  22.069  1.00  0.00     0.007 C 
ENDBRANCH   4   5
ENDBRANCH   1   4
BRANCH   1   7
HETATM    7  C13 UNL     1       5.975   6.557  21.608  1.00  0.00     0.266 C 
HETATM    8  O2  UNL     1       5.950   5.644  22.452  1.00  0.00    -0.266 OA
HETATM    9  N4  UNL     1       6.348   6.257  20.264  1.00  0.00    -0.347 N 
ATOM     10  H4  UNL     1       6.360   7.030  19.600  1.00  0.00     0.163 HD
BRANCH   9  11
HETATM   11  C14 UNL     1       6.707   4.965  19.768  1.00  0.00     0.035 C 
HETATM   12  C15 UNL     1       5.654   3.968  20.155  1.00  0.00     0.035 C 
HETATM   13  C16 UNL     1       5.961   2.629  19.505  1.00  0.00    -0.011 C 
HETATM   14  C17 UNL     1       7.278   2.164  20.101  1.00  0.00     0.009 C 
HETATM   15  C22 UNL     1       6.009   2.751  18.018  1.00  0.00     0.016 C 
HETATM   16  C18 UNL     1       8.355   3.158  19.739  1.00  0.00    -0.011 C 
HETATM   17  C19 UNL     1       8.421   3.181  18.217  1.00  0.00     0.016 C 
HETATM   18  C24 UNL     1       8.087   4.541  20.235  1.00  0.00     0.035 C 
HETATM   19  C20 UNL     1       7.133   3.698  17.653  1.00  0.00    -0.016 C 
HETATM   20  C23 UNL     1       6.793   5.044  18.245  1.00  0.00     0.042 C 
BRANCH  19  21
HETATM   21  C21 UNL     1       7.259   3.868  16.159  1.00  0.00     0.173 C 
BRANCH  21  22
HETATM   22  O3  UNL     1       8.277   3.060  15.668  1.00  0.00    -0.400 OA
ATOM     23  H3  UNL     1       8.519   3.332  14.791  1.00  0.00     0.209 HD
ENDBRANCH  21  22
ENDBRANCH  19  21
ENDBRANCH   9  11
ENDBRANCH   1   7
BRANCH   2  24
HETATM   24  N2  UNL     1       7.637   8.278  23.227  1.00  0.00    -0.243 N 
HETATM   25  C7  UNL     1       7.917   8.410  24.609  1.00  0.00     0.337 C 
HETATM   26  O1  UNL     1       7.034   8.853  25.380  1.00  0.00    -0.245 OA
HETATM   27  N3  UNL     1       9.169   8.058  25.169  1.00  0.00    -0.334 N 
ATOM     28  H3  UNL     1       9.897   7.696  24.553  1.00  0.00     0.165 HD
BRANCH  24  29
HETATM   29  C5  UNL     1       8.638   7.774  22.298  1.00  0.00     0.149 C 
HETATM   30  C6  UNL     1       9.117   8.870  21.363  1.00  0.00     0.028 C 
ENDBRANCH  24  29
BRANCH  27  31
HETATM   31  C8  UNL     1       9.457   8.192  26.588  1.00  0.00     0.109 A 
HETATM   32  C9  UNL     1      10.057   7.305  27.187  1.00  0.00    -0.006 A 
HETATM   33  C10 UNL     1      10.753   7.097  27.377  1.00  0.00    -0.029 A 
HETATM   34  C11 UNL     1      11.923   7.456  27.262  1.00  0.00     0.029 A 
HETATM   35  C12 UNL     1      11.152   8.840  26.336  1.00  0.00     0.033 A 
ENDBRANCH  27  31
ENDBRANCH   2  24
TORSDOF 9
ENDMDL
MODEL 2
REMARK VINA RESULT: -8.114268824      2.172      3.118
REMARK  9 active torsions:
REMARK  status: ('A' for Active; 'I' for Inactive)
REMARK    1  A    between atoms: C2_2  and  C3_3 
REMARK    2  A    between atoms: C3_3  and  C4_4 
REMARK    3  A    between atoms: C4_4  and  C13_19 
REMARK    4  A    between atoms: N1_5  and  N2_7 
REMARK    5  A    between atoms: N2_7  and  C5_8 
REMARK       I    between atoms: N2_7  and  C7_10 
REMARK       I    between atoms: C7_10  and  N3_12 
REMARK    6  A    between atoms: N3_12  and  C8_14 
REMARK       I    between atoms: C13_19  and  N4_21 
REMARK    7  A    between atoms: N4_21  and  C14_23 
REMARK    8  A    between atoms: C20_29  and  C21_30 
REMARK    9  A    between atoms: C21_30  and  O3_31 
ROOT
HETATM    1  C4  UNL     1       5.422   8.054  22.684  1.00  0.00     0.097 C 
HETATM    2  N1  UNL     1       6.421   8.736  23.106  1.00  0.00    -0.293 N 
ATOM      3  H1  UNL     1       6.314   9.750  23.110  1.00  0.00     0.187 HD
ENDROOT
BRANCH   1   4
HETATM    4  C3  UNL     1       4.166   8.748  22.223  1.00  0.00     0.090 C 
BRANCH   4   5
HETATM    5  C2  UNL     1       3.458   9.408  23.355  1.00  0.00    -0.031 C 
HETATM    6  C1  UNL     1       3.077  10.665  23.250  1.00  0.00     0.007 C 
ENDBRANCH   4   5
ENDBRANCH   1   4
BRANCH   1   7
HETATM    7  C13 UNL     1       5.444   6.601  22.625  1.00  0.00     0.266 C 
HETATM    8  O2  UNL     1       5.329   5.940  23.673  1.00  0.00    -0.266 OA
HETATM    9  N4  UNL     1       5.594   5.919  21.381  1.00  0.00    -0.347 N 
ATOM     10  H4  UNL     1       5.688   6.493  20.544  1.00  0.00     0.163 HD
BRANCH   9  11
HETATM   11  C14 UNL     1       5.625   4.501  21.207  1.00  0.00     0.035 C 
HETATM   12  C15 UNL     1       7.051   4.029  21.179  1.00  0.00     0.035 C 
HETATM   13  C16 UNL     1       7.080   2.510  21.140  1.00  0.00    -0.011 C 
HETATM   14  C17 UNL     1       6.438   2.111  19.823  1.00  0.00     0.009 C 
HETATM   15  C22 UNL     1       6.385   1.927  22.325  1.00  0.00     0.016 C 
HETATM   16  C18 UNL     1       5.004   2.586  19.816  1.00  0.00    -0.011 C 
HETATM   17  C19 UNL     1       4.320   1.897  20.990  1.00  0.00     0.016 C 
HETATM   18  C24 UNL     1       4.861   4.065  19.969  1.00  0.00     0.035 C 
HETATM   19  C20 UNL     1       4.932   2.351  22.281  1.00  0.00    -0.016 C 
HETATM   20  C23 UNL     1       4.901   3.856  22.386  1.00  0.00     0.042 C 
BRANCH  19  21
HETATM   21  C21 UNL     1       4.150   1.790  23.443  1.00  0.00     0.173 C 
BRANCH  21  22
HETATM   22  O3  UNL     1       3.985   2.760  24.424  1.00  0.00    -0.400 OA
ATOM     23  H3  UNL     1       4.520   2.555  25.182  1.00  0.00     0.209 HD
ENDBRANCH  21  22
ENDBRANCH  19  21
ENDBRANCH   9  11
ENDBRANCH   1   7
BRANCH   2  24
HETATM   24  N2  UNL     1       7.632   8.239  23.559  1.00  0.00    -0.243 N 
HETATM   25  C7  UNL     1       8.007   8.383  24.918  1.00  0.00     0.337 C 
HETATM   26  O1  UNL     1       7.234   8.964  25.715  1.00  0.00    -0.245 OA
HETATM   27  N3  UNL     1       9.235   7.894  25.425  1.00  0.00    -0.334 N 
ATOM     28  H3  UNL     1       9.874   7.419  24.787  1.00  0.00     0.165 HD
BRANCH  24  29
HETATM   29  C5  UNL     1       8.504   7.576  22.602  1.00  0.00     0.149 C 
HETATM   30  C6  UNL     1       8.900   8.521  21.480  1.00  0.00     0.028 C 
ENDBRANCH  24  29
BRANCH  27  31
HETATM   31  C8  UNL     1       9.621   8.042  26.819  1.00  0.00     0.109 A 
HETATM   32  C9  UNL     1      10.316   7.189  27.364  1.00  0.00    -0.006 A 
HETATM   33  C10 UNL     1      11.035   7.022  27.500  1.00  0.00    -0.029 A 
HETATM   34  C11 UNL     1      12.170   7.450  27.300  1.00  0.00     0.029 A 
HETATM   35  C12 UNL     1      11.251   8.789  26.445  1.00  0.00     0.033 A 
ENDBRANCH  27  31
ENDBRANCH   2  24
TORSDOF 9
ENDMDL
MODEL 3
REMARK VINA RESULT: -7.999530344      2.297      5.889
REMARK  9 active torsions:
REMARK  status: ('A' for Active; 'I' for Inactive)
REMARK    1  A    between atoms: C2_2  and  C3_3 
REMARK    2  A    between atoms: C3_3  and  C4_4 
REMARK    3  A    between atoms: C4_4  and  C13_19 
REMARK    4  A    between atoms: N1_5  and  N2_7 
REMARK    5  A    between atoms: N2_7  and  C5_8 
REMARK       I    between atoms: N2_7  and  C7_10 
REMARK       I    between atoms: C7_10  and  N3_12 
REMARK    6  A    between atoms: N3_12  and  C8_14 
REMARK       I    between atoms: C13_19  and  N4_21 
REMARK    7  A    between atoms: N4_21  and  C14_23 
REMARK    8  A    between atoms: C20_29  and  C21_30 
REMARK    9  A    between atoms: C21_30  and  O3_31 
ROOT
HETATM    1  C4  UNL     1       7.243   7.653  22.193  1.00  0.00     0.097 C 
HETATM    2  N1  UNL     1       6.637   8.699  21.770  1.00  0.00    -0.293 N 
ATOM      3  H1  UNL     1       6.916   9.588  22.185  1.00  0.00     0.187 HD
ENDROOT
BRANCH   1   4
HETATM    4  C3  UNL     1       8.311   7.766  23.250  1.00  0.00     0.090 C 
BRANCH   4   5
HETATM    5  C2  UNL     1       7.752   7.565  24.616  1.00  0.00    -0.031 C 
HETATM    6  C1  UNL     1       7.240   8.584  25.275  1.00  0.00     0.007 C 
ENDBRANCH   4   5
ENDBRANCH   1   4
BRANCH   1   7
HETATM    7  C13 UNL     1       6.940   6.323  21.687  1.00  0.00     0.266 C 
HETATM    8  O2  UNL     1       6.028   5.658  22.209  1.00  0.00    -0.266 OA
HETATM    9  N4  UNL     1       7.675   5.768  20.598  1.00  0.00    -0.347 N 
ATOM     10  H4  UNL     1       8.417   6.340  20.197  1.00  0.00     0.163 HD
BRANCH   9  11
HETATM   11  C14 UNL     1       7.461   4.478  20.019  1.00  0.00     0.035 C 
HETATM   12  C15 UNL     1       6.354   4.559  19.007  1.00  0.00     0.035 C 
HETATM   13  C16 UNL     1       6.227   3.226  18.290  1.00  0.00    -0.011 C 
HETATM   14  C17 UNL     1       5.810   2.217  19.347  1.00  0.00     0.009 C 
HETATM   15  C22 UNL     1       7.501   2.856  17.607  1.00  0.00     0.016 C 
HETATM   16  C18 UNL     1       6.900   2.126  20.388  1.00  0.00    -0.011 C 
HETATM   17  C19 UNL     1       8.154   1.665  19.656  1.00  0.00     0.016 C 
HETATM   18  C24 UNL     1       7.186   3.422  21.074  1.00  0.00     0.035 C 
HETATM   19  C20 UNL     1       8.579   2.701  18.659  1.00  0.00    -0.016 C 
HETATM   20  C23 UNL     1       8.750   4.044  19.327  1.00  0.00     0.042 C 
BRANCH  19  21
HETATM   21  C21 UNL     1       9.904   2.313  18.052  1.00  0.00     0.173 C 
BRANCH  21  22
HETATM   22  O3  UNL     1      10.305   1.070  18.526  1.00  0.00    -0.400 OA
ATOM     23  H3  UNL     1      11.238   1.073  18.707  1.00  0.00     0.209 HD
ENDBRANCH  21  22
ENDBRANCH  19  21
ENDBRANCH   9  11
ENDBRANCH   1   7
BRANCH   2  24
HETATM   24  N2  UNL     1       5.641   8.749  20.808  1.00  0.00    -0.243 N 
HETATM   25  C7  UNL     1       5.965   8.664  19.431  1.00  0.00     0.337 C 
HETATM   26  O1  UNL     1       7.163   8.541  19.084  1.00  0.00    -0.245 OA
HETATM   27  N3  UNL     1       4.982   8.713  18.414  1.00  0.00    -0.334 N 
ATOM     28  H3  UNL     1       4.003   8.813  18.683  1.00  0.00     0.165 HD
BRANCH  24  29
HETATM   29  C5  UNL     1       4.264   8.898  21.252  1.00  0.00     0.149 C 
HETATM   30  C6  UNL     1       4.203   9.424  22.676  1.00  0.00     0.028 C 
ENDBRANCH  24  29
BRANCH  27  31
HETATM   31  C8  UNL     1       5.313   8.626  17.001  1.00  0.00     0.109 A 
HETATM   32  C9  UNL     1       5.659   7.557  16.509  1.00  0.00    -0.006 A 
HETATM   33  C10 UNL     1       5.374   6.953  16.166  1.00  0.00    -0.029 A 
HETATM   34  C11 UNL     1       4.302   6.487  15.786  1.00  0.00     0.029 A 
HETATM   35  C12 UNL     1       3.650   8.050  16.492  1.00  0.00     0.033 A 
ENDBRANCH  27  31
ENDBRANCH   2  24
TORSDOF 9
ENDMDL
MODEL 4
REMARK VINA RESULT: -7.985788902      1.435      2.279
REMARK  9 active torsions:
REMARK  status: ('A' for Active; 'I' for Inactive)
REMARK    1  A    between atoms: C2_2  and  C3_3 
REMARK    2  A    between atoms: C3_3  and  C4_4 
REMARK    3  A    between atoms: C4_4  and  C13_19 
REMARK    4  A    between atoms: N1_5  and  N2_7 
REMARK    5  A    between atoms: N2_7  and  C5_8 
REMARK       I    between atoms: N2_7  and  C7_10 
REMARK       I    between atoms: C7_10  and  N3_12 
REMARK    6  A    between atoms: N3_12  and  C8_14 
REMARK       I    between atoms: C13_19  and  N4_21 
REMARK    7  A    between atoms: N4_21  and  C14_23 
REMARK    8  A    between atoms: C20_29  and  C21_30 
REMARK    9  A    between atoms: C21_30  and  O3_31 
ROOT
HETATM    1  C4  UNL     1       5.425   7.979  22.187  1.00  0.00     0.097 C 
HETATM    2  N1  UNL     1       6.233   8.640  22.930  1.00  0.00    -0.293 N 
ATOM      3  H1  UNL     1       5.933   9.572  23.215  1.00  0.00     0.187 HD
ENDROOT
BRANCH   1   4
HETATM    4  C3  UNL     1       4.106   8.578  21.774  1.00  0.00     0.090 C 
BRANCH   4   5
HETATM    5  C2  UNL     1       3.569   9.493  22.819  1.00  0.00    -0.031 C 
HETATM    6  C1  UNL     1       3.124  10.686  22.483  1.00  0.00     0.007 C 
ENDBRANCH   4   5
ENDBRANCH   1   4
BRANCH   1   7
HETATM    7  C13 UNL     1       5.731   6.639  21.710  1.00  0.00     0.266 C 
HETATM    8  O2  UNL     1       5.575   5.664  22.466  1.00  0.00    -0.266 OA
HETATM    9  N4  UNL     1       6.209   6.425  20.383  1.00  0.00    -0.347 N 
ATOM     10  H4  UNL     1       6.328   7.247  19.792  1.00  0.00     0.163 HD
BRANCH   9  11
HETATM   11  C14 UNL     1       6.537   5.157  19.809  1.00  0.00     0.035 C 
HETATM   12  C15 UNL     1       7.879   5.240  19.141  1.00  0.00     0.035 C 
HETATM   13  C16 UNL     1       8.290   3.858  18.660  1.00  0.00    -0.011 C 
HETATM   14  C17 UNL     1       7.273   3.461  17.603  1.00  0.00     0.009 C 
HETATM   15  C22 UNL     1       8.357   2.890  19.794  1.00  0.00     0.016 C 
HETATM   16  C18 UNL     1       5.909   3.384  18.246  1.00  0.00    -0.011 C 
HETATM   17  C19 UNL     1       6.008   2.324  19.336  1.00  0.00     0.016 C 
HETATM   18  C24 UNL     1       5.459   4.670  18.857  1.00  0.00     0.035 C 
HETATM   19  C20 UNL     1       6.973   2.764  20.395  1.00  0.00    -0.016 C 
HETATM   20  C23 UNL     1       6.593   4.123  20.931  1.00  0.00     0.042 C 
BRANCH  19  21
HETATM   21  C21 UNL     1       6.948   1.789  21.546  1.00  0.00     0.173 C 
BRANCH  21  22
HETATM   22  O3  UNL     1       6.408   2.393  22.676  1.00  0.00    -0.400 OA
ATOM     23  H3  UNL     1       5.464   2.287  22.685  1.00  0.00     0.209 HD
ENDBRANCH  21  22
ENDBRANCH  19  21
ENDBRANCH   9  11
ENDBRANCH   1   7
BRANCH   2  24
HETATM   24  N2  UNL     1       7.472   8.220  23.388  1.00  0.00    -0.243 N 
HETATM   25  C7  UNL     1       7.834   8.393  24.747  1.00  0.00     0.337 C 
HETATM   26  O1  UNL     1       7.025   8.928  25.540  1.00  0.00    -0.245 OA
HETATM   27  N3  UNL     1       9.089   7.983  25.257  1.00  0.00    -0.334 N 
ATOM     28  H3  UNL     1       9.757   7.546  24.622  1.00  0.00     0.165 HD
BRANCH  24  29
HETATM   29  C5  UNL     1       8.385   7.610  22.434  1.00  0.00     0.149 C 
HETATM   30  C6  UNL     1       9.057   8.663  21.571  1.00  0.00     0.028 C 
ENDBRANCH  24  29
BRANCH  27  31
HETATM   31  C8  UNL     1       9.462   8.159  26.651  1.00  0.00     0.109 A 
HETATM   32  C9  UNL     1      10.112   7.297  27.234  1.00  0.00    -0.006 A 
HETATM   33  C10 UNL     1      10.821   7.103  27.386  1.00  0.00    -0.029 A 
HETATM   34  C11 UNL     1      11.976   7.474  27.190  1.00  0.00     0.029 A 
HETATM   35  C12 UNL     1      11.128   8.823  26.277  1.00  0.00     0.033 A 
ENDBRANCH  27  31
ENDBRANCH   2  24
TORSDOF 9
ENDMDL
MODEL 5
REMARK VINA RESULT: -7.744633367      2.367      4.024
REMARK  9 active torsions:
REMARK  status: ('A' for Active; 'I' for Inactive)
REMARK    1  A    between atoms: C2_2  and  C3_3 
REMARK    2  A    between atoms: C3_3  and  C4_4 
REMARK    3  A    between atoms: C4_4  and  C13_19 
REMARK    4  A    between atoms: N1_5  and  N2_7 
REMARK    5  A    between atoms: N2_7  and  C5_8 
REMARK       I    between atoms: N2_7  and  C7_10 
REMARK       I    between atoms: C7_10  and  N3_12 
REMARK    6  A    between atoms: N3_12  and  C8_14 
REMARK       I    between atoms: C13_19  and  N4_21 
REMARK    7  A    between atoms: N4_21  and  C14_23 
REMARK    8  A    between atoms: C20_29  and  C21_30 
REMARK    9  A    between atoms: C21_30  and  O3_31 
ROOT
HETATM    1  C4  UNL     1       5.695   8.320  17.815  1.00  0.00     0.097 C 
HETATM    2  N1  UNL     1       5.828   9.185  18.750  1.00  0.00    -0.293 N 
ATOM      3  H1  UNL     1       5.871  10.163  18.465  1.00  0.00     0.187 HD
ENDROOT
BRANCH   1   4
HETATM    4  C3  UNL     1       5.609   8.760  16.376  1.00  0.00     0.090 C 
BRANCH   4   5
HETATM    5  C2  UNL     1       5.998   7.665  15.445  1.00  0.00    -0.031 C 
HETATM    6  C1  UNL     1       5.339   7.493  14.318  1.00  0.00     0.007 C 
ENDBRANCH   4   5
ENDBRANCH   1   4
BRANCH   1   7
HETATM    7  C13 UNL     1       5.623   6.892  18.084  1.00  0.00     0.266 C 
HETATM    8  O2  UNL     1       4.513   6.342  18.202  1.00  0.00    -0.266 OA
HETATM    9  N4  UNL     1       6.808   6.110  18.215  1.00  0.00    -0.347 N 
ATOM     10  H4  UNL     1       7.700   6.594  18.115  1.00  0.00     0.163 HD
BRANCH   9  11
HETATM   11  C14 UNL     1       6.855   4.705  18.474  1.00  0.00     0.035 C 
HETATM   12  C15 UNL     1       6.040   3.976  17.445  1.00  0.00     0.035 C 
HETATM   13  C16 UNL     1       6.209   2.478  17.634  1.00  0.00    -0.011 C 
HETATM   14  C17 UNL     1       5.622   2.157  18.998  1.00  0.00     0.009 C 
HETATM   15  C22 UNL     1       7.641   2.077  17.510  1.00  0.00     0.016 C 
HETATM   16  C18 UNL     1       6.415   2.889  20.054  1.00  0.00    -0.011 C 
HETATM   17  C19 UNL     1       7.847   2.382  19.941  1.00  0.00     0.016 C 
HETATM   18  C24 UNL     1       6.410   4.374  19.887  1.00  0.00     0.035 C 
HETATM   19  C20 UNL     1       8.425   2.761  18.611  1.00  0.00    -0.016 C 
HETATM   20  C23 UNL     1       8.310   4.249  18.384  1.00  0.00     0.042 C 
BRANCH  19  21
HETATM   21  C21 UNL     1       9.888   2.398  18.566  1.00  0.00     0.173 C 
BRANCH  21  22
HETATM   22  O3  UNL     1      10.067   1.207  17.873  1.00  0.00    -0.400 OA
ATOM     23  H3  UNL     1      10.463   1.376  17.026  1.00  0.00     0.209 HD
ENDBRANCH  21  22
ENDBRANCH  19  21
ENDBRANCH   9  11
ENDBRANCH   1   7
BRANCH   2  24
HETATM   24  N2  UNL     1       5.919   8.931  20.109  1.00  0.00    -0.243 N 
HETATM   25  C7  UNL     1       7.162   8.583  20.694  1.00  0.00     0.337 C 
HETATM   26  O1  UNL     1       8.186   8.509  19.976  1.00  0.00    -0.245 OA
HETATM   27  N3  UNL     1       7.302   8.312  22.077  1.00  0.00    -0.334 N 
ATOM     28  H3  UNL     1       6.476   8.369  22.674  1.00  0.00     0.165 HD
BRANCH  24  29
HETATM   29  C5  UNL     1       4.706   9.021  20.907  1.00  0.00     0.149 C 
HETATM   30  C6  UNL     1       3.675   9.912  20.236  1.00  0.00     0.028 C 
ENDBRANCH  24  29
BRANCH  27  31
HETATM   31  C8  UNL     1       8.576   7.956  22.679  1.00  0.00     0.109 A 
HETATM   32  C9  UNL     1       9.163   8.751  23.407  1.00  0.00    -0.006 A 
HETATM   33  C10 UNL     1       9.224   8.947  24.129  1.00  0.00    -0.029 A 
HETATM   34  C11 UNL     1       8.790   8.647  25.239  1.00  0.00     0.029 A 
HETATM   35  C12 UNL     1       7.844   7.411  24.267  1.00  0.00     0.033 A 
ENDBRANCH  27  31
ENDBRANCH   2  24
TORSDOF 9
ENDMDL
