MODEL 1
REMARK VINA RESULT: -9.444143552      0.000      0.000
REMARK  6 active torsions:
REMARK  status: ('A' for Active; 'I' for Inactive)
REMARK       I    between atoms: C1_4  and  N3_6 
REMARK       I    between atoms: N4_9  and  C4_10 
REMARK    1  A    between atoms: C4_10  and  C5_12 
REMARK    2  A    between atoms: C16_23  and  C17_24 
REMARK       I    between atoms: C17_24  and  N5_26 
REMARK    3  A    between atoms: N5_26  and  C18_28 
REMARK    4  A    between atoms: C18_28  and  C19_29 
REMARK    5  A    between atoms: C19_29  and  C20_30 
REMARK    6  A    between atoms: C20_30  and  C21_31 
ROOT
HETATM    1  N1  UNL     1       7.731   9.914  18.736  1.00  0.00    -0.374 N 
ATOM      2  H11 UNL     1       6.780   9.842  18.372  1.00  0.00     0.158 HD
ATOM      3  H12 UNL     1       8.326  10.689  18.444  1.00  0.00     0.158 HD
HETATM    4  C1  UNL     1       8.170   9.037  19.553  1.00  0.00     0.184 C 
HETATM    5  N2  UNL     1       9.483   9.136  20.055  1.00  0.00    -0.064 NA
HETATM    6  N3  UNL     1       7.350   7.967  19.956  1.00  0.00    -0.339 N 
HETATM    7  C2  UNL     1       6.225   7.604  19.115  1.00  0.00     0.146 C 
HETATM    8  C3  UNL     1       6.201   6.095  18.884  1.00  0.00     0.145 C 
HETATM    9  N4  UNL     1       6.812   5.389  19.962  1.00  0.00    -0.347 N 
HETATM   10  C4  UNL     1       7.447   4.137  19.900  1.00  0.00     0.228 C 
HETATM   11  O1  UNL     1       7.921   3.723  21.030  1.00  0.00    -0.273 OA
HETATM   12  C15 UNL     1       6.731   6.085  21.266  1.00  0.00     0.161 C 
HETATM   13  C16 UNL     1       7.665   7.267  21.176  1.00  0.00     0.197 C 
ENDROOT
BRANCH  10  14
HETATM   14  C5  UNL     1       7.645   3.251  18.756  1.00  0.00     0.042 C 
HETATM   15  C6  UNL     1       9.151   3.269  18.436  1.00  0.00     0.024 C 
HETATM   16  C7  UNL     1       9.513   2.449  17.250  1.00  0.00    -0.013 C 
HETATM   17  C8  UNL     1       8.783   2.962  16.035  1.00  0.00     0.009 C 
HETATM   18  C12 UNL     1       9.154   1.003  17.516  1.00  0.00     0.009 C 
HETATM   19  C9  UNL     1       7.306   2.834  16.333  1.00  0.00    -0.013 C 
HETATM   20  C10 UNL     1       6.929   1.416  16.603  1.00  0.00     0.009 C 
HETATM   21  C14 UNL     1       6.984   3.739  17.495  1.00  0.00     0.024 C 
HETATM   22  C11 UNL     1       7.692   0.965  17.821  1.00  0.00    -0.013 C 
HETATM   23  C13 UNL     1       7.316   1.811  19.017  1.00  0.00     0.024 C 
ENDBRANCH  10  14
BRANCH  13  24
HETATM   24  C17 UNL     1       7.547   8.073  22.397  1.00  0.00     0.242 C 
HETATM   25  O2  UNL     1       6.368   8.454  22.719  1.00  0.00    -0.271 OA
HETATM   26  N5  UNL     1       8.581   8.471  23.251  1.00  0.00    -0.359 N 
ATOM     27  H5  UNL     1       9.530   8.180  23.018  1.00  0.00     0.162 HD
BRANCH  26  28
HETATM   28  C18 UNL     1       8.391   9.265  24.437  1.00  0.00     0.122 C 
BRANCH  28  29
HETATM   29  C19 UNL     1       8.071   8.478  25.668  1.00  0.00     0.020 C 
BRANCH  29  30
HETATM   30  C20 UNL     1       9.037   7.339  25.897  1.00  0.00     0.006 C 
BRANCH  30  31
HETATM   31  C21 UNL     1      10.115   7.820  26.846  1.00  0.00    -0.014 C 
HETATM   32  C22 UNL     1      11.418   8.202  26.222  1.00  0.00     0.005 C 
HETATM   33  C23 UNL     1      12.133   7.416  27.304  1.00  0.00     0.001 C 
HETATM   34  C24 UNL     1      10.843   6.645  27.510  1.00  0.00     0.005 C 
ENDBRANCH  30  31
ENDBRANCH  29  30
ENDBRANCH  28  29
ENDBRANCH  26  28
ENDBRANCH  13  24
TORSDOF 6
ENDMDL
MODEL 2
REMARK VINA RESULT: -9.400664927      3.229      4.675
REMARK  6 active torsions:
REMARK  status: ('A' for Active; 'I' for Inactive)
REMARK       I    between atoms: C1_4  and  N3_6 
REMARK       I    between atoms: N4_9  and  C4_10 
REMARK    1  A    between atoms: C4_10  and  C5_12 
REMARK    2  A    between atoms: C16_23  and  C17_24 
REMARK       I    between atoms: C17_24  and  N5_26 
REMARK    3  A    between atoms: N5_26  and  C18_28 
REMARK    4  A    between atoms: C18_28  and  C19_29 
REMARK    5  A    between atoms: C19_29  and  C20_30 
REMARK    6  A    between atoms: C20_30  and  C21_31 
ROOT
HETATM    1  N1  UNL     1       9.523   9.229  21.875  1.00  0.00    -0.374 N 
ATOM      2  H11 UNL     1       9.392   9.617  20.941  1.00  0.00     0.158 HD
ATOM      3  H12 UNL     1      10.265   9.591  22.473  1.00  0.00     0.158 HD
HETATM    4  C1  UNL     1       8.759   8.294  22.292  1.00  0.00     0.184 C 
HETATM    5  N2  UNL     1       8.940   7.758  23.582  1.00  0.00    -0.064 NA
HETATM    6  N3  UNL     1       7.735   7.794  21.467  1.00  0.00    -0.339 N 
HETATM    7  C2  UNL     1       7.843   7.989  20.033  1.00  0.00     0.146 C 
HETATM    8  C3  UNL     1       7.573   6.679  19.298  1.00  0.00     0.145 C 
HETATM    9  N4  UNL     1       6.715   5.823  20.049  1.00  0.00    -0.347 N 
HETATM   10  C4  UNL     1       6.667   4.420  19.998  1.00  0.00     0.228 C 
HETATM   11  O1  UNL     1       5.793   3.886  20.789  1.00  0.00    -0.273 OA
HETATM   12  C15 UNL     1       5.786   6.537  20.953  1.00  0.00     0.161 C 
HETATM   13  C16 UNL     1       6.628   7.096  22.073  1.00  0.00     0.197 C 
ENDROOT
BRANCH  10  14
HETATM   14  C5  UNL     1       7.454   3.491  19.191  1.00  0.00     0.042 C 
HETATM   15  C6  UNL     1       6.800   3.446  17.798  1.00  0.00     0.024 C 
HETATM   16  C7  UNL     1       7.458   2.495  16.866  1.00  0.00    -0.013 C 
HETATM   17  C8  UNL     1       7.403   1.101  17.438  1.00  0.00     0.009 C 
HETATM   18  C12 UNL     1       8.893   2.925  16.646  1.00  0.00     0.009 C 
HETATM   19  C9  UNL     1       8.146   1.147  18.755  1.00  0.00    -0.013 C 
HETATM   20  C10 UNL     1       9.562   1.573  18.564  1.00  0.00     0.009 C 
HETATM   21  C14 UNL     1       7.395   2.068  19.683  1.00  0.00     0.024 C 
HETATM   22  C11 UNL     1       9.547   2.965  17.989  1.00  0.00    -0.013 C 
HETATM   23  C13 UNL     1       8.870   3.920  18.947  1.00  0.00     0.024 C 
ENDBRANCH  10  14
BRANCH  13  24
HETATM   24  C17 UNL     1       5.787   7.919  22.950  1.00  0.00     0.242 C 
HETATM   25  O2  UNL     1       4.904   8.648  22.375  1.00  0.00    -0.271 OA
HETATM   26  N5  UNL     1       5.840   7.996  24.345  1.00  0.00    -0.359 N 
ATOM     27  H5  UNL     1       6.534   7.425  24.828  1.00  0.00     0.162 HD
BRANCH  26  28
HETATM   28  C18 UNL     1       4.979   8.829  25.144  1.00  0.00     0.122 C 
BRANCH  28  29
HETATM   29  C19 UNL     1       3.884   8.095  25.851  1.00  0.00     0.020 C 
BRANCH  29  30
HETATM   30  C20 UNL     1       2.542   8.268  25.178  1.00  0.00     0.006 C 
BRANCH  30  31
HETATM   31  C21 UNL     1       1.742   9.276  25.976  1.00  0.00    -0.014 C 
HETATM   32  C22 UNL     1       0.364   8.856  26.374  1.00  0.00     0.005 C 
HETATM   33  C23 UNL     1      -0.147  10.211  25.926  1.00  0.00     0.001 C 
HETATM   34  C24 UNL     1       1.095  10.327  25.064  1.00  0.00     0.005 C 
ENDBRANCH  30  31
ENDBRANCH  29  30
ENDBRANCH  28  29
ENDBRANCH  26  28
ENDBRANCH  13  24
TORSDOF 6
ENDMDL
MODEL 3
REMARK VINA RESULT: -9.356565864      2.984      4.576
REMARK  6 active torsions:
REMARK  status: ('A' for Active; 'I' for Inactive)
REMARK       I    between atoms: C1_4  and  N3_6 
REMARK       I    between atoms: N4_9  and  C4_10 
REMARK    1  A    between atoms: C4_10  and  C5_12 
REMARK    2  A    between atoms: C16_23  and  C17_24 
REMARK       I    between atoms: C17_24  and  N5_26 
REMARK    3  A    between atoms: N5_26  and  C18_28 
REMARK    4  A    between atoms: C18_28  and  C19_29 
REMARK    5  A    between atoms: C19_29  and  C20_30 
REMARK    6  A    between atoms: C20_30  and  C21_31 
ROOT
HETATM    1  N1  UNL     1       8.961   8.901  22.149  1.00  0.00    -0.374 N 
ATOM      2  H11 UNL     1       8.829   9.329  21.233  1.00  0.00     0.158 HD
ATOM      3  H12 UNL     1       9.649   9.290  22.794  1.00  0.00     0.158 HD
HETATM    4  C1  UNL     1       8.268   7.882  22.484  1.00  0.00     0.184 C 
HETATM    5  N2  UNL     1       8.452   7.290  23.749  1.00  0.00    -0.064 NA
HETATM    6  N3  UNL     1       7.320   7.345  21.594  1.00  0.00    -0.339 N 
HETATM    7  C2  UNL     1       7.460   7.631  20.178  1.00  0.00     0.146 C 
HETATM    8  C3  UNL     1       7.329   6.347  19.363  1.00  0.00     0.145 C 
HETATM    9  N4  UNL     1       6.525   5.378  20.032  1.00  0.00    -0.347 N 
HETATM   10  C4  UNL     1       6.601   3.982  19.903  1.00  0.00     0.228 C 
HETATM   11  O1  UNL     1       5.751   3.331  20.630  1.00  0.00    -0.273 OA
HETATM   12  C15 UNL     1       5.507   5.958  20.938  1.00  0.00     0.161 C 
HETATM   13  C16 UNL     1       6.259   6.521  22.118  1.00  0.00     0.197 C 
ENDROOT
BRANCH  10  14
HETATM   14  C5  UNL     1       7.494   3.171  19.078  1.00  0.00     0.042 C 
HETATM   15  C6  UNL     1       6.857   3.094  17.678  1.00  0.00     0.024 C 
HETATM   16  C7  UNL     1       7.624   2.250  16.726  1.00  0.00    -0.013 C 
HETATM   17  C8  UNL     1       7.724   0.843  17.258  1.00  0.00     0.009 C 
HETATM   18  C12 UNL     1       9.003   2.846  16.532  1.00  0.00     0.009 C 
HETATM   19  C9  UNL     1       8.449   0.934  18.583  1.00  0.00    -0.013 C 
HETATM   20  C10 UNL     1       9.809   1.523  18.417  1.00  0.00     0.009 C 
HETATM   21  C14 UNL     1       7.593   1.738  19.529  1.00  0.00     0.024 C 
HETATM   22  C11 UNL     1       9.639   2.920  17.880  1.00  0.00    -0.013 C 
HETATM   23  C13 UNL     1       8.854   3.765  18.859  1.00  0.00     0.024 C 
ENDBRANCH  10  14
BRANCH  13  24
HETATM   24  C17 UNL     1       5.320   7.217  23.005  1.00  0.00     0.242 C 
HETATM   25  O2  UNL     1       4.454   7.973  22.441  1.00  0.00    -0.271 OA
HETATM   26  N5  UNL     1       5.263   7.147  24.401  1.00  0.00    -0.359 N 
ATOM     27  H5  UNL     1       5.941   6.551  24.876  1.00  0.00     0.162 HD
BRANCH  26  28
HETATM   28  C18 UNL     1       4.310   7.860  25.211  1.00  0.00     0.122 C 
BRANCH  28  29
HETATM   29  C19 UNL     1       4.706   9.263  25.547  1.00  0.00     0.020 C 
BRANCH  29  30
HETATM   30  C20 UNL     1       3.514  10.169  25.754  1.00  0.00     0.006 C 
BRANCH  30  31
HETATM   31  C21 UNL     1       2.412   9.718  24.819  1.00  0.00    -0.014 C 
HETATM   32  C22 UNL     1       2.215  10.543  23.589  1.00  0.00     0.005 C 
HETATM   33  C23 UNL     1       0.721  10.517  23.845  1.00  0.00     0.001 C 
HETATM   34  C24 UNL     1       1.038  10.205  25.295  1.00  0.00     0.005 C 
ENDBRANCH  30  31
ENDBRANCH  29  30
ENDBRANCH  28  29
ENDBRANCH  26  28
ENDBRANCH  13  24
TORSDOF 6
ENDMDL
MODEL 4
REMARK VINA RESULT: -9.317467061      3.009      4.473
REMARK  6 active torsions:
REMARK  status: ('A' for Active; 'I' for Inactive)
REMARK       I    between atoms: C1_4  and  N3_6 
REMARK       I    between atoms: N4_9  and  C4_10 
REMARK    1  A    between atoms: C4_10  and  C5_12 
REMARK    2  A    between atoms: C16_23  and  C17_24 
REMARK       I    between atoms: C17_24  and  N5_26 
REMARK    3  A    between atoms: N5_26  and  C18_28 
REMARK    4  A    between atoms: C18_28  and  C19_29 
REMARK    5  A    between atoms: C19_29  and  C20_30 
REMARK    6  A    between atoms: C20_30  and  C21_31 
ROOT
HETATM    1  N1  UNL     1       9.663   9.157  22.257  1.00  0.00    -0.374 N 
ATOM      2  H11 UNL     1       9.607   9.578  21.330  1.00  0.00     0.158 HD
ATOM      3  H12 UNL     1      10.397   9.452  22.902  1.00  0.00     0.158 HD
HETATM    4  C1  UNL     1       8.818   8.266  22.607  1.00  0.00     0.184 C 
HETATM    5  N2  UNL     1       8.896   7.685  23.888  1.00  0.00    -0.064 NA
HETATM    6  N3  UNL     1       7.807   7.860  21.718  1.00  0.00    -0.339 N 
HETATM    7  C2  UNL     1       8.001   8.085  20.298  1.00  0.00     0.146 C 
HETATM    8  C3  UNL     1       7.682   6.817  19.511  1.00  0.00     0.145 C 
HETATM    9  N4  UNL     1       6.731   6.001  20.192  1.00  0.00    -0.347 N 
HETATM   10  C4  UNL     1       6.592   4.607  20.097  1.00  0.00     0.228 C 
HETATM   11  O1  UNL     1       5.645   4.114  20.827  1.00  0.00    -0.273 OA
HETATM   12  C15 UNL     1       5.807   6.753  21.071  1.00  0.00     0.161 C 
HETATM   13  C16 UNL     1       6.626   7.223  22.247  1.00  0.00     0.197 C 
ENDROOT
BRANCH  10  14
HETATM   14  C5  UNL     1       7.356   3.648  19.303  1.00  0.00     0.042 C 
HETATM   15  C6  UNL     1       6.708   3.611  17.906  1.00  0.00     0.024 C 
HETATM   16  C7  UNL     1       7.343   2.632  16.986  1.00  0.00    -0.013 C 
HETATM   17  C8  UNL     1       7.244   1.246  17.570  1.00  0.00     0.009 C 
HETATM   18  C12 UNL     1       8.791   3.018  16.771  1.00  0.00     0.009 C 
HETATM   19  C9  UNL     1       7.980   1.281  18.891  1.00  0.00    -0.013 C 
HETATM   20  C10 UNL     1       9.410   1.663  18.704  1.00  0.00     0.009 C 
HETATM   21  C14 UNL     1       7.252   2.232  19.806  1.00  0.00     0.024 C 
HETATM   22  C11 UNL     1       9.438   3.050  18.116  1.00  0.00    -0.013 C 
HETATM   23  C13 UNL     1       8.785   4.033  19.063  1.00  0.00     0.024 C 
ENDBRANCH  10  14
BRANCH  13  24
HETATM   24  C17 UNL     1       5.797   8.079  23.105  1.00  0.00     0.242 C 
HETATM   25  O2  UNL     1       4.870   8.743  22.525  1.00  0.00    -0.271 OA
HETATM   26  N5  UNL     1       5.907   8.248  24.490  1.00  0.00    -0.359 N 
ATOM     27  H5  UNL     1       6.637   7.729  24.977  1.00  0.00     0.162 HD
BRANCH  26  28
HETATM   28  C18 UNL     1       5.056   9.107  25.271  1.00  0.00     0.122 C 
BRANCH  28  29
HETATM   29  C19 UNL     1       3.914   8.410  25.940  1.00  0.00     0.020 C 
BRANCH  29  30
HETATM   30  C20 UNL     1       2.574   8.996  25.562  1.00  0.00     0.006 C 
BRANCH  30  31
HETATM   31  C21 UNL     1       1.772   7.921  24.858  1.00  0.00    -0.014 C 
HETATM   32  C22 UNL     1       0.575   7.409  25.591  1.00  0.00     0.005 C 
HETATM   33  C23 UNL     1       1.003   5.996  25.244  1.00  0.00     0.001 C 
HETATM   34  C24 UNL     1       2.406   6.536  25.044  1.00  0.00     0.005 C 
ENDBRANCH  30  31
ENDBRANCH  29  30
ENDBRANCH  28  29
ENDBRANCH  26  28
ENDBRANCH  13  24
TORSDOF 6
ENDMDL
MODEL 5
REMARK VINA RESULT: -9.280812407      2.960      4.479
REMARK  6 active torsions:
REMARK  status: ('A' for Active; 'I' for Inactive)
REMARK       I    between atoms: C1_4  and  N3_6 
REMARK       I    between atoms: N4_9  and  C4_10 
REMARK    1  A    between atoms: C4_10  and  C5_12 
REMARK    2  A    between atoms: C16_23  and  C17_24 
REMARK       I    between atoms: C17_24  and  N5_26 
REMARK    3  A    between atoms: N5_26  and  C18_28 
REMARK    4  A    between atoms: C18_28  and  C19_29 
REMARK    5  A    between atoms: C19_29  and  C20_30 
REMARK    6  A    between atoms: C20_30  and  C21_31 
ROOT
HETATM    1  N1  UNL     1       8.931   8.944  22.058  1.00  0.00    -0.374 N 
ATOM      2  H11 UNL     1       8.763   9.410  21.166  1.00  0.00     0.158 HD
ATOM      3  H12 UNL     1       9.644   9.307  22.691  1.00  0.00     0.158 HD
HETATM    4  C1  UNL     1       8.249   7.913  22.378  1.00  0.00     0.184 C 
HETATM    5  N2  UNL     1       8.481   7.269  23.610  1.00  0.00    -0.064 NA
HETATM    6  N3  UNL     1       7.266   7.413  21.505  1.00  0.00    -0.339 N 
HETATM    7  C2  UNL     1       7.350   7.757  20.098  1.00  0.00     0.146 C 
HETATM    8  C3  UNL     1       7.184   6.507  19.236  1.00  0.00     0.145 C 
HETATM    9  N4  UNL     1       6.405   5.513  19.897  1.00  0.00    -0.347 N 
HETATM   10  C4  UNL     1       6.473   4.123  19.708  1.00  0.00     0.228 C 
HETATM   11  O1  UNL     1       5.651   3.443  20.440  1.00  0.00    -0.273 OA
HETATM   12  C15 UNL     1       5.425   6.055  20.865  1.00  0.00     0.161 C 
HETATM   13  C16 UNL     1       6.224   6.569  22.036  1.00  0.00     0.197 C 
ENDROOT
BRANCH  10  14
HETATM   14  C5  UNL     1       7.330   3.346  18.816  1.00  0.00     0.042 C 
HETATM   15  C6  UNL     1       7.375   1.913  19.377  1.00  0.00     0.024 C 
HETATM   16  C7  UNL     1       8.259   1.003  18.604  1.00  0.00    -0.013 C 
HETATM   17  C8  UNL     1       9.669   1.537  18.608  1.00  0.00     0.009 C 
HETATM   18  C12 UNL     1       7.737   0.887  17.187  1.00  0.00     0.009 C 
HETATM   19  C9  UNL     1       9.615   2.900  17.954  1.00  0.00    -0.013 C 
HETATM   20  C10 UNL     1       9.100   2.810  16.557  1.00  0.00     0.009 C 
HETATM   21  C14 UNL     1       8.767   3.799  18.818  1.00  0.00     0.024 C 
HETATM   22  C11 UNL     1       7.696   2.269  16.623  1.00  0.00    -0.013 C 
HETATM   23  C13 UNL     1       6.810   3.205  17.416  1.00  0.00     0.024 C 
ENDBRANCH  10  14
BRANCH  13  24
HETATM   24  C17 UNL     1       5.322   7.230  22.988  1.00  0.00     0.242 C 
HETATM   25  O2  UNL     1       4.363   7.913  22.485  1.00  0.00    -0.271 OA
HETATM   26  N5  UNL     1       5.392   7.195  24.384  1.00  0.00    -0.359 N 
ATOM     27  H5  UNL     1       6.146   6.656  24.810  1.00  0.00     0.162 HD
BRANCH  26  28
HETATM   28  C18 UNL     1       4.468   7.869  25.259  1.00  0.00     0.122 C 
BRANCH  28  29
HETATM   29  C19 UNL     1       4.808   9.298  25.540  1.00  0.00     0.020 C 
BRANCH  29  30
HETATM   30  C20 UNL     1       3.588  10.134  25.851  1.00  0.00     0.006 C 
BRANCH  30  31
HETATM   31  C21 UNL     1       2.469   9.696  24.929  1.00  0.00    -0.014 C 
HETATM   32  C22 UNL     1       2.239  10.548  23.723  1.00  0.00     0.005 C 
HETATM   33  C23 UNL     1       0.751  10.503  24.011  1.00  0.00     0.001 C 
HETATM   34  C24 UNL     1       1.101  10.160  25.446  1.00  0.00     0.005 C 
ENDBRANCH  30  31
ENDBRANCH  29  30
ENDBRANCH  28  29
ENDBRANCH  26  28
ENDBRANCH  13  24
TORSDOF 6
ENDMDL
