MODEL 1
REMARK VINA RESULT: -4.724730963      0.000      0.000
REMARK  1 active torsions:
REMARK  status: ('A' for Active; 'I' for Inactive)
REMARK    1  A    between atoms: C10_10  and  C11_11 
ROOT
HETATM    1  C1  UNL     1       4.824  58.524  57.432  1.00  0.00     0.009 C 
HETATM    2  C2  UNL     1       5.024  59.462  58.608  1.00  0.00    -0.013 C 
HETATM    3  C3  UNL     1       3.806  59.584  59.438  1.00  0.00     0.009 C 
HETATM    4  C4  UNL     1       2.524  59.806  58.726  1.00  0.00    -0.013 C 
HETATM    5  C5  UNL     1       2.427  58.876  57.541  1.00  0.00     0.009 C 
HETATM    6  C6  UNL     1       3.625  59.103  56.672  1.00  0.00    -0.013 C 
HETATM    7  C7  UNL     1       3.843  60.509  56.257  1.00  0.00     0.010 C 
HETATM    8  C8  UNL     1       4.450  61.409  57.275  1.00  0.00    -0.008 C 
HETATM    9  C9  UNL     1       5.547  60.754  58.047  1.00  0.00     0.010 C 
HETATM   10  C10 UNL     1       3.451  62.052  58.206  1.00  0.00     0.022 C 
HETATM   11  C13 UNL     1       2.218  61.200  58.336  1.00  0.00     0.011 C 
ENDROOT
BRANCH  10  12
HETATM   12  C11 UNL     1       3.147  63.460  57.827  1.00  0.00     0.215 A 
HETATM   13  C12 UNL     1       1.973  64.190  58.219  1.00  0.00     0.266 A 
HETATM   14  N1  UNL     1       3.263  64.507  58.917  1.00  0.00    -0.067 N 
ATOM     15  H12 UNL     1       3.598  64.544  59.879  1.00  0.00     0.277 HD
ATOM     16  H11 UNL     1       3.829  65.338  59.093  1.00  0.00     0.277 HD
ENDBRANCH  10  12
TORSDOF 1
ENDMDL
MODEL 2
REMARK VINA RESULT: -4.643793085      2.462      3.996
REMARK  1 active torsions:
REMARK  status: ('A' for Active; 'I' for Inactive)
REMARK    1  A    between atoms: C10_10  and  C11_11 
ROOT
HETATM    1  C1  UNL     1       4.739  60.445  56.273  1.00  0.00     0.009 C 
HETATM    2  C2  UNL     1       3.506  59.569  56.406  1.00  0.00    -0.013 C 
HETATM    3  C3  UNL     1       2.353  60.308  56.963  1.00  0.00     0.009 C 
HETATM    4  C4  UNL     1       2.604  61.148  58.159  1.00  0.00    -0.013 C 
HETATM    5  C5  UNL     1       3.873  61.944  57.971  1.00  0.00     0.009 C 
HETATM    6  C6  UNL     1       4.986  60.985  57.686  1.00  0.00    -0.013 C 
HETATM    7  C7  UNL     1       5.154  59.902  58.685  1.00  0.00     0.010 C 
HETATM    8  C8  UNL     1       4.195  58.768  58.593  1.00  0.00    -0.008 C 
HETATM    9  C9  UNL     1       3.922  58.352  57.185  1.00  0.00     0.010 C 
HETATM   10  C10 UNL     1       2.906  58.985  59.346  1.00  0.00     0.022 C 
HETATM   11  C13 UNL     1       2.600  60.453  59.466  1.00  0.00     0.011 C 
ENDROOT
BRANCH  10  12
HETATM   12  C11 UNL     1       2.888  58.280  60.657  1.00  0.00     0.215 A 
HETATM   13  C12 UNL     1       1.751  58.176  61.530  1.00  0.00     0.266 A 
HETATM   14  N1  UNL     1       2.131  56.968  60.724  1.00  0.00    -0.067 N 
ATOM     15  H12 UNL     1       1.673  56.340  60.064  1.00  0.00     0.277 HD
ATOM     16  H11 UNL     1       2.353  55.990  60.910  1.00  0.00     0.277 HD
ENDBRANCH  10  12
TORSDOF 1
ENDMDL
MODEL 3
REMARK VINA RESULT: -4.615441693      2.839      4.590
REMARK  1 active torsions:
REMARK  status: ('A' for Active; 'I' for Inactive)
REMARK    1  A    between atoms: C10_10  and  C11_11 
ROOT
HETATM    1  C1  UNL     1       4.755  61.449  58.120  1.00  0.00     0.009 C 
HETATM    2  C2  UNL     1       5.194  60.567  56.965  1.00  0.00    -0.013 C 
HETATM    3  C3  UNL     1       4.261  60.640  55.821  1.00  0.00     0.009 C 
HETATM    4  C4  UNL     1       2.813  60.528  56.123  1.00  0.00    -0.013 C 
HETATM    5  C5  UNL     1       2.469  61.389  57.313  1.00  0.00     0.009 C 
HETATM    6  C6  UNL     1       3.338  60.970  58.458  1.00  0.00    -0.013 C 
HETATM    7  C7  UNL     1       3.292  59.526  58.786  1.00  0.00     0.010 C 
HETATM    8  C8  UNL     1       4.077  58.624  57.901  1.00  0.00    -0.008 C 
HETATM    9  C9  UNL     1       5.407  59.190  57.529  1.00  0.00     0.010 C 
HETATM   10  C10 UNL     1       3.332  58.161  56.673  1.00  0.00     0.022 C 
HETATM   11  C13 UNL     1       2.276  59.158  56.283  1.00  0.00     0.011 C 
ENDROOT
BRANCH  10  12
HETATM   12  C11 UNL     1       2.798  56.778  56.820  1.00  0.00     0.215 A 
HETATM   13  C12 UNL     1       1.895  56.134  55.907  1.00  0.00     0.266 A 
HETATM   14  N1  UNL     1       3.339  55.726  55.873  1.00  0.00    -0.067 N 
ATOM     15  H12 UNL     1       4.078  55.665  55.173  1.00  0.00     0.277 HD
ATOM     16  H11 UNL     1       3.868  54.857  55.950  1.00  0.00     0.277 HD
ENDBRANCH  10  12
TORSDOF 1
ENDMDL
MODEL 4
REMARK VINA RESULT: -4.559367397      1.004      2.534
REMARK  1 active torsions:
REMARK  status: ('A' for Active; 'I' for Inactive)
REMARK    1  A    between atoms: C10_10  and  C11_11 
ROOT
HETATM    1  C1  UNL     1       3.680  58.090  57.298  1.00  0.00     0.009 C 
HETATM    2  C2  UNL     1       2.873  59.146  56.564  1.00  0.00    -0.013 C 
HETATM    3  C3  UNL     1       3.736  60.143  55.895  1.00  0.00     0.009 C 
HETATM    4  C4  UNL     1       4.853  60.710  56.689  1.00  0.00    -0.013 C 
HETATM    5  C5  UNL     1       5.568  59.606  57.430  1.00  0.00     0.009 C 
HETATM    6  C6  UNL     1       4.563  58.882  58.270  1.00  0.00    -0.013 C 
HETATM    7  C7  UNL     1       3.772  59.740  59.183  1.00  0.00     0.010 C 
HETATM    8  C8  UNL     1       2.656  60.507  58.564  1.00  0.00    -0.008 C 
HETATM    9  C9  UNL     1       1.895  59.710  57.556  1.00  0.00     0.010 C 
HETATM   10  C10 UNL     1       3.065  61.841  57.992  1.00  0.00     0.022 C 
HETATM   11  C13 UNL     1       4.516  61.830  57.596  1.00  0.00     0.011 C 
ENDROOT
BRANCH  10  12
HETATM   12  C11 UNL     1       2.719  62.976  58.893  1.00  0.00     0.215 A 
HETATM   13  C12 UNL     1       2.855  64.368  58.567  1.00  0.00     0.266 A 
HETATM   14  N1  UNL     1       1.477  63.774  58.551  1.00  0.00    -0.067 N 
ATOM     15  H12 UNL     1       0.706  63.701  57.887  1.00  0.00     0.277 HD
ATOM     16  H11 UNL     1       0.576  63.972  58.987  1.00  0.00     0.277 HD
ENDBRANCH  10  12
TORSDOF 1
ENDMDL
MODEL 5
REMARK VINA RESULT: -4.538260176      2.605      4.503
REMARK  1 active torsions:
REMARK  status: ('A' for Active; 'I' for Inactive)
REMARK    1  A    between atoms: C10_10  and  C11_11 
ROOT
HETATM    1  C1  UNL     1       3.650  62.095  58.034  1.00  0.00     0.009 C 
HETATM    2  C2  UNL     1       2.733  61.003  58.554  1.00  0.00    -0.013 C 
HETATM    3  C3  UNL     1       3.481  59.918  59.223  1.00  0.00     0.009 C 
HETATM    4  C4  UNL     1       4.677  59.391  58.522  1.00  0.00    -0.013 C 
HETATM    5  C5  UNL     1       5.505  60.535  57.988  1.00  0.00     0.009 C 
HETATM    6  C6  UNL     1       4.631  61.370  57.106  1.00  0.00    -0.013 C 
HETATM    7  C7  UNL     1       3.943  60.630  56.021  1.00  0.00     0.010 C 
HETATM    8  C8  UNL     1       2.741  59.848  56.417  1.00  0.00    -0.008 C 
HETATM    9  C9  UNL     1       1.876  60.570  57.397  1.00  0.00     0.010 C 
HETATM   10  C10 UNL     1       3.045  58.451  56.901  1.00  0.00     0.022 C 
HETATM   11  C13 UNL     1       4.433  58.375  57.473  1.00  0.00     0.011 C 
ENDROOT
BRANCH  10  12
HETATM   12  C11 UNL     1       2.790  57.421  55.856  1.00  0.00     0.215 A 
HETATM   13  C12 UNL     1       3.146  56.032  55.954  1.00  0.00     0.266 A 
HETATM   14  N1  UNL     1       1.704  56.403  56.141  1.00  0.00    -0.067 N 
ATOM     15  H12 UNL     1       0.986  56.261  56.851  1.00  0.00     0.277 HD
ATOM     16  H11 UNL     1       0.808  56.136  55.732  1.00  0.00     0.277 HD
ENDBRANCH  10  12
TORSDOF 1
ENDMDL
