MODEL 1
REMARK VINA RESULT: -4.218995686      0.000      0.000
REMARK  1 active torsions:
REMARK  status: ('A' for Active; 'I' for Inactive)
REMARK    1  A    between atoms: N1_2  and  C2_4 
ROOT
HETATM    1  C2  UNL     1       2.977  61.488  57.931  1.00  0.00     0.026 C 
HETATM    2  C3  UNL     1       4.444  61.862  58.163  1.00  0.00     0.035 C 
HETATM    3  C4  UNL     1       5.299  60.634  58.037  1.00  0.00    -0.011 C 
HETATM    4  C5  UNL     1       5.135  60.150  56.594  1.00  0.00     0.009 C 
HETATM    5  C6  UNL     1       3.708  59.691  56.391  1.00  0.00    -0.011 C 
HETATM    6  C7  UNL     1       3.276  58.662  57.389  1.00  0.00     0.014 C 
HETATM    7  C8  UNL     1       3.452  59.226  58.780  1.00  0.00    -0.041 C 
HETATM    8  C9  UNL     1       2.947  58.166  59.745  1.00  0.00     0.015 C 
HETATM    9  C10 UNL     1       4.912  59.527  58.970  1.00  0.00     0.014 C 
HETATM   10  C11 UNL     1       2.652  60.476  59.009  1.00  0.00     0.039 C 
HETATM   11  C12 UNL     1       2.789  60.895  56.570  1.00  0.00     0.035 C 
ENDROOT
BRANCH   1  12
HETATM   12  N1  UNL     1       2.234  62.704  58.039  1.00  0.00    -0.417 N 
HETATM   13  C1  UNL     1       2.917  63.774  58.696  1.00  0.00     0.140 C 
ATOM     14  H1  UNL     1       1.287  62.802  57.673  1.00  0.00     0.153 HD
ENDBRANCH   1  12
TORSDOF 1
ENDMDL
MODEL 2
REMARK VINA RESULT: -4.217677860      0.711      2.393
REMARK  1 active torsions:
REMARK  status: ('A' for Active; 'I' for Inactive)
REMARK    1  A    between atoms: N1_2  and  C2_4 
ROOT
HETATM    1  C2  UNL     1       2.985  61.202  58.330  1.00  0.00     0.026 C 
HETATM    2  C3  UNL     1       3.019  59.980  59.255  1.00  0.00     0.035 C 
HETATM    3  C4  UNL     1       3.884  58.916  58.645  1.00  0.00    -0.011 C 
HETATM    4  C5  UNL     1       5.292  59.512  58.561  1.00  0.00     0.009 C 
HETATM    5  C6  UNL     1       5.281  60.659  57.575  1.00  0.00    -0.011 C 
HETATM    6  C7  UNL     1       4.745  60.271  56.231  1.00  0.00     0.014 C 
HETATM    7  C8  UNL     1       3.350  59.713  56.403  1.00  0.00    -0.041 C 
HETATM    8  C9  UNL     1       2.838  59.392  55.009  1.00  0.00     0.015 C 
HETATM    9  C10 UNL     1       3.451  58.494  57.274  1.00  0.00     0.014 C 
HETATM   10  C11 UNL     1       2.402  60.695  57.028  1.00  0.00     0.039 C 
HETATM   11  C12 UNL     1       4.362  61.748  58.121  1.00  0.00     0.035 C 
ENDROOT
BRANCH   1  12
HETATM   12  N1  UNL     1       2.171  62.176  58.987  1.00  0.00    -0.417 N 
HETATM   13  C1  UNL     1       2.550  63.535  58.761  1.00  0.00     0.140 C 
ATOM     14  H1  UNL     1       1.376  61.919  59.574  1.00  0.00     0.153 HD
ENDBRANCH   1  12
TORSDOF 1
ENDMDL
MODEL 3
REMARK VINA RESULT: -4.205252111      1.817      3.777
REMARK  1 active torsions:
REMARK  status: ('A' for Active; 'I' for Inactive)
REMARK    1  A    between atoms: N1_2  and  C2_4 
ROOT
HETATM    1  C2  UNL     1       3.191  58.921  56.869  1.00  0.00     0.026 C 
HETATM    2  C3  UNL     1       4.559  58.436  57.362  1.00  0.00     0.035 C 
HETATM    3  C4  UNL     1       5.053  59.351  58.444  1.00  0.00    -0.011 C 
HETATM    4  C5  UNL     1       4.045  59.235  59.590  1.00  0.00     0.009 C 
HETATM    5  C6  UNL     1       2.719  59.802  59.135  1.00  0.00    -0.011 C 
HETATM    6  C7  UNL     1       2.828  61.201  58.612  1.00  0.00     0.014 C 
HETATM    7  C8  UNL     1       3.825  61.222  57.476  1.00  0.00    -0.041 C 
HETATM    8  C9  UNL     1       3.852  62.648  56.949  1.00  0.00     0.015 C 
HETATM    9  C10 UNL     1       5.153  60.787  58.026  1.00  0.00     0.014 C 
HETATM   10  C11 UNL     1       3.435  60.319  56.341  1.00  0.00     0.039 C 
HETATM   11  C12 UNL     1       2.199  58.940  57.988  1.00  0.00     0.035 C 
ENDROOT
BRANCH   1  12
HETATM   12  N1  UNL     1       2.776  57.990  55.866  1.00  0.00    -0.417 N 
HETATM   13  C1  UNL     1       3.004  56.615  56.186  1.00  0.00     0.140 C 
ATOM     14  H1  UNL     1       2.349  58.285  54.988  1.00  0.00     0.153 HD
ENDBRANCH   1  12
TORSDOF 1
ENDMDL
MODEL 4
REMARK VINA RESULT: -4.186158390      1.805      3.255
REMARK  1 active torsions:
REMARK  status: ('A' for Active; 'I' for Inactive)
REMARK    1  A    between atoms: N1_2  and  C2_4 
ROOT
HETATM    1  C2  UNL     1       3.100  59.047  56.600  1.00  0.00     0.026 C 
HETATM    2  C3  UNL     1       3.564  60.375  55.993  1.00  0.00     0.035 C 
HETATM    3  C4  UNL     1       4.226  61.205  57.054  1.00  0.00    -0.011 C 
HETATM    4  C5  UNL     1       5.455  60.412  57.506  1.00  0.00     0.009 C 
HETATM    5  C6  UNL     1       4.995  59.145  58.191  1.00  0.00    -0.011 C 
HETATM    6  C7  UNL     1       4.038  59.400  59.314  1.00  0.00     0.014 C 
HETATM    7  C8  UNL     1       2.850  60.167  58.778  1.00  0.00    -0.041 C 
HETATM    8  C9  UNL     1       1.890  60.347  59.943  1.00  0.00     0.015 C 
HETATM    9  C10 UNL     1       3.356  61.476  58.243  1.00  0.00     0.014 C 
HETATM   10  C11 UNL     1       2.122  59.432  57.690  1.00  0.00     0.039 C 
HETATM   11  C12 UNL     1       4.258  58.288  57.166  1.00  0.00     0.035 C 
ENDROOT
BRANCH   1  12
HETATM   12  N1  UNL     1       2.509  58.305  55.531  1.00  0.00    -0.417 N 
HETATM   13  C1  UNL     1       2.598  56.884  55.657  1.00  0.00     0.140 C 
ATOM     14  H1  UNL     1       2.056  58.757  54.736  1.00  0.00     0.153 HD
ENDBRANCH   1  12
TORSDOF 1
ENDMDL
MODEL 5
REMARK VINA RESULT: -4.158318744      1.062      1.217
REMARK  1 active torsions:
REMARK  status: ('A' for Active; 'I' for Inactive)
REMARK    1  A    between atoms: N1_2  and  C2_4 
ROOT
HETATM    1  C2  UNL     1       3.665  61.263  57.626  1.00  0.00     0.026 C 
HETATM    2  C3  UNL     1       5.080  60.895  58.085  1.00  0.00     0.035 C 
HETATM    3  C4  UNL     1       5.097  59.472  58.563  1.00  0.00    -0.011 C 
HETATM    4  C5  UNL     1       4.732  58.614  57.350  1.00  0.00     0.009 C 
HETATM    5  C6  UNL     1       3.302  58.907  56.954  1.00  0.00    -0.011 C 
HETATM    6  C7  UNL     1       2.335  58.735  58.084  1.00  0.00     0.014 C 
HETATM    7  C8  UNL     1       2.756  59.629  59.228  1.00  0.00    -0.041 C 
HETATM    8  C9  UNL     1       1.712  59.457  60.319  1.00  0.00     0.015 C 
HETATM    9  C10 UNL     1       4.124  59.192  59.668  1.00  0.00     0.014 C 
HETATM   10  C11 UNL     1       2.794  61.081  58.851  1.00  0.00     0.039 C 
HETATM   11  C12 UNL     1       3.217  60.366  56.516  1.00  0.00     0.035 C 
ENDROOT
BRANCH   1  12
HETATM   12  N1  UNL     1       3.735  62.613  57.163  1.00  0.00    -0.417 N 
HETATM   13  C1  UNL     1       3.342  63.602  58.117  1.00  0.00     0.140 C 
ATOM     14  H1  UNL     1       4.044  62.853  56.220  1.00  0.00     0.153 HD
ENDBRANCH   1  12
TORSDOF 1
ENDMDL
