MODEL 1
REMARK VINA RESULT: -5.227076348      0.000      0.000
REMARK  3 active torsions:
REMARK  status: ('A' for Active; 'I' for Inactive)
REMARK    1  A    between atoms: C2_2  and  N1_3 
REMARK    2  A    between atoms: C2_2  and  C3_7 
REMARK    3  A    between atoms: C3_7  and  C5_9 
ROOT
HETATM    1  C5  UNL     1      10.658  56.513  62.691  1.00  0.00     0.005 C 
HETATM    2  C6  UNL     1      11.390  57.420  63.618  1.00  0.00    -0.000 C 
HETATM    3  C7  UNL     1      10.700  56.717  64.743  1.00  0.00     0.016 C 
HETATM    4  C8  UNL     1      11.080  55.610  63.813  1.00  0.00    -0.032 C 
HETATM    5  C9  UNL     1      10.874  54.264  63.966  1.00  0.00     0.016 C 
HETATM    6  C10 UNL     1      12.417  56.308  63.727  1.00  0.00    -0.036 C 
HETATM    7  C11 UNL     1      13.266  56.299  64.951  1.00  0.00     0.016 C 
HETATM    8  C12 UNL     1      13.227  56.041  62.500  1.00  0.00     0.016 C 
ENDROOT
BRANCH   1   9
HETATM    9  C3  UNL     1       9.217  56.728  62.453  1.00  0.00     0.017 C 
HETATM   10  C4  UNL     1       9.001  56.749  60.930  1.00  0.00     0.012 C 
BRANCH   9  11
HETATM   11  C2  UNL     1       8.730  58.090  62.952  1.00  0.00     0.183 C 
HETATM   12  C1  UNL     1       8.173  58.904  61.799  1.00  0.00     0.040 C 
BRANCH  11  13
HETATM   13  N1  UNL     1       7.617  57.912  63.885  1.00  0.00    -0.075 N 
ATOM     14  H13 UNL     1       7.906  57.598  64.811  1.00  0.00     0.274 HD
ATOM     15  H12 UNL     1       7.188  58.789  64.182  1.00  0.00     0.274 HD
ATOM     16  H11 UNL     1       6.967  57.276  63.422  1.00  0.00     0.274 HD
ENDBRANCH  11  13
ENDBRANCH   9  11
ENDBRANCH   1   9
TORSDOF 3
ENDMDL
MODEL 2
REMARK VINA RESULT: -4.847124549      1.528      2.375
REMARK  3 active torsions:
REMARK  status: ('A' for Active; 'I' for Inactive)
REMARK    1  A    between atoms: C2_2  and  N1_3 
REMARK    2  A    between atoms: C2_2  and  C3_7 
REMARK    3  A    between atoms: C3_7  and  C5_9 
ROOT
HETATM    1  C5  UNL     1      10.017  57.641  63.521  1.00  0.00     0.005 C 
HETATM    2  C6  UNL     1      10.603  56.467  64.226  1.00  0.00    -0.000 C 
HETATM    3  C7  UNL     1      10.043  55.616  63.131  1.00  0.00     0.016 C 
HETATM    4  C8  UNL     1      10.587  56.808  62.411  1.00  0.00    -0.032 C 
HETATM    5  C9  UNL     1      10.601  57.052  61.063  1.00  0.00     0.016 C 
HETATM    6  C10 UNL     1      11.794  56.641  63.303  1.00  0.00    -0.036 C 
HETATM    7  C11 UNL     1      12.644  55.438  63.076  1.00  0.00     0.016 C 
HETATM    8  C12 UNL     1      12.627  57.861  63.530  1.00  0.00     0.016 C 
ENDROOT
BRANCH   1   9
HETATM    9  C3  UNL     1       8.558  57.863  63.568  1.00  0.00     0.017 C 
HETATM   10  C4  UNL     1       8.209  58.861  62.452  1.00  0.00     0.012 C 
BRANCH   9  11
HETATM   11  C2  UNL     1       8.101  58.529  64.867  1.00  0.00     0.183 C 
HETATM   12  C1  UNL     1       6.658  58.167  65.166  1.00  0.00     0.040 C 
BRANCH  11  13
HETATM   13  N1  UNL     1       8.880  58.014  65.994  1.00  0.00    -0.075 N 
ATOM     14  H13 UNL     1       9.525  57.267  65.738  1.00  0.00     0.274 HD
ATOM     15  H12 UNL     1       9.582  58.669  66.339  1.00  0.00     0.274 HD
ATOM     16  H11 UNL     1       8.196  57.740  66.700  1.00  0.00     0.274 HD
ENDBRANCH  11  13
ENDBRANCH   9  11
ENDBRANCH   1   9
TORSDOF 3
ENDMDL
MODEL 3
REMARK VINA RESULT: -4.373617736      1.359      2.393
REMARK  3 active torsions:
REMARK  status: ('A' for Active; 'I' for Inactive)
REMARK    1  A    between atoms: C2_2  and  N1_3 
REMARK    2  A    between atoms: C2_2  and  C3_7 
REMARK    3  A    between atoms: C3_7  and  C5_9 
ROOT
HETATM    1  C5  UNL     1      10.809  57.497  64.018  1.00  0.00     0.005 C 
HETATM    2  C6  UNL     1      10.556  56.110  64.496  1.00  0.00    -0.000 C 
HETATM    3  C7  UNL     1      10.175  55.767  63.091  1.00  0.00     0.016 C 
HETATM    4  C8  UNL     1      11.381  56.637  62.931  1.00  0.00    -0.032 C 
HETATM    5  C9  UNL     1      12.012  57.009  61.773  1.00  0.00     0.016 C 
HETATM    6  C10 UNL     1      11.973  55.808  64.046  1.00  0.00    -0.036 C 
HETATM    7  C11 UNL     1      12.289  54.384  63.740  1.00  0.00     0.016 C 
HETATM    8  C12 UNL     1      13.064  56.448  64.842  1.00  0.00     0.016 C 
ENDROOT
BRANCH   1   9
HETATM    9  C3  UNL     1       9.667  58.377  63.704  1.00  0.00     0.017 C 
HETATM   10  C4  UNL     1       9.000  58.758  65.037  1.00  0.00     0.012 C 
BRANCH   9  11
HETATM   11  C2  UNL     1       8.579  57.670  62.893  1.00  0.00     0.183 C 
HETATM   12  C1  UNL     1       7.211  57.955  63.486  1.00  0.00     0.040 C 
BRANCH  11  13
HETATM   13  N1  UNL     1       8.541  58.208  61.533  1.00  0.00    -0.075 N 
ATOM     14  H13 UNL     1       9.252  57.815  60.917  1.00  0.00     0.274 HD
ATOM     15  H12 UNL     1       7.730  57.902  60.994  1.00  0.00     0.274 HD
ATOM     16  H11 UNL     1       8.604  59.222  61.635  1.00  0.00     0.274 HD
ENDBRANCH  11  13
ENDBRANCH   9  11
ENDBRANCH   1   9
TORSDOF 3
ENDMDL
MODEL 4
REMARK VINA RESULT: -4.333319253      1.601      2.822
REMARK  3 active torsions:
REMARK  status: ('A' for Active; 'I' for Inactive)
REMARK    1  A    between atoms: C2_2  and  N1_3 
REMARK    2  A    between atoms: C2_2  and  C3_7 
REMARK    3  A    between atoms: C3_7  and  C5_9 
ROOT
HETATM    1  C5  UNL     1       9.396  57.496  63.646  1.00  0.00     0.005 C 
HETATM    2  C6  UNL     1      10.289  58.240  62.716  1.00  0.00    -0.000 C 
HETATM    3  C7  UNL     1      11.432  57.816  63.582  1.00  0.00     0.016 C 
HETATM    4  C8  UNL     1      10.581  56.590  63.491  1.00  0.00    -0.032 C 
HETATM    5  C9  UNL     1      10.807  55.357  64.044  1.00  0.00     0.016 C 
HETATM    6  C10 UNL     1      10.496  56.909  62.017  1.00  0.00    -0.036 C 
HETATM    7  C11 UNL     1      11.745  56.760  61.218  1.00  0.00     0.016 C 
HETATM    8  C12 UNL     1       9.313  56.362  61.287  1.00  0.00     0.016 C 
ENDROOT
BRANCH   1   9
HETATM    9  C3  UNL     1       9.100  58.062  64.977  1.00  0.00     0.017 C 
HETATM   10  C4  UNL     1       9.225  56.920  66.000  1.00  0.00     0.012 C 
BRANCH   9  11
HETATM   11  C2  UNL     1       7.660  58.563  65.102  1.00  0.00     0.183 C 
HETATM   12  C1  UNL     1       6.905  58.323  63.807  1.00  0.00     0.040 C 
BRANCH  11  13
HETATM   13  N1  UNL     1       6.949  57.794  66.123  1.00  0.00    -0.075 N 
ATOM     14  H13 UNL     1       6.885  56.798  65.914  1.00  0.00     0.274 HD
ATOM     15  H12 UNL     1       7.465  57.702  66.999  1.00  0.00     0.274 HD
ATOM     16  H11 UNL     1       6.042  58.248  66.229  1.00  0.00     0.274 HD
ENDBRANCH  11  13
ENDBRANCH   9  11
ENDBRANCH   1   9
TORSDOF 3
ENDMDL
MODEL 5
REMARK VINA RESULT: -4.240128487      1.523      2.619
REMARK  3 active torsions:
REMARK  status: ('A' for Active; 'I' for Inactive)
REMARK    1  A    between atoms: C2_2  and  N1_3 
REMARK    2  A    between atoms: C2_2  and  C3_7 
REMARK    3  A    between atoms: C3_7  and  C5_9 
ROOT
HETATM    1  C5  UNL     1      10.062  57.187  64.096  1.00  0.00     0.005 C 
HETATM    2  C6  UNL     1      10.019  55.862  63.419  1.00  0.00    -0.000 C 
HETATM    3  C7  UNL     1      10.954  56.428  62.398  1.00  0.00     0.016 C 
HETATM    4  C8  UNL     1      11.488  56.945  63.695  1.00  0.00    -0.032 C 
HETATM    5  C9  UNL     1      12.592  57.728  63.907  1.00  0.00     0.016 C 
HETATM    6  C10 UNL     1      11.278  55.538  64.201  1.00  0.00    -0.036 C 
HETATM    7  C11 UNL     1      12.160  54.476  63.639  1.00  0.00     0.016 C 
HETATM    8  C12 UNL     1      11.110  55.381  65.678  1.00  0.00     0.016 C 
ENDROOT
BRANCH   1   9
HETATM    9  C3  UNL     1       9.340  58.330  63.504  1.00  0.00     0.017 C 
HETATM   10  C4  UNL     1       8.963  59.281  64.652  1.00  0.00     0.012 C 
BRANCH   9  11
HETATM   11  C2  UNL     1       8.012  57.923  62.861  1.00  0.00     0.183 C 
HETATM   12  C1  UNL     1       6.849  58.390  63.716  1.00  0.00     0.040 C 
BRANCH  11  13
HETATM   13  N1  UNL     1       7.853  58.598  61.572  1.00  0.00    -0.075 N 
ATOM     14  H13 UNL     1       8.710  58.633  61.021  1.00  0.00     0.274 HD
ATOM     15  H12 UNL     1       7.297  58.069  60.900  1.00  0.00     0.274 HD
ATOM     16  H11 UNL     1       7.467  59.517  61.788  1.00  0.00     0.274 HD
ENDBRANCH  11  13
ENDBRANCH   9  11
ENDBRANCH   1   9
TORSDOF 3
ENDMDL
