MODEL 1
REMARK VINA RESULT: -6.238938400      0.000      0.000
REMARK  10 active torsions:
REMARK  status: ('A' for Active; 'I' for Inactive)
REMARK    1  A    between atoms: O1_2  and  N1_3 
REMARK    2  A    between atoms: C2_5  and  O2_6 
REMARK    3  A    between atoms: C2_5  and  C3_8 
REMARK    4  A    between atoms: C3_8  and  N2_9 
REMARK    5  A    between atoms: N2_9  and  C4_11 
REMARK    6  A    between atoms: C4_11  and  O3_15 
REMARK    7  A    between atoms: O3_15  and  C5_16 
REMARK    8  A    between atoms: C6_18  and  S1_19 
REMARK    9  A    between atoms: C7_22  and  C8_23 
REMARK   10  A    between atoms: C8_23  and  O6_24 
ROOT
HETATM    1  C4  UNL     1      44.337  58.792 172.483  1.00  0.00     0.215 C 
HETATM    2  N3  UNL     1      44.772  58.546 171.280  1.00  0.00    -0.365 N 
ATOM      3  H31 UNL     1      45.034  59.328 170.679  1.00  0.00     0.159 HD
ATOM      4  H32 UNL     1      44.823  57.564 171.011  1.00  0.00     0.159 HD
ENDROOT
BRANCH   1   5
HETATM    5  N2  UNL     1      43.972  57.705 173.319  1.00  0.00    -0.349 N 
ATOM      6  H2  UNL     1      44.672  57.350 173.971  1.00  0.00     0.163 HD
BRANCH   5   7
HETATM    7  C3  UNL     1      42.689  57.073 173.310  1.00  0.00     0.209 C 
BRANCH   7   8
HETATM    8  C2  UNL     1      42.078  57.145 174.656  1.00  0.00     0.153 C 
HETATM    9  N1  UNL     1      41.498  58.215 175.066  1.00  0.00    -0.248 N 
ATOM     10  H1  UNL     1      41.474  59.014 174.432  1.00  0.00     0.196 HD
BRANCH   9  11
HETATM   11  O1  UNL     1      40.912  58.360 176.290  1.00  0.00    -0.283 OA
HETATM   12  C1  UNL     1      39.555  58.685 176.377  1.00  0.00     0.237 C 
ENDBRANCH   9  11
BRANCH   8  13
HETATM   13  O2  UNL     1      42.104  56.053 175.538  1.00  0.00    -0.347 OA
ATOM     14  H2  UNL     1      41.392  55.428 175.475  1.00  0.00     0.219 HD
ENDBRANCH   8  13
ENDBRANCH   7   8
ENDBRANCH   5   7
ENDBRANCH   1   5
BRANCH   1  15
HETATM   15  O3  UNL     1      44.269  60.107 172.843  1.00  0.00    -0.288 OA
BRANCH  15  16
HETATM   16  C5  UNL     1      43.320  61.020 172.410  1.00  0.00     0.304 C 
HETATM   17  O4  UNL     1      43.563  61.513 171.118  1.00  0.00    -0.318 OA
HETATM   18  C6  UNL     1      42.306  62.046 170.819  1.00  0.00     0.340 C 
HETATM   19  O5  UNL     1      41.432  61.070 171.173  1.00  0.00    -0.339 OA
HETATM   20  C7  UNL     1      41.905  60.570 172.373  1.00  0.00     0.204 C 
BRANCH  18  21
HETATM   21  S1  UNL     1      42.191  62.547 169.088  1.00  0.00    -0.025 SA
HETATM   22  S2  UNL     1      43.437  64.246 168.791  1.00  0.00    -0.008 SA
ENDBRANCH  18  21
BRANCH  20  23
HETATM   23  C8  UNL     1      41.046  61.147 173.495  1.00  0.00     0.201 C 
BRANCH  23  24
HETATM   24  O6  UNL     1      41.642  61.047 174.744  1.00  0.00    -0.398 OA
ATOM     25  H6  UNL     1      42.321  61.696 174.888  1.00  0.00     0.209 HD
ENDBRANCH  23  24
ENDBRANCH  20  23
ENDBRANCH  15  16
ENDBRANCH   1  15
TORSDOF 10
ENDMDL
MODEL 2
REMARK VINA RESULT: -6.040474378      1.983      2.797
REMARK  10 active torsions:
REMARK  status: ('A' for Active; 'I' for Inactive)
REMARK    1  A    between atoms: O1_2  and  N1_3 
REMARK    2  A    between atoms: C2_5  and  O2_6 
REMARK    3  A    between atoms: C2_5  and  C3_8 
REMARK    4  A    between atoms: C3_8  and  N2_9 
REMARK    5  A    between atoms: N2_9  and  C4_11 
REMARK    6  A    between atoms: C4_11  and  O3_15 
REMARK    7  A    between atoms: O3_15  and  C5_16 
REMARK    8  A    between atoms: C6_18  and  S1_19 
REMARK    9  A    between atoms: C7_22  and  C8_23 
REMARK   10  A    between atoms: C8_23  and  O6_24 
ROOT
HETATM    1  C4  UNL     1      43.152  60.300 172.682  1.00  0.00     0.215 C 
HETATM    2  N3  UNL     1      43.297  60.991 173.778  1.00  0.00    -0.365 N 
ATOM      3  H31 UNL     1      43.654  61.944 173.718  1.00  0.00     0.159 HD
ATOM      4  H32 UNL     1      43.037  60.519 174.645  1.00  0.00     0.159 HD
ENDROOT
BRANCH   1   5
HETATM    5  N2  UNL     1      42.655  58.973 172.765  1.00  0.00    -0.349 N 
ATOM      6  H2  UNL     1      41.663  58.849 172.971  1.00  0.00     0.163 HD
BRANCH   5   7
HETATM    7  C3  UNL     1      43.450  57.799 172.578  1.00  0.00     0.209 C 
BRANCH   7   8
HETATM    8  C2  UNL     1      43.230  56.855 173.696  1.00  0.00     0.153 C 
HETATM    9  N1  UNL     1      42.258  57.016 174.522  1.00  0.00    -0.248 N 
ATOM     10  H1  UNL     1      41.644  57.818 174.380  1.00  0.00     0.196 HD
BRANCH   9  11
HETATM   11  O1  UNL     1      41.990  56.191 175.574  1.00  0.00    -0.283 OA
HETATM   12  C1  UNL     1      41.076  56.589 176.554  1.00  0.00     0.237 C 
ENDBRANCH   9  11
BRANCH   8  13
HETATM   13  O2  UNL     1      44.068  55.747 173.903  1.00  0.00    -0.347 OA
ATOM     14  H2  UNL     1      43.995  55.028 173.287  1.00  0.00     0.219 HD
ENDBRANCH   8  13
ENDBRANCH   7   8
ENDBRANCH   5   7
ENDBRANCH   1   5
BRANCH   1  15
HETATM   15  O3  UNL     1      43.499  60.930 171.522  1.00  0.00    -0.288 OA
BRANCH  15  16
HETATM   16  C5  UNL     1      42.662  61.709 170.739  1.00  0.00     0.304 C 
HETATM   17  O4  UNL     1      43.272  62.876 170.252  1.00  0.00    -0.318 OA
HETATM   18  C6  UNL     1      42.379  63.211 169.230  1.00  0.00     0.340 C 
HETATM   19  O5  UNL     1      42.182  62.048 168.559  1.00  0.00    -0.339 OA
HETATM   20  C7  UNL     1      42.066  61.075 169.535  1.00  0.00     0.204 C 
BRANCH  18  21
HETATM   21  S1  UNL     1      43.016  64.556 168.207  1.00  0.00    -0.025 SA
HETATM   22  S2  UNL     1      41.829  64.689 166.447  1.00  0.00    -0.008 SA
ENDBRANCH  18  21
BRANCH  20  23
HETATM   23  C8  UNL     1      40.586  60.735 169.687  1.00  0.00     0.201 C 
BRANCH  23  24
HETATM   24  O6  UNL     1      39.999  60.309 168.503  1.00  0.00    -0.398 OA
ATOM     25  H6  UNL     1      39.078  60.535 168.440  1.00  0.00     0.209 HD
ENDBRANCH  23  24
ENDBRANCH  20  23
ENDBRANCH  15  16
ENDBRANCH   1  15
TORSDOF 10
ENDMDL
MODEL 3
REMARK VINA RESULT: -5.972852652      2.500      3.334
REMARK  10 active torsions:
REMARK  status: ('A' for Active; 'I' for Inactive)
REMARK    1  A    between atoms: O1_2  and  N1_3 
REMARK    2  A    between atoms: C2_5  and  O2_6 
REMARK    3  A    between atoms: C2_5  and  C3_8 
REMARK    4  A    between atoms: C3_8  and  N2_9 
REMARK    5  A    between atoms: N2_9  and  C4_11 
REMARK    6  A    between atoms: C4_11  and  O3_15 
REMARK    7  A    between atoms: O3_15  and  C5_16 
REMARK    8  A    between atoms: C6_18  and  S1_19 
REMARK    9  A    between atoms: C7_22  and  C8_23 
REMARK   10  A    between atoms: C8_23  and  O6_24 
ROOT
HETATM    1  C4  UNL     1      43.741  60.220 173.015  1.00  0.00     0.215 C 
HETATM    2  N3  UNL     1      43.369  60.861 174.086  1.00  0.00    -0.365 N 
ATOM      3  H31 UNL     1      43.039  61.822 173.998  1.00  0.00     0.159 HD
ATOM      4  H32 UNL     1      43.435  60.347 174.965  1.00  0.00     0.159 HD
ENDROOT
BRANCH   1   5
HETATM    5  N2  UNL     1      44.201  58.883 173.138  1.00  0.00    -0.349 N 
ATOM      6  H2  UNL     1      45.092  58.728 173.612  1.00  0.00     0.163 HD
BRANCH   5   7
HETATM    7  C3  UNL     1      43.502  57.738 172.643  1.00  0.00     0.209 C 
BRANCH   7   8
HETATM    8  C2  UNL     1      43.255  56.778 173.742  1.00  0.00     0.153 C 
HETATM    9  N1  UNL     1      42.307  56.966 174.589  1.00  0.00    -0.248 N 
ATOM     10  H1  UNL     1      41.730  57.800 174.477  1.00  0.00     0.196 HD
BRANCH   9  11
HETATM   11  O1  UNL     1      42.017  56.130 175.627  1.00  0.00    -0.283 OA
HETATM   12  C1  UNL     1      41.076  56.515 176.587  1.00  0.00     0.237 C 
ENDBRANCH   9  11
BRANCH   8  13
HETATM   13  O2  UNL     1      44.042  55.627 173.908  1.00  0.00    -0.347 OA
ATOM     14  H2  UNL     1      44.263  55.138 173.125  1.00  0.00     0.219 HD
ENDBRANCH   8  13
ENDBRANCH   7   8
ENDBRANCH   5   7
ENDBRANCH   1   5
BRANCH   1  15
HETATM   15  O3  UNL     1      43.654  60.907 171.840  1.00  0.00    -0.288 OA
BRANCH  15  16
HETATM   16  C5  UNL     1      42.540  60.972 171.017  1.00  0.00     0.304 C 
HETATM   17  O4  UNL     1      41.445  60.233 171.495  1.00  0.00    -0.318 OA
HETATM   18  C6  UNL     1      40.419  60.794 170.728  1.00  0.00     0.340 C 
HETATM   19  O5  UNL     1      40.613  62.133 170.832  1.00  0.00    -0.339 OA
HETATM   20  C7  UNL     1      41.980  62.317 170.727  1.00  0.00     0.204 C 
BRANCH  18  21
HETATM   21  S1  UNL     1      38.795  60.237 171.285  1.00  0.00    -0.025 SA
HETATM   22  S2  UNL     1      38.590  60.703 173.351  1.00  0.00    -0.008 SA
ENDBRANCH  18  21
BRANCH  20  23
HETATM   23  C8  UNL     1      42.282  62.819 169.318  1.00  0.00     0.201 C 
BRANCH  23  24
HETATM   24  O6  UNL     1      42.649  61.805 168.445  1.00  0.00    -0.398 OA
ATOM     25  H6  UNL     1      43.278  62.085 167.790  1.00  0.00     0.209 HD
ENDBRANCH  23  24
ENDBRANCH  20  23
ENDBRANCH  15  16
ENDBRANCH   1  15
TORSDOF 10
ENDMDL
MODEL 4
REMARK VINA RESULT: -5.847653498      4.439      7.429
REMARK  10 active torsions:
REMARK  status: ('A' for Active; 'I' for Inactive)
REMARK    1  A    between atoms: O1_2  and  N1_3 
REMARK    2  A    between atoms: C2_5  and  O2_6 
REMARK    3  A    between atoms: C2_5  and  C3_8 
REMARK    4  A    between atoms: C3_8  and  N2_9 
REMARK    5  A    between atoms: N2_9  and  C4_11 
REMARK    6  A    between atoms: C4_11  and  O3_15 
REMARK    7  A    between atoms: O3_15  and  C5_16 
REMARK    8  A    between atoms: C6_18  and  S1_19 
REMARK    9  A    between atoms: C7_22  and  C8_23 
REMARK   10  A    between atoms: C8_23  and  O6_24 
ROOT
HETATM    1  C4  UNL     1      42.661  62.477 169.846  1.00  0.00     0.215 C 
HETATM    2  N3  UNL     1      41.856  61.594 169.326  1.00  0.00    -0.365 N 
ATOM      3  H31 UNL     1      41.836  60.652 169.717  1.00  0.00     0.159 HD
ATOM      4  H32 UNL     1      41.285  61.912 168.543  1.00  0.00     0.159 HD
ENDROOT
BRANCH   1   5
HETATM    5  N2  UNL     1      42.690  63.788 169.303  1.00  0.00    -0.349 N 
ATOM      6  H2  UNL     1      42.365  64.554 169.893  1.00  0.00     0.163 HD
BRANCH   5   7
HETATM    7  C3  UNL     1      43.141  64.108 167.984  1.00  0.00     0.209 C 
BRANCH   7   8
HETATM    8  C2  UNL     1      41.984  64.354 167.096  1.00  0.00     0.153 C 
HETATM    9  N1  UNL     1      41.905  65.422 166.387  1.00  0.00    -0.248 N 
ATOM     10  H1  UNL     1      42.668  66.095 166.458  1.00  0.00     0.196 HD
BRANCH   9  11
HETATM   11  O1  UNL     1      40.873  65.721 165.546  1.00  0.00    -0.283 OA
HETATM   12  C1  UNL     1      40.621  67.051 165.200  1.00  0.00     0.237 C 
ENDBRANCH   9  11
BRANCH   8  13
HETATM   13  O2  UNL     1      40.927  63.435 166.989  1.00  0.00    -0.347 OA
ATOM     14  H2  UNL     1      40.655  63.189 166.113  1.00  0.00     0.219 HD
ENDBRANCH   8  13
ENDBRANCH   7   8
ENDBRANCH   5   7
ENDBRANCH   1   5
BRANCH   1  15
HETATM   15  O3  UNL     1      43.426  62.053 170.893  1.00  0.00    -0.288 OA
BRANCH  15  16
HETATM   16  C5  UNL     1      42.965  61.387 172.019  1.00  0.00     0.304 C 
HETATM   17  O4  UNL     1      41.629  61.680 172.337  1.00  0.00    -0.318 OA
HETATM   18  C6  UNL     1      41.345  60.618 173.201  1.00  0.00     0.340 C 
HETATM   19  O5  UNL     1      41.811  59.521 172.552  1.00  0.00    -0.339 OA
HETATM   20  C7  UNL     1      43.025  59.903 172.009  1.00  0.00     0.204 C 
BRANCH  18  21
HETATM   21  S1  UNL     1      39.587  60.545 173.606  1.00  0.00    -0.025 SA
HETATM   22  S2  UNL     1      38.543  61.901 172.343  1.00  0.00    -0.008 SA
ENDBRANCH  18  21
BRANCH  20  23
HETATM   23  C8  UNL     1      44.135  59.326 172.883  1.00  0.00     0.201 C 
BRANCH  23  24
HETATM   24  O6  UNL     1      45.261  58.955 172.161  1.00  0.00    -0.398 OA
ATOM     25  H6  UNL     1      45.267  58.034 171.925  1.00  0.00     0.209 HD
ENDBRANCH  23  24
ENDBRANCH  20  23
ENDBRANCH  15  16
ENDBRANCH   1  15
TORSDOF 10
ENDMDL
MODEL 5
REMARK VINA RESULT: -5.831466324      2.064      3.258
REMARK  10 active torsions:
REMARK  status: ('A' for Active; 'I' for Inactive)
REMARK    1  A    between atoms: O1_2  and  N1_3 
REMARK    2  A    between atoms: C2_5  and  O2_6 
REMARK    3  A    between atoms: C2_5  and  C3_8 
REMARK    4  A    between atoms: C3_8  and  N2_9 
REMARK    5  A    between atoms: N2_9  and  C4_11 
REMARK    6  A    between atoms: C4_11  and  O3_15 
REMARK    7  A    between atoms: O3_15  and  C5_16 
REMARK    8  A    between atoms: C6_18  and  S1_19 
REMARK    9  A    between atoms: C7_22  and  C8_23 
REMARK   10  A    between atoms: C8_23  and  O6_24 
ROOT
HETATM    1  C4  UNL     1      42.259  60.621 173.606  1.00  0.00     0.215 C 
HETATM    2  N3  UNL     1      42.070  60.752 174.888  1.00  0.00    -0.365 N 
ATOM      3  H31 UNL     1      41.120  60.877 175.239  1.00  0.00     0.159 HD
ATOM      4  H32 UNL     1      42.906  60.721 175.472  1.00  0.00     0.159 HD
ENDROOT
BRANCH   1   5
HETATM    5  N2  UNL     1      43.580  60.448 173.118  1.00  0.00    -0.349 N 
ATOM      6  H2  UNL     1      44.268  61.167 173.345  1.00  0.00     0.163 HD
BRANCH   5   7
HETATM    7  C3  UNL     1      44.013  59.337 172.329  1.00  0.00     0.209 C 
BRANCH   7   8
HETATM    8  C2  UNL     1      43.322  58.104 172.767  1.00  0.00     0.153 C 
HETATM    9  N1  UNL     1      43.810  57.361 173.695  1.00  0.00    -0.248 N 
ATOM     10  H1  UNL     1      44.692  57.652 174.119  1.00  0.00     0.196 HD
BRANCH   9  11
HETATM   11  O1  UNL     1      43.235  56.213 174.153  1.00  0.00    -0.283 OA
HETATM   12  C1  UNL     1      42.355  56.261 175.239  1.00  0.00     0.237 C 
ENDBRANCH   9  11
BRANCH   8  13
HETATM   13  O2  UNL     1      42.108  57.693 172.192  1.00  0.00    -0.347 OA
ATOM     14  H2  UNL     1      41.509  57.209 172.747  1.00  0.00     0.219 HD
ENDBRANCH   8  13
ENDBRANCH   7   8
ENDBRANCH   5   7
ENDBRANCH   1   5
BRANCH   1  15
HETATM   15  O3  UNL     1      41.141  60.663 172.825  1.00  0.00    -0.288 OA
BRANCH  15  16
HETATM   16  C5  UNL     1      41.016  61.335 171.619  1.00  0.00     0.304 C 
HETATM   17  O4  UNL     1      41.999  62.320 171.421  1.00  0.00    -0.318 OA
HETATM   18  C6  UNL     1      41.874  62.516 170.043  1.00  0.00     0.340 C 
HETATM   19  O5  UNL     1      41.853  61.263 169.523  1.00  0.00    -0.339 OA
HETATM   20  C7  UNL     1      41.051  60.524 170.375  1.00  0.00     0.204 C 
BRANCH  18  21
HETATM   21  S1  UNL     1      43.197  63.561 169.398  1.00  0.00    -0.025 SA
HETATM   22  S2  UNL     1      42.600  64.321 167.504  1.00  0.00    -0.008 SA
ENDBRANCH  18  21
BRANCH  20  23
HETATM   23  C8  UNL     1      39.688  60.355 169.712  1.00  0.00     0.201 C 
BRANCH  23  24
HETATM   24  O6  UNL     1      39.767  60.182 168.338  1.00  0.00    -0.398 OA
ATOM     25  H6  UNL     1      39.593  59.289 168.062  1.00  0.00     0.209 HD
ENDBRANCH  23  24
ENDBRANCH  20  23
ENDBRANCH  15  16
ENDBRANCH   1  15
TORSDOF 10
ENDMDL
