MODEL 1
REMARK VINA RESULT: -6.203277381      0.000      0.000
REMARK  9 active torsions:
REMARK  status: ('A' for Active; 'I' for Inactive)
REMARK    1  A    between atoms: N1_1  and  C1_5 
REMARK    2  A    between atoms: C4_8  and  O1_9 
REMARK    3  A    between atoms: C4_8  and  O2_11 
REMARK    4  A    between atoms: C5_13  and  S1_14 
REMARK    5  A    between atoms: S1_14  and  C6_15 
REMARK    6  A    between atoms: C6_15  and  C7_16 
REMARK    7  A    between atoms: C7_16  and  S2_17 
REMARK    8  A    between atoms: S2_17  and  S3_18 
REMARK    9  A    between atoms: S3_18  and  C8_19 
ROOT
HETATM    1  C1  UNL     1      42.191  61.196 170.136  1.00  0.00     0.202 C 
HETATM    2  C2  UNL     1      42.288  62.104 168.934  1.00  0.00     0.039 C 
HETATM    3  C3  UNL     1      40.894  62.240 168.380  1.00  0.00     0.071 C 
HETATM    4  C4  UNL     1      40.030  61.300 169.210  1.00  0.00     0.173 C 
HETATM    5  C5  UNL     1      40.739  61.325 170.532  1.00  0.00     0.139 C 
ENDROOT
BRANCH   5   6
HETATM    6  S1  UNL     1      40.255  59.967 171.611  1.00  0.00    -0.156 SA
BRANCH   6   7
HETATM    7  C6  UNL     1      39.817  60.625 173.244  1.00  0.00     0.085 C 
BRANCH   7   8
HETATM    8  C7  UNL     1      41.042  60.581 174.114  1.00  0.00     0.096 C 
BRANCH   8   9
HETATM    9  S2  UNL     1      41.104  59.054 175.103  1.00  0.00    -0.089 SA
BRANCH   9  10
HETATM   10  S3  UNL     1      42.185  57.537 174.093  1.00  0.00    -0.019 SA
BRANCH  10  11
HETATM   11  C8  UNL     1      43.499  58.216 173.093  1.00  0.00     0.180 C 
HETATM   12  N2  UNL     1      44.264  59.219 173.362  1.00  0.00    -0.264 N 
HETATM   13  N3  UNL     1      45.163  59.402 172.285  1.00  0.00    -0.007 NA
ATOM     14  H2  UNL     1      44.227  59.786 174.209  1.00  0.00     0.186 HD
HETATM   15  N4  UNL     1      45.093  58.316 171.419  1.00  0.00    -0.007 NA
HETATM   16  N5  UNL     1      43.881  57.712 171.821  1.00  0.00    -0.264 N 
ATOM     17  H5  UNL     1      43.360  57.020 171.281  1.00  0.00     0.186 HD
ENDBRANCH  10  11
ENDBRANCH   9  10
ENDBRANCH   8   9
ENDBRANCH   7   8
ENDBRANCH   6   7
ENDBRANCH   5   6
BRANCH   1  18
HETATM   18  N1  UNL     1      43.028  61.651 171.226  1.00  0.00    -0.074 N 
ATOM     19  H13 UNL     1      44.008  61.694 170.947  1.00  0.00     0.274 HD
ATOM     20  H12 UNL     1      42.874  62.639 171.423  1.00  0.00     0.274 HD
ATOM     21  H11 UNL     1      42.905  61.083 172.064  1.00  0.00     0.274 HD
ENDBRANCH   1  18
BRANCH   4  22
HETATM   22  O1  UNL     1      40.110  60.044 168.641  1.00  0.00    -0.364 OA
ATOM     23  H1  UNL     1      39.225  59.753 168.461  1.00  0.00     0.213 HD
ENDBRANCH   4  22
BRANCH   4  24
HETATM   24  O2  UNL     1      38.723  61.772 169.293  1.00  0.00    -0.364 OA
ATOM     25  H2  UNL     1      38.207  61.471 168.555  1.00  0.00     0.213 HD
ENDBRANCH   4  24
TORSDOF 9
ENDMDL
MODEL 2
REMARK VINA RESULT: -5.933065478      1.912      2.256
REMARK  9 active torsions:
REMARK  status: ('A' for Active; 'I' for Inactive)
REMARK    1  A    between atoms: N1_1  and  C1_5 
REMARK    2  A    between atoms: C4_8  and  O1_9 
REMARK    3  A    between atoms: C4_8  and  O2_11 
REMARK    4  A    between atoms: C5_13  and  S1_14 
REMARK    5  A    between atoms: S1_14  and  C6_15 
REMARK    6  A    between atoms: C6_15  and  C7_16 
REMARK    7  A    between atoms: C7_16  and  S2_17 
REMARK    8  A    between atoms: S2_17  and  S3_18 
REMARK    9  A    between atoms: S3_18  and  C8_19 
ROOT
HETATM    1  C1  UNL     1      40.059  61.604 169.956  1.00  0.00     0.202 C 
HETATM    2  C2  UNL     1      40.885  61.500 168.697  1.00  0.00     0.039 C 
HETATM    3  C3  UNL     1      42.327  61.452 169.128  1.00  0.00     0.071 C 
HETATM    4  C4  UNL     1      42.311  61.655 170.636  1.00  0.00     0.173 C 
HETATM    5  C5  UNL     1      40.989  61.051 171.009  1.00  0.00     0.139 C 
ENDROOT
BRANCH   5   6
HETATM    6  S1  UNL     1      40.439  61.532 172.656  1.00  0.00    -0.156 SA
BRANCH   6   7
HETATM    7  C6  UNL     1      39.137  60.397 173.208  1.00  0.00     0.085 C 
BRANCH   7   8
HETATM    8  C7  UNL     1      39.362  60.095 174.663  1.00  0.00     0.096 C 
BRANCH   8   9
HETATM    9  S2  UNL     1      41.132  59.902 175.041  1.00  0.00    -0.089 SA
BRANCH   9  10
HETATM   10  S3  UNL     1      41.902  58.122 174.188  1.00  0.00    -0.019 SA
BRANCH  10  11
HETATM   11  C8  UNL     1      43.334  58.442 173.171  1.00  0.00     0.180 C 
HETATM   12  N2  UNL     1      44.309  59.252 173.406  1.00  0.00    -0.264 N 
HETATM   13  N3  UNL     1      45.223  59.182 172.329  1.00  0.00    -0.007 NA
ATOM     14  H2  UNL     1      44.405  59.845 174.230  1.00  0.00     0.186 HD
HETATM   15  N4  UNL     1      44.904  58.109 171.505  1.00  0.00    -0.007 NA
HETATM   16  N5  UNL     1      43.586  57.814 171.922  1.00  0.00    -0.264 N 
ATOM     17  H5  UNL     1      42.919  57.240 171.406  1.00  0.00     0.186 HD
ENDBRANCH  10  11
ENDBRANCH   9  10
ENDBRANCH   8   9
ENDBRANCH   7   8
ENDBRANCH   6   7
ENDBRANCH   5   6
BRANCH   1  18
HETATM   18  N1  UNL     1      38.867  60.785 169.891  1.00  0.00    -0.074 N 
ATOM     19  H13 UNL     1      39.093  59.821 169.648  1.00  0.00     0.274 HD
ATOM     20  H12 UNL     1      38.474  60.629 170.818  1.00  0.00     0.274 HD
ATOM     21  H11 UNL     1      38.172  61.173 169.254  1.00  0.00     0.274 HD
ENDBRANCH   1  18
BRANCH   4  22
HETATM   22  O1  UNL     1      42.306  63.015 170.877  1.00  0.00    -0.364 OA
ATOM     23  H1  UNL     1      41.433  63.255 171.164  1.00  0.00     0.213 HD
ENDBRANCH   4  22
BRANCH   4  24
HETATM   24  O2  UNL     1      43.386  61.005 171.236  1.00  0.00    -0.364 OA
ATOM     25  H2  UNL     1      43.127  60.152 171.561  1.00  0.00     0.213 HD
ENDBRANCH   4  24
TORSDOF 9
ENDMDL
MODEL 3
REMARK VINA RESULT: -5.919249130      2.041      2.395
REMARK  9 active torsions:
REMARK  status: ('A' for Active; 'I' for Inactive)
REMARK    1  A    between atoms: N1_1  and  C1_5 
REMARK    2  A    between atoms: C4_8  and  O1_9 
REMARK    3  A    between atoms: C4_8  and  O2_11 
REMARK    4  A    between atoms: C5_13  and  S1_14 
REMARK    5  A    between atoms: S1_14  and  C6_15 
REMARK    6  A    between atoms: C6_15  and  C7_16 
REMARK    7  A    between atoms: C7_16  and  S2_17 
REMARK    8  A    between atoms: S2_17  and  S3_18 
REMARK    9  A    between atoms: S3_18  and  C8_19 
ROOT
HETATM    1  C1  UNL     1      43.410  64.011 168.612  1.00  0.00     0.202 C 
HETATM    2  C2  UNL     1      42.722  64.355 167.314  1.00  0.00     0.039 C 
HETATM    3  C3  UNL     1      41.480  63.507 167.243  1.00  0.00     0.071 C 
HETATM    4  C4  UNL     1      41.540  62.591 168.457  1.00  0.00     0.173 C 
HETATM    5  C5  UNL     1      42.284  63.443 169.443  1.00  0.00     0.139 C 
ENDROOT
BRANCH   5   6
HETATM    6  S1  UNL     1      42.935  62.500 170.832  1.00  0.00    -0.156 SA
BRANCH   6   7
HETATM    7  C6  UNL     1      41.716  62.490 172.175  1.00  0.00     0.085 C 
BRANCH   7   8
HETATM    8  C7  UNL     1      40.766  61.349 171.941  1.00  0.00     0.096 C 
BRANCH   8   9
HETATM    9  S2  UNL     1      40.123  60.683 173.509  1.00  0.00    -0.089 SA
BRANCH   9  10
HETATM   10  S3  UNL     1      41.446  59.243 174.323  1.00  0.00    -0.019 SA
BRANCH  10  11
HETATM   11  C8  UNL     1      42.923  59.069 173.336  1.00  0.00     0.180 C 
HETATM   12  N2  UNL     1      43.984  59.801 173.359  1.00  0.00    -0.264 N 
HETATM   13  N3  UNL     1      44.902  59.297 172.408  1.00  0.00    -0.007 NA
ATOM     14  H2  UNL     1      44.137  60.609 173.963  1.00  0.00     0.186 HD
HETATM   15  N4  UNL     1      44.470  58.060 171.942  1.00  0.00    -0.007 NA
HETATM   16  N5  UNL     1      43.119  58.057 172.359  1.00  0.00    -0.264 N 
ATOM     17  H5  UNL     1      42.398  57.425 172.011  1.00  0.00     0.186 HD
ENDBRANCH  10  11
ENDBRANCH   9  10
ENDBRANCH   8   9
ENDBRANCH   7   8
ENDBRANCH   6   7
ENDBRANCH   5   6
BRANCH   1  18
HETATM   18  N1  UNL     1      43.946  65.184 169.268  1.00  0.00    -0.074 N 
ATOM     19  H13 UNL     1      43.271  65.949 169.270  1.00  0.00     0.274 HD
ATOM     20  H12 UNL     1      44.028  65.041 170.274  1.00  0.00     0.274 HD
ATOM     21  H11 UNL     1      44.834  65.476 168.863  1.00  0.00     0.274 HD
ENDBRANCH   1  18
BRANCH   4  22
HETATM   22  O1  UNL     1      42.290  61.484 168.112  1.00  0.00    -0.364 OA
ATOM     23  H1  UNL     1      42.839  61.265 168.854  1.00  0.00     0.213 HD
ENDBRANCH   4  22
BRANCH   4  24
HETATM   24  O2  UNL     1      40.259  62.261 168.893  1.00  0.00    -0.364 OA
ATOM     25  H2  UNL     1      40.230  62.194 169.840  1.00  0.00     0.213 HD
ENDBRANCH   4  24
TORSDOF 9
ENDMDL
MODEL 4
REMARK VINA RESULT: -5.804214832      2.361      2.884
REMARK  9 active torsions:
REMARK  status: ('A' for Active; 'I' for Inactive)
REMARK    1  A    between atoms: N1_1  and  C1_5 
REMARK    2  A    between atoms: C4_8  and  O1_9 
REMARK    3  A    between atoms: C4_8  and  O2_11 
REMARK    4  A    between atoms: C5_13  and  S1_14 
REMARK    5  A    between atoms: S1_14  and  C6_15 
REMARK    6  A    between atoms: C6_15  and  C7_16 
REMARK    7  A    between atoms: C7_16  and  S2_17 
REMARK    8  A    between atoms: S2_17  and  S3_18 
REMARK    9  A    between atoms: S3_18  and  C8_19 
ROOT
HETATM    1  C1  UNL     1      41.212  62.197 169.002  1.00  0.00     0.202 C 
HETATM    2  C2  UNL     1      41.086  62.932 167.690  1.00  0.00     0.039 C 
HETATM    3  C3  UNL     1      42.324  63.777 167.546  1.00  0.00     0.071 C 
HETATM    4  C4  UNL     1      43.091  63.605 168.850  1.00  0.00     0.173 C 
HETATM    5  C5  UNL     1      42.702  62.213 169.249  1.00  0.00     0.139 C 
ENDROOT
BRANCH   5   6
HETATM    6  S1  UNL     1      43.062  61.853 170.976  1.00  0.00    -0.156 SA
BRANCH   6   7
HETATM    7  C6  UNL     1      41.618  62.273 171.990  1.00  0.00     0.085 C 
BRANCH   7   8
HETATM    8  C7  UNL     1      41.871  61.795 173.392  1.00  0.00     0.096 C 
BRANCH   8   9
HETATM    9  S2  UNL     1      40.733  60.453 173.857  1.00  0.00    -0.089 SA
BRANCH   9  10
HETATM   10  S3  UNL     1      41.784  58.641 174.177  1.00  0.00    -0.019 SA
BRANCH  10  11
HETATM   11  C8  UNL     1      43.219  58.516 173.124  1.00  0.00     0.180 C 
HETATM   12  N2  UNL     1      43.371  57.785 172.071  1.00  0.00    -0.264 N 
HETATM   13  N3  UNL     1      44.669  58.003 171.553  1.00  0.00    -0.007 NA
ATOM     14  H2  UNL     1      42.672  57.155 171.678  1.00  0.00     0.186 HD
HETATM   15  N4  UNL     1      45.257  59.091 172.190  1.00  0.00    -0.007 NA
HETATM   16  N5  UNL     1      44.426  59.238 173.324  1.00  0.00    -0.264 N 
ATOM     17  H5  UNL     1      44.657  59.778 174.158  1.00  0.00     0.186 HD
ENDBRANCH  10  11
ENDBRANCH   9  10
ENDBRANCH   8   9
ENDBRANCH   7   8
ENDBRANCH   6   7
ENDBRANCH   5   6
BRANCH   1  18
HETATM   18  N1  UNL     1      40.756  60.827 168.901  1.00  0.00    -0.074 N 
ATOM     19  H13 UNL     1      39.983  60.742 168.242  1.00  0.00     0.274 HD
ATOM     20  H12 UNL     1      41.441  60.244 168.421  1.00  0.00     0.274 HD
ATOM     21  H11 UNL     1      40.512  60.438 169.811  1.00  0.00     0.274 HD
ENDBRANCH   1  18
BRANCH   4  22
HETATM   22  O1  UNL     1      42.595  64.524 169.753  1.00  0.00    -0.364 OA
ATOM     23  H1  UNL     1      42.884  64.263 170.619  1.00  0.00     0.213 HD
ENDBRANCH   4  22
BRANCH   4  24
HETATM   24  O2  UNL     1      44.461  63.741 168.640  1.00  0.00    -0.364 OA
ATOM     25  H2  UNL     1      44.937  63.665 169.458  1.00  0.00     0.213 HD
ENDBRANCH   4  24
TORSDOF 9
ENDMDL
MODEL 5
REMARK VINA RESULT: -5.782684084      5.827      7.913
REMARK  9 active torsions:
REMARK  status: ('A' for Active; 'I' for Inactive)
REMARK    1  A    between atoms: N1_1  and  C1_5 
REMARK    2  A    between atoms: C4_8  and  O1_9 
REMARK    3  A    between atoms: C4_8  and  O2_11 
REMARK    4  A    between atoms: C5_13  and  S1_14 
REMARK    5  A    between atoms: S1_14  and  C6_15 
REMARK    6  A    between atoms: C6_15  and  C7_16 
REMARK    7  A    between atoms: C7_16  and  S2_17 
REMARK    8  A    between atoms: S2_17  and  S3_18 
REMARK    9  A    between atoms: S3_18  and  C8_19 
ROOT
HETATM    1  C1  UNL     1      38.984  55.903 178.849  1.00  0.00     0.202 C 
HETATM    2  C2  UNL     1      38.915  55.879 180.356  1.00  0.00     0.039 C 
HETATM    3  C3  UNL     1      39.863  56.939 180.852  1.00  0.00     0.071 C 
HETATM    4  C4  UNL     1      40.559  57.477 179.610  1.00  0.00     0.173 C 
HETATM    5  C5  UNL     1      39.500  57.294 178.564  1.00  0.00     0.139 C 
ENDROOT
BRANCH   5   6
HETATM    6  S1  UNL     1      40.145  57.399 176.886  1.00  0.00    -0.156 SA
BRANCH   6   7
HETATM    7  C6  UNL     1      40.085  59.123 176.327  1.00  0.00     0.085 C 
BRANCH   7   8
HETATM    8  C7  UNL     1      40.891  59.236 175.063  1.00  0.00     0.096 C 
BRANCH   8   9
HETATM    9  S2  UNL     1      40.095  60.347 173.860  1.00  0.00    -0.089 SA
BRANCH   9  10
HETATM   10  S3  UNL     1      41.307  60.602 172.142  1.00  0.00    -0.019 SA
BRANCH  10  11
HETATM   11  C8  UNL     1      42.981  60.051 172.426  1.00  0.00     0.180 C 
HETATM   12  N2  UNL     1      43.690  60.186 173.495  1.00  0.00    -0.264 N 
HETATM   13  N3  UNL     1      44.957  59.598 173.273  1.00  0.00    -0.007 NA
ATOM     14  H2  UNL     1      43.388  60.640 174.357  1.00  0.00     0.186 HD
HETATM   15  N4  UNL     1      44.940  58.869 172.089  1.00  0.00    -0.007 NA
HETATM   16  N5  UNL     1      43.773  59.366 171.467  1.00  0.00    -0.264 N 
ATOM     17  H5  UNL     1      43.536  59.250 170.482  1.00  0.00     0.186 HD
ENDBRANCH  10  11
ENDBRANCH   9  10
ENDBRANCH   8   9
ENDBRANCH   7   8
ENDBRANCH   6   7
ENDBRANCH   5   6
BRANCH   1  18
HETATM   18  N1  UNL     1      37.679  55.742 178.245  1.00  0.00    -0.074 N 
ATOM     19  H13 UNL     1      37.601  54.845 177.766  1.00  0.00     0.274 HD
ATOM     20  H12 UNL     1      36.957  55.610 178.953  1.00  0.00     0.274 HD
ATOM     21  H11 UNL     1      37.449  56.516 177.622  1.00  0.00     0.274 HD
ENDBRANCH   1  18
BRANCH   4  22
HETATM   22  O1  UNL     1      41.643  56.661 179.349  1.00  0.00    -0.364 OA
ATOM     23  H1  UNL     1      41.307  55.814 179.081  1.00  0.00     0.213 HD
ENDBRANCH   4  22
BRANCH   4  24
HETATM   24  O2  UNL     1      40.919  58.812 179.782  1.00  0.00    -0.364 OA
ATOM     25  H2  UNL     1      41.033  59.242 178.943  1.00  0.00     0.213 HD
ENDBRANCH   4  24
TORSDOF 9
ENDMDL
