MODEL 1
REMARK VINA RESULT: -4.761717356      0.000      0.000
REMARK  5 active torsions:
REMARK  status: ('A' for Active; 'I' for Inactive)
REMARK    1  A    between atoms: N1_1  and  C1_5 
REMARK    2  A    between atoms: C1_5  and  O1_6 
REMARK    3  A    between atoms: C1_5  and  C2_8 
REMARK    4  A    between atoms: C2_8  and  N2_9 
REMARK    5  A    between atoms: C2_8  and  C3_13 
ROOT
HETATM    1  C2  UNL     1      21.378  -1.519   7.083  1.00  0.00     0.291 C 
ENDROOT
BRANCH   1   2
HETATM    2  C1  UNL     1      20.493  -1.249   5.913  1.00  0.00     0.353 C 
BRANCH   2   3
HETATM    3  N1  UNL     1      21.194  -0.263   5.075  1.00  0.00    -0.051 N 
ATOM      4  H13 UNL     1      20.831   0.681   5.208  1.00  0.00     0.277 HD
ATOM      5  H12 UNL     1      22.150  -0.100   5.391  1.00  0.00     0.277 HD
ATOM      6  H11 UNL     1      21.156  -0.554   4.098  1.00  0.00     0.277 HD
ENDBRANCH   2   3
BRANCH   2   7
HETATM    7  O1  UNL     1      19.242  -0.768   6.251  1.00  0.00    -0.368 OA
ATOM      8  H1  UNL     1      19.196  -0.630   7.190  1.00  0.00     0.212 HD
ENDBRANCH   2   7
ENDBRANCH   1   2
BRANCH   1   9
HETATM    9  N2  UNL     1      22.474  -2.369   6.604  1.00  0.00    -0.065 N 
ATOM     10  H23 UNL     1      22.401  -2.596   5.612  1.00  0.00     0.275 HD
ATOM     11  H22 UNL     1      23.369  -1.882   6.560  1.00  0.00     0.275 HD
ATOM     12  H21 UNL     1      22.495  -3.194   7.203  1.00  0.00     0.275 HD
ENDBRANCH   1   9
BRANCH   1  13
HETATM   13  C3  UNL     1      20.721  -2.245   8.175  1.00  0.00     0.078 A 
HETATM   14  C4  UNL     1      20.746  -3.578   8.528  1.00  0.00     0.137 A 
HETATM   15  N3  UNL     1      19.971  -3.726   9.612  1.00  0.00    -0.296 N 
HETATM   16  N4  UNL     1      19.467  -2.536   9.945  1.00  0.00    -0.243 N 
ATOM     17  H3  UNL     1      19.795  -4.603  10.101  1.00  0.00     0.187 HD
HETATM   18  N5  UNL     1      19.921  -1.653   9.079  1.00  0.00    -0.287 N 
ATOM     19  H4  UNL     1      18.844  -2.344  10.728  1.00  0.00     0.208 HD
ATOM     20  H5  UNL     1      19.696  -0.658   9.093  1.00  0.00     0.188 HD
ENDBRANCH   1  13
TORSDOF 5
ENDMDL
MODEL 2
REMARK VINA RESULT: -4.546223554      1.610      4.450
REMARK  5 active torsions:
REMARK  status: ('A' for Active; 'I' for Inactive)
REMARK    1  A    between atoms: N1_1  and  C1_5 
REMARK    2  A    between atoms: C1_5  and  O1_6 
REMARK    3  A    between atoms: C1_5  and  C2_8 
REMARK    4  A    between atoms: C2_8  and  N2_9 
REMARK    5  A    between atoms: C2_8  and  C3_13 
ROOT
HETATM    1  C2  UNL     1      21.965  -2.036   6.200  1.00  0.00     0.291 C 
ENDROOT
BRANCH   1   2
HETATM    2  C1  UNL     1      20.994  -1.690   7.277  1.00  0.00     0.353 C 
BRANCH   2   3
HETATM    3  N1  UNL     1      21.071  -2.765   8.277  1.00  0.00    -0.051 N 
ATOM      4  H13 UNL     1      20.479  -3.559   8.034  1.00  0.00     0.277 HD
ATOM      5  H12 UNL     1      21.973  -3.243   8.258  1.00  0.00     0.277 HD
ATOM      6  H11 UNL     1      20.854  -2.392   9.201  1.00  0.00     0.277 HD
ENDBRANCH   2   3
BRANCH   2   7
HETATM    7  O1  UNL     1      19.690  -1.555   6.837  1.00  0.00    -0.368 OA
ATOM      8  H1  UNL     1      19.679  -1.457   5.892  1.00  0.00     0.212 HD
ENDBRANCH   2   7
ENDBRANCH   1   2
BRANCH   1   9
HETATM    9  N2  UNL     1      23.306  -1.960   6.792  1.00  0.00    -0.065 N 
ATOM     10  H23 UNL     1      23.664  -2.867   7.091  1.00  0.00     0.275 HD
ATOM     11  H22 UNL     1      24.035  -1.750   6.110  1.00  0.00     0.275 HD
ATOM     12  H21 UNL     1      23.259  -1.279   7.550  1.00  0.00     0.275 HD
ENDBRANCH   1   9
BRANCH   1  13
HETATM   13  C3  UNL     1      21.950  -1.115   5.059  1.00  0.00     0.078 A 
HETATM   14  C4  UNL     1      22.743  -1.046   3.932  1.00  0.00     0.137 A 
HETATM   15  N3  UNL     1      22.312  -0.012   3.196  1.00  0.00    -0.296 N 
HETATM   16  N4  UNL     1      21.283   0.562   3.822  1.00  0.00    -0.243 N 
ATOM     17  H3  UNL     1      22.706   0.286   2.304  1.00  0.00     0.187 HD
HETATM   18  N5  UNL     1      21.072  -0.103   4.938  1.00  0.00    -0.287 N 
ATOM     19  H4  UNL     1      20.755   1.370   3.494  1.00  0.00     0.208 HD
ATOM     20  H5  UNL     1      20.343   0.117   5.617  1.00  0.00     0.188 HD
ENDBRANCH   1  13
TORSDOF 5
ENDMDL
MODEL 3
REMARK VINA RESULT: -4.542285213      0.881      1.197
REMARK  5 active torsions:
REMARK  status: ('A' for Active; 'I' for Inactive)
REMARK    1  A    between atoms: N1_1  and  C1_5 
REMARK    2  A    between atoms: C1_5  and  O1_6 
REMARK    3  A    between atoms: C1_5  and  C2_8 
REMARK    4  A    between atoms: C2_8  and  N2_9 
REMARK    5  A    between atoms: C2_8  and  C3_13 
ROOT
HETATM    1  C2  UNL     1      21.812  -1.626   7.227  1.00  0.00     0.291 C 
ENDROOT
BRANCH   1   2
HETATM    2  C1  UNL     1      20.875  -1.480   6.076  1.00  0.00     0.353 C 
BRANCH   2   3
HETATM    3  N1  UNL     1      21.506  -0.541   5.135  1.00  0.00    -0.051 N 
ATOM      4  H13 UNL     1      21.975  -1.022   4.368  1.00  0.00     0.277 HD
ATOM      5  H12 UNL     1      20.818  -0.025   4.586  1.00  0.00     0.277 HD
ATOM      6  H11 UNL     1      22.137   0.081   5.641  1.00  0.00     0.277 HD
ENDBRANCH   2   3
BRANCH   2   7
HETATM    7  O1  UNL     1      19.620  -1.016   6.425  1.00  0.00    -0.368 OA
ATOM      8  H1  UNL     1      19.191  -0.649   5.661  1.00  0.00     0.212 HD
ENDBRANCH   2   7
ENDBRANCH   1   2
BRANCH   1   9
HETATM    9  N2  UNL     1      22.872  -2.548   6.802  1.00  0.00    -0.065 N 
ATOM     10  H23 UNL     1      22.592  -3.528   6.845  1.00  0.00     0.275 HD
ATOM     11  H22 UNL     1      23.058  -2.511   5.799  1.00  0.00     0.275 HD
ATOM     12  H21 UNL     1      23.693  -2.340   7.370  1.00  0.00     0.275 HD
ENDBRANCH   1   9
BRANCH   1  13
HETATM   13  C3  UNL     1      21.200  -2.204   8.428  1.00  0.00     0.078 A 
HETATM   14  C4  UNL     1      21.067  -1.712   9.710  1.00  0.00     0.137 A 
HETATM   15  N3  UNL     1      20.427  -2.639  10.436  1.00  0.00    -0.296 N 
HETATM   16  N4  UNL     1      20.157  -3.686   9.653  1.00  0.00    -0.243 N 
ATOM     17  H3  UNL     1      20.186  -2.557  11.423  1.00  0.00     0.187 HD
HETATM   18  N5  UNL     1      20.623  -3.419   8.452  1.00  0.00    -0.287 N 
ATOM     19  H4  UNL     1      19.675  -4.539   9.936  1.00  0.00     0.208 HD
ATOM     20  H5  UNL     1      20.557  -4.045   7.650  1.00  0.00     0.188 HD
ENDBRANCH   1  13
TORSDOF 5
ENDMDL
MODEL 4
REMARK VINA RESULT: -4.468640064      2.008      2.181
REMARK  5 active torsions:
REMARK  status: ('A' for Active; 'I' for Inactive)
REMARK    1  A    between atoms: N1_1  and  C1_5 
REMARK    2  A    between atoms: C1_5  and  O1_6 
REMARK    3  A    between atoms: C1_5  and  C2_8 
REMARK    4  A    between atoms: C2_8  and  N2_9 
REMARK    5  A    between atoms: C2_8  and  C3_13 
ROOT
HETATM    1  C2  UNL     1      21.383  -2.202   6.746  1.00  0.00     0.291 C 
ENDROOT
BRANCH   1   2
HETATM    2  C1  UNL     1      22.754  -1.697   6.449  1.00  0.00     0.353 C 
BRANCH   2   3
HETATM    3  N1  UNL     1      22.838  -1.541   4.988  1.00  0.00    -0.051 N 
ATOM      4  H13 UNL     1      22.575  -0.603   4.687  1.00  0.00     0.277 HD
ATOM      5  H12 UNL     1      23.803  -1.537   4.657  1.00  0.00     0.277 HD
ATOM      6  H11 UNL     1      22.279  -2.262   4.533  1.00  0.00     0.277 HD
ENDBRANCH   2   3
BRANCH   2   7
HETATM    7  O1  UNL     1      23.768  -2.529   6.887  1.00  0.00    -0.368 OA
ATOM      8  H1  UNL     1      24.100  -2.215   7.720  1.00  0.00     0.212 HD
ENDBRANCH   2   7
ENDBRANCH   1   2
BRANCH   1   9
HETATM    9  N2  UNL     1      20.438  -1.194   6.250  1.00  0.00    -0.065 N 
ATOM     10  H23 UNL     1      19.761  -0.899   6.953  1.00  0.00     0.275 HD
ATOM     11  H22 UNL     1      20.869  -0.282   6.094  1.00  0.00     0.275 HD
ATOM     12  H21 UNL     1      20.003  -1.580   5.411  1.00  0.00     0.275 HD
ENDBRANCH   1   9
BRANCH   1  13
HETATM   13  C3  UNL     1      21.106  -2.379   8.175  1.00  0.00     0.078 A 
HETATM   14  C4  UNL     1      20.401  -3.352   8.854  1.00  0.00     0.137 A 
HETATM   15  N3  UNL     1      20.447  -3.050  10.159  1.00  0.00    -0.296 N 
HETATM   16  N4  UNL     1      21.152  -1.928  10.316  1.00  0.00    -0.243 N 
ATOM     17  H3  UNL     1      20.013  -3.589  10.908  1.00  0.00     0.187 HD
HETATM   18  N5  UNL     1      21.543  -1.531   9.123  1.00  0.00    -0.287 N 
ATOM     19  H4  UNL     1      21.352  -1.462  11.200  1.00  0.00     0.208 HD
ATOM     20  H5  UNL     1      22.101  -0.697   8.943  1.00  0.00     0.188 HD
ENDBRANCH   1  13
TORSDOF 5
ENDMDL
MODEL 5
REMARK VINA RESULT: -4.367711577      2.510      3.147
REMARK  5 active torsions:
REMARK  status: ('A' for Active; 'I' for Inactive)
REMARK    1  A    between atoms: N1_1  and  C1_5 
REMARK    2  A    between atoms: C1_5  and  O1_6 
REMARK    3  A    between atoms: C1_5  and  C2_8 
REMARK    4  A    between atoms: C2_8  and  N2_9 
REMARK    5  A    between atoms: C2_8  and  C3_13 
ROOT
HETATM    1  C2  UNL     1      22.680  -0.852   4.332  1.00  0.00     0.291 C 
ENDROOT
BRANCH   1   2
HETATM    2  C1  UNL     1      21.672   0.057   3.715  1.00  0.00     0.353 C 
BRANCH   2   3
HETATM    3  N1  UNL     1      22.255   0.539   2.453  1.00  0.00    -0.051 N 
ATOM      4  H13 UNL     1      23.245   0.304   2.374  1.00  0.00     0.277 HD
ATOM      5  H12 UNL     1      21.914   0.014   1.647  1.00  0.00     0.277 HD
ATOM      6  H11 UNL     1      22.089   1.540   2.358  1.00  0.00     0.277 HD
ENDBRANCH   2   3
BRANCH   2   7
HETATM    7  O1  UNL     1      21.325   1.135   4.509  1.00  0.00    -0.368 OA
ATOM      8  H1  UNL     1      20.558   0.917   5.026  1.00  0.00     0.212 HD
ENDBRANCH   2   7
ENDBRANCH   1   2
BRANCH   1   9
HETATM    9  N2  UNL     1      22.857  -1.982   3.412  1.00  0.00    -0.065 N 
ATOM     10  H23 UNL     1      22.566  -2.874   3.812  1.00  0.00     0.275 HD
ATOM     11  H22 UNL     1      22.201  -1.970   2.631  1.00  0.00     0.275 HD
ATOM     12  H21 UNL     1      23.833  -1.975   3.116  1.00  0.00     0.275 HD
ENDBRANCH   1   9
BRANCH   1  13
HETATM   13  C3  UNL     1      22.270  -1.414   5.623  1.00  0.00     0.078 A 
HETATM   14  C4  UNL     1      22.995  -2.033   6.620  1.00  0.00     0.137 A 
HETATM   15  N3  UNL     1      22.141  -2.363   7.599  1.00  0.00    -0.296 N 
HETATM   16  N4  UNL     1      20.914  -1.971   7.248  1.00  0.00    -0.243 N 
ATOM     17  H3  UNL     1      22.388  -2.835   8.468  1.00  0.00     0.187 HD
HETATM   18  N5  UNL     1      20.999  -1.404   6.063  1.00  0.00    -0.287 N 
ATOM     19  H4  UNL     1      20.064  -2.090   7.799  1.00  0.00     0.208 HD
ATOM     20  H5  UNL     1      20.210  -1.012   5.549  1.00  0.00     0.188 HD
ENDBRANCH   1  13
TORSDOF 5
ENDMDL
