MODEL 1
REMARK VINA RESULT: -4.877133805      0.000      0.000
REMARK  4 active torsions:
REMARK  status: ('A' for Active; 'I' for Inactive)
REMARK    1  A    between atoms: N1_1  and  C1_4 
REMARK    2  A    between atoms: C1_4  and  N2_5 
REMARK    3  A    between atoms: N2_5  and  N3_7 
REMARK    4  A    between atoms: N3_7  and  C2_9 
ROOT
HETATM    1  C2  UNL     1      21.350  -1.572   6.782  1.00  0.00     0.152 A 
HETATM    2  N4  UNL     1      22.437  -2.253   7.193  1.00  0.00    -0.336 N 
ATOM      3  H4  UNL     1      22.368  -2.775   8.067  1.00  0.00     0.168 HD
HETATM    4  C3  UNL     1      23.589  -2.293   6.541  1.00  0.00     0.183 A 
HETATM    5  N5  UNL     1      23.707  -1.606   5.378  1.00  0.00    -0.337 N 
ATOM      6  H5  UNL     1      24.586  -1.621   4.860  1.00  0.00     0.168 HD
HETATM    7  C4  UNL     1      22.655  -0.904   4.912  1.00  0.00     0.138 A 
HETATM    8  N6  UNL     1      22.517  -0.162   3.802  1.00  0.00    -0.337 N 
ATOM      9  H6  UNL     1      23.235   0.001   3.096  1.00  0.00     0.168 HD
HETATM   10  C5  UNL     1      21.259   0.332   3.787  1.00  0.00     0.182 A 
HETATM   11  N7  UNL     1      20.647  -0.103   4.866  1.00  0.00    -0.346 N 
ATOM     12  H7  UNL     1      19.681   0.116   5.112  1.00  0.00     0.167 HD
HETATM   13  C6  UNL     1      21.467  -0.877   5.603  1.00  0.00     0.123 A 
ENDROOT
BRANCH   1  14
HETATM   14  N3  UNL     1      20.141  -1.586   7.525  1.00  0.00    -0.283 N 
ATOM     15  H3  UNL     1      19.276  -1.631   6.988  1.00  0.00     0.188 HD
BRANCH  14  16
HETATM   16  N2  UNL     1      20.015  -1.546   8.903  1.00  0.00    -0.295 N 
ATOM     17  H2  UNL     1      20.140  -0.648   9.371  1.00  0.00     0.187 HD
BRANCH  16  18
HETATM   18  C1  UNL     1      19.722  -2.677   9.701  1.00  0.00     0.190 C 
BRANCH  18  19
HETATM   19  N1  UNL     1      20.076  -3.847   9.395  1.00  0.00    -0.394 N 
ATOM     20  H12 UNL     1      20.145  -4.528  10.152  1.00  0.00     0.156 HD
ATOM     21  H11 UNL     1      20.292  -4.135   8.441  1.00  0.00     0.156 HD
ENDBRANCH  18  19
ENDBRANCH  16  18
ENDBRANCH  14  16
ENDBRANCH   1  14
TORSDOF 4
ENDMDL
MODEL 2
REMARK VINA RESULT: -4.833705760      3.855      6.919
REMARK  4 active torsions:
REMARK  status: ('A' for Active; 'I' for Inactive)
REMARK    1  A    between atoms: N1_1  and  C1_4 
REMARK    2  A    between atoms: C1_4  and  N2_5 
REMARK    3  A    between atoms: N2_5  and  N3_7 
REMARK    4  A    between atoms: N3_7  and  C2_9 
ROOT
HETATM    1  C2  UNL     1      23.041  -1.557   1.191  1.00  0.00     0.152 A 
HETATM    2  N4  UNL     1      22.599  -0.944   0.076  1.00  0.00    -0.336 N 
ATOM      3  H4  UNL     1      22.890  -1.327  -0.823  1.00  0.00     0.168 HD
HETATM    4  C3  UNL     1      21.814   0.123   0.066  1.00  0.00     0.183 A 
HETATM    5  N5  UNL     1      21.415   0.653   1.248  1.00  0.00    -0.337 N 
ATOM      6  H5  UNL     1      20.812   1.475   1.264  1.00  0.00     0.168 HD
HETATM    7  C4  UNL     1      21.822   0.085   2.402  1.00  0.00     0.138 A 
HETATM    8  N6  UNL     1      21.563   0.409   3.678  1.00  0.00    -0.337 N 
ATOM      9  H6  UNL     1      20.985   1.188   3.995  1.00  0.00     0.168 HD
HETATM   10  C5  UNL     1      22.205  -0.480   4.469  1.00  0.00     0.182 A 
HETATM   11  N7  UNL     1      22.839  -1.325   3.687  1.00  0.00    -0.346 N 
ATOM     12  H7  UNL     1      23.407  -2.105   4.018  1.00  0.00     0.167 HD
HETATM   13  C6  UNL     1      22.636  -1.022   2.390  1.00  0.00     0.123 A 
ENDROOT
BRANCH   1  14
HETATM   14  N3  UNL     1      23.869  -2.707   1.127  1.00  0.00    -0.283 N 
ATOM     15  H3  UNL     1      23.440  -3.594   1.387  1.00  0.00     0.188 HD
BRANCH  14  16
HETATM   16  N2  UNL     1      25.200  -2.749   0.748  1.00  0.00    -0.295 N 
ATOM     17  H2  UNL     1      25.888  -2.312   1.360  1.00  0.00     0.187 HD
BRANCH  16  18
HETATM   18  C1  UNL     1      25.661  -3.363  -0.441  1.00  0.00     0.190 C 
BRANCH  18  19
HETATM   19  N1  UNL     1      26.408  -4.377  -0.449  1.00  0.00    -0.394 N 
ATOM     20  H12 UNL     1      26.946  -4.570   0.396  1.00  0.00     0.156 HD
ATOM     21  H11 UNL     1      26.495  -5.002  -1.251  1.00  0.00     0.156 HD
ENDBRANCH  18  19
ENDBRANCH  16  18
ENDBRANCH  14  16
ENDBRANCH   1  14
TORSDOF 4
ENDMDL
MODEL 3
REMARK VINA RESULT: -4.746947213      1.164      2.372
REMARK  4 active torsions:
REMARK  status: ('A' for Active; 'I' for Inactive)
REMARK    1  A    between atoms: N1_1  and  C1_4 
REMARK    2  A    between atoms: C1_4  and  N2_5 
REMARK    3  A    between atoms: N2_5  and  N3_7 
REMARK    4  A    between atoms: N3_7  and  C2_9 
ROOT
HETATM    1  C2  UNL     1      21.128  -1.645   6.469  1.00  0.00     0.152 A 
HETATM    2  N4  UNL     1      19.940  -1.043   6.672  1.00  0.00    -0.336 N 
ATOM      3  H4  UNL     1      19.393  -1.333   7.483  1.00  0.00     0.168 HD
HETATM    4  C3  UNL     1      19.432  -0.101   5.891  1.00  0.00     0.183 A 
HETATM    5  N5  UNL     1      20.139   0.300   4.806  1.00  0.00    -0.337 N 
ATOM      6  H5  UNL     1      19.767   1.023   4.190  1.00  0.00     0.168 HD
HETATM    7  C4  UNL     1      21.336  -0.263   4.547  1.00  0.00     0.138 A 
HETATM    8  N6  UNL     1      22.216  -0.039   3.560  1.00  0.00    -0.337 N 
ATOM      9  H6  UNL     1      22.108   0.633   2.800  1.00  0.00     0.168 HD
HETATM   10  C5  UNL     1      23.272  -0.861   3.751  1.00  0.00     0.182 A 
HETATM   11  N7  UNL     1      23.036  -1.569   4.833  1.00  0.00    -0.346 N 
ATOM     12  H7  UNL     1      23.668  -2.273   5.214  1.00  0.00     0.167 HD
HETATM   13  C6  UNL     1      21.845  -1.239   5.371  1.00  0.00     0.123 A 
ENDROOT
BRANCH   1  14
HETATM   14  N3  UNL     1      21.616  -2.639   7.356  1.00  0.00    -0.283 N 
ATOM     15  H3  UNL     1      22.145  -3.404   6.938  1.00  0.00     0.188 HD
BRANCH  14  16
HETATM   16  N2  UNL     1      21.450  -2.677   8.730  1.00  0.00    -0.295 N 
ATOM     17  H2  UNL     1      22.160  -2.234   9.312  1.00  0.00     0.187 HD
BRANCH  16  18
HETATM   18  C1  UNL     1      20.353  -3.297   9.374  1.00  0.00     0.190 C 
BRANCH  18  19
HETATM   19  N1  UNL     1      19.405  -2.652   9.896  1.00  0.00    -0.394 N 
ATOM     20  H12 UNL     1      18.805  -2.113   9.272  1.00  0.00     0.156 HD
ATOM     21  H11 UNL     1      19.218  -2.648  10.899  1.00  0.00     0.156 HD
ENDBRANCH  18  19
ENDBRANCH  16  18
ENDBRANCH  14  16
ENDBRANCH   1  14
TORSDOF 4
ENDMDL
MODEL 4
REMARK VINA RESULT: -4.629625387      1.679      5.334
REMARK  4 active torsions:
REMARK  status: ('A' for Active; 'I' for Inactive)
REMARK    1  A    between atoms: N1_1  and  C1_4 
REMARK    2  A    between atoms: C1_4  and  N2_5 
REMARK    3  A    between atoms: N2_5  and  N3_7 
REMARK    4  A    between atoms: N3_7  and  C2_9 
ROOT
HETATM    1  C2  UNL     1      21.282  -0.143   4.612  1.00  0.00     0.152 A 
HETATM    2  N4  UNL     1      20.000   0.169   4.884  1.00  0.00    -0.336 N 
ATOM      3  H4  UNL     1      19.523   0.810   4.250  1.00  0.00     0.168 HD
HETATM    4  C3  UNL     1      19.316  -0.297   5.918  1.00  0.00     0.183 A 
HETATM    5  N5  UNL     1      19.928  -1.149   6.777  1.00  0.00    -0.337 N 
ATOM      6  H5  UNL     1      19.422  -1.519   7.581  1.00  0.00     0.168 HD
HETATM    7  C4  UNL     1      21.211  -1.502   6.560  1.00  0.00     0.138 A 
HETATM    8  N6  UNL     1      22.024  -2.321   7.246  1.00  0.00    -0.337 N 
ATOM      9  H6  UNL     1      21.783  -2.833   8.095  1.00  0.00     0.168 HD
HETATM   10  C5  UNL     1      23.218  -2.347   6.612  1.00  0.00     0.182 A 
HETATM   11  N7  UNL     1      23.129  -1.560   5.563  1.00  0.00    -0.346 N 
ATOM     12  H7  UNL     1      23.887  -1.390   4.901  1.00  0.00     0.167 HD
HETATM   13  C6  UNL     1      21.903  -1.008   5.480  1.00  0.00     0.123 A 
ENDROOT
BRANCH   1  14
HETATM   14  N3  UNL     1      21.948   0.383   3.476  1.00  0.00    -0.283 N 
ATOM     15  H3  UNL     1      22.914   0.681   3.611  1.00  0.00     0.188 HD
BRANCH  14  16
HETATM   16  N2  UNL     1      21.424   0.535   2.204  1.00  0.00    -0.295 N 
ATOM     17  H2  UNL     1      20.669   1.207   2.073  1.00  0.00     0.187 HD
BRANCH  16  18
HETATM   18  C1  UNL     1      21.876  -0.188   1.075  1.00  0.00     0.190 C 
BRANCH  18  19
HETATM   19  N1  UNL     1      21.109  -0.585   0.157  1.00  0.00    -0.394 N 
ATOM     20  H12 UNL     1      21.466  -1.301  -0.475  1.00  0.00     0.156 HD
ATOM     21  H11 UNL     1      20.164  -0.224   0.023  1.00  0.00     0.156 HD
ENDBRANCH  18  19
ENDBRANCH  16  18
ENDBRANCH  14  16
ENDBRANCH   1  14
TORSDOF 4
ENDMDL
MODEL 5
REMARK VINA RESULT: -4.541639342      1.600      3.106
REMARK  4 active torsions:
REMARK  status: ('A' for Active; 'I' for Inactive)
REMARK    1  A    between atoms: N1_1  and  C1_4 
REMARK    2  A    between atoms: C1_4  and  N2_5 
REMARK    3  A    between atoms: N2_5  and  N3_7 
REMARK    4  A    between atoms: N3_7  and  C2_9 
ROOT
HETATM    1  C2  UNL     1      22.320  -1.159   5.017  1.00  0.00     0.152 A 
HETATM    2  N4  UNL     1      21.315  -0.274   5.165  1.00  0.00    -0.336 N 
ATOM      3  H4  UNL     1      20.843  -0.239   6.068  1.00  0.00     0.168 HD
HETATM    4  C3  UNL     1      20.898   0.554   4.219  1.00  0.00     0.183 A 
HETATM    5  N5  UNL     1      21.508   0.525   3.009  1.00  0.00    -0.337 N 
ATOM      6  H5  UNL     1      21.202   1.151   2.265  1.00  0.00     0.168 HD
HETATM    7  C4  UNL     1      22.521  -0.339   2.796  1.00  0.00     0.138 A 
HETATM    8  N6  UNL     1      23.279  -0.552   1.709  1.00  0.00    -0.337 N 
ATOM      9  H6  UNL     1      23.199  -0.066   0.816  1.00  0.00     0.168 HD
HETATM   10  C5  UNL     1      24.169  -1.525   2.008  1.00  0.00     0.182 A 
HETATM   11  N7  UNL     1      23.953  -1.894   3.252  1.00  0.00    -0.346 N 
ATOM     12  H7  UNL     1      24.482  -2.616   3.741  1.00  0.00     0.167 HD
HETATM   13  C6  UNL     1      22.940  -1.189   3.792  1.00  0.00     0.123 A 
ENDROOT
BRANCH   1  14
HETATM   14  N3  UNL     1      22.724  -2.007   6.081  1.00  0.00    -0.283 N 
ATOM     15  H3  UNL     1      23.728  -2.111   6.225  1.00  0.00     0.188 HD
BRANCH  14  16
HETATM   16  N2  UNL     1      21.898  -2.707   6.942  1.00  0.00    -0.295 N 
ATOM     17  H2  UNL     1      21.615  -3.650   6.677  1.00  0.00     0.187 HD
BRANCH  16  18
HETATM   18  C1  UNL     1      21.421  -2.190   8.170  1.00  0.00     0.190 C 
BRANCH  18  19
HETATM   19  N1  UNL     1      20.260  -1.725   8.320  1.00  0.00    -0.394 N 
ATOM     20  H12 UNL     1      20.027  -0.873   7.810  1.00  0.00     0.156 HD
ATOM     21  H11 UNL     1      19.557  -2.158   8.919  1.00  0.00     0.156 HD
ENDBRANCH  18  19
ENDBRANCH  16  18
ENDBRANCH  14  16
ENDBRANCH   1  14
TORSDOF 4
ENDMDL
