MODEL 1
REMARK VINA RESULT: -5.274210752      0.000      0.000
REMARK  2 active torsions:
REMARK  status: ('A' for Active; 'I' for Inactive)
REMARK    1  A    between atoms: N1_1  and  N2_4 
REMARK       I    between atoms: N2_4  and  C1_5 
REMARK       I    between atoms: C1_5  and  N3_6 
REMARK       I    between atoms: C1_5  and  N4_10 
REMARK    2  A    between atoms: N4_10  and  C2_12 
ROOT
HETATM    1  N2  UNL     1      20.207  -1.319   6.928  1.00  0.00    -0.093 NA
HETATM    2  C1  UNL     1      21.291  -1.714   6.062  1.00  0.00     0.410 C 
HETATM    3  N3  UNL     1      22.294  -2.332   6.909  1.00  0.00    -0.042 N 
ATOM      4  H31 UNL     1      23.061  -2.612   6.298  1.00  0.00     0.278 HD
ATOM      5  H32 UNL     1      21.928  -3.100   7.473  1.00  0.00     0.278 HD
ATOM      6  H33 UNL     1      22.591  -1.737   7.682  1.00  0.00     0.278 HD
HETATM    7  N4  UNL     1      21.815  -0.661   5.274  1.00  0.00    -0.181 N 
ATOM      8  H4  UNL     1      21.928   0.220   5.775  1.00  0.00     0.181 HD
ENDROOT
BRANCH   7   9
HETATM    9  C2  UNL     1      22.164  -0.616   4.069  1.00  0.00     0.680 A 
HETATM   10  N5  UNL     1      23.053  -1.495   3.559  1.00  0.00    -0.202 N 
HETATM   11  C3  UNL     1      23.452  -1.489   2.296  1.00  0.00     0.107 A 
ATOM     12  H5  UNL     1      23.440  -2.205   4.182  1.00  0.00     0.183 HD
HETATM   13  C4  UNL     1      22.960  -0.557   1.423  1.00  0.00     0.035 A 
HETATM   14  C5  UNL     1      22.046   0.357   1.920  1.00  0.00     0.107 A 
HETATM   15  N6  UNL     1      21.679   0.297   3.227  1.00  0.00    -0.202 N 
ATOM     16  H6  UNL     1      21.004   0.977   3.577  1.00  0.00     0.183 HD
ENDBRANCH   7   9
BRANCH   1  17
HETATM   17  N1  UNL     1      19.147  -0.729   6.285  1.00  0.00    -0.345 N 
ATOM     18  H12 UNL     1      18.955  -0.898   5.298  1.00  0.00     0.172 HD
ATOM     19  H11 UNL     1      18.579  -0.119   6.872  1.00  0.00     0.172 HD
ENDBRANCH   1  17
TORSDOF 2
ENDMDL
MODEL 2
REMARK VINA RESULT: -5.267901917      0.057      1.398
REMARK  2 active torsions:
REMARK  status: ('A' for Active; 'I' for Inactive)
REMARK    1  A    between atoms: N1_1  and  N2_4 
REMARK       I    between atoms: N2_4  and  C1_5 
REMARK       I    between atoms: C1_5  and  N3_6 
REMARK       I    between atoms: C1_5  and  N4_10 
REMARK    2  A    between atoms: N4_10  and  C2_12 
ROOT
HETATM    1  N2  UNL     1      20.242  -1.367   6.948  1.00  0.00    -0.093 NA
HETATM    2  C1  UNL     1      21.330  -1.745   6.079  1.00  0.00     0.410 C 
HETATM    3  N3  UNL     1      22.343  -2.351   6.924  1.00  0.00    -0.042 N 
ATOM      4  H31 UNL     1      23.113  -2.618   6.310  1.00  0.00     0.278 HD
ATOM      5  H32 UNL     1      21.989  -3.124   7.486  1.00  0.00     0.278 HD
ATOM      6  H33 UNL     1      22.634  -1.753   7.697  1.00  0.00     0.278 HD
HETATM    7  N4  UNL     1      21.837  -0.683   5.292  1.00  0.00    -0.181 N 
ATOM      8  H4  UNL     1      21.939   0.199   5.795  1.00  0.00     0.181 HD
ENDROOT
BRANCH   7   9
HETATM    9  C2  UNL     1      22.184  -0.630   4.087  1.00  0.00     0.680 A 
HETATM   10  N5  UNL     1      21.697   0.314   3.253  1.00  0.00    -0.202 N 
HETATM   11  C3  UNL     1      22.033   0.411   1.976  1.00  0.00     0.107 A 
ATOM     12  H5  UNL     1      21.032   0.991   3.628  1.00  0.00     0.183 HD
HETATM   13  C4  UNL     1      22.921  -0.473   1.429  1.00  0.00     0.035 A 
HETATM   14  C5  UNL     1      23.437  -1.452   2.262  1.00  0.00     0.107 A 
HETATM   15  N6  UNL     1      23.051  -1.498   3.563  1.00  0.00    -0.202 N 
ATOM     16  H6  UNL     1      23.440  -2.225   4.164  1.00  0.00     0.183 HD
ENDBRANCH   7   9
BRANCH   1  17
HETATM   17  N1  UNL     1      19.172  -0.791   6.308  1.00  0.00    -0.345 N 
ATOM     18  H12 UNL     1      19.242  -0.442   5.353  1.00  0.00     0.172 HD
ATOM     19  H11 UNL     1      18.319  -0.744   6.864  1.00  0.00     0.172 HD
ENDBRANCH   1  17
TORSDOF 2
ENDMDL
MODEL 3
REMARK VINA RESULT: -4.987251844      2.923      5.628
REMARK  2 active torsions:
REMARK  status: ('A' for Active; 'I' for Inactive)
REMARK    1  A    between atoms: N1_1  and  N2_4 
REMARK       I    between atoms: N2_4  and  C1_5 
REMARK       I    between atoms: C1_5  and  N3_6 
REMARK       I    between atoms: C1_5  and  N4_10 
REMARK    2  A    between atoms: N4_10  and  C2_12 
ROOT
HETATM    1  N2  UNL     1      22.974  -1.068   4.909  1.00  0.00    -0.093 NA
HETATM    2  C1  UNL     1      23.153  -1.484   6.279  1.00  0.00     0.410 C 
HETATM    3  N3  UNL     1      24.505  -2.004   6.380  1.00  0.00    -0.042 N 
ATOM      4  H31 UNL     1      24.632  -2.298   7.349  1.00  0.00     0.278 HD
ATOM      5  H32 UNL     1      25.215  -1.344   6.063  1.00  0.00     0.278 HD
ATOM      6  H33 UNL     1      24.705  -2.741   5.706  1.00  0.00     0.278 HD
HETATM    7  N4  UNL     1      22.178  -2.402   6.736  1.00  0.00    -0.181 N 
ATOM      8  H4  UNL     1      21.943  -3.133   6.064  1.00  0.00     0.181 HD
ENDROOT
BRANCH   7   9
HETATM    9  C2  UNL     1      21.550  -2.480   7.819  1.00  0.00     0.680 A 
HETATM   10  N5  UNL     1      21.665  -1.530   8.772  1.00  0.00    -0.202 N 
HETATM   11  C3  UNL     1      21.023  -1.566   9.929  1.00  0.00     0.107 A 
ATOM     12  H5  UNL     1      22.282  -0.738   8.589  1.00  0.00     0.183 HD
HETATM   13  C4  UNL     1      20.183  -2.607  10.219  1.00  0.00     0.035 A 
HETATM   14  C5  UNL     1      20.046  -3.596   9.259  1.00  0.00     0.107 A 
HETATM   15  N6  UNL     1      20.734  -3.500   8.092  1.00  0.00    -0.202 N 
ATOM     16  H6  UNL     1      20.622  -4.236   7.395  1.00  0.00     0.183 HD
ENDBRANCH   7   9
BRANCH   1  17
HETATM   17  N1  UNL     1      21.744  -0.524   4.632  1.00  0.00    -0.345 N 
ATOM     18  H12 UNL     1      21.172  -0.856   3.856  1.00  0.00     0.172 HD
ATOM     19  H11 UNL     1      21.460   0.227   5.260  1.00  0.00     0.172 HD
ENDBRANCH   1  17
TORSDOF 2
ENDMDL
MODEL 4
REMARK VINA RESULT: -4.967329217      2.925      5.567
REMARK  2 active torsions:
REMARK  status: ('A' for Active; 'I' for Inactive)
REMARK    1  A    between atoms: N1_1  and  N2_4 
REMARK       I    between atoms: N2_4  and  C1_5 
REMARK       I    between atoms: C1_5  and  N3_6 
REMARK       I    between atoms: C1_5  and  N4_10 
REMARK    2  A    between atoms: N4_10  and  C2_12 
ROOT
HETATM    1  N2  UNL     1      22.984  -1.076   4.906  1.00  0.00    -0.093 NA
HETATM    2  C1  UNL     1      23.169  -1.486   6.277  1.00  0.00     0.410 C 
HETATM    3  N3  UNL     1      24.515  -2.021   6.371  1.00  0.00    -0.042 N 
ATOM      4  H31 UNL     1      24.646  -2.311   7.340  1.00  0.00     0.278 HD
ATOM      5  H32 UNL     1      25.231  -1.372   6.044  1.00  0.00     0.278 HD
ATOM      6  H33 UNL     1      24.701  -2.765   5.699  1.00  0.00     0.278 HD
HETATM    7  N4  UNL     1      22.186  -2.390   6.748  1.00  0.00    -0.181 N 
ATOM      8  H4  UNL     1      21.937  -3.121   6.082  1.00  0.00     0.181 HD
ENDROOT
BRANCH   7   9
HETATM    9  C2  UNL     1      21.566  -2.453   7.837  1.00  0.00     0.680 A 
HETATM   10  N5  UNL     1      20.735  -3.479   8.117  1.00  0.00    -0.202 N 
HETATM   11  C3  UNL     1      20.060  -3.591   9.251  1.00  0.00     0.107 A 
ATOM     12  H5  UNL     1      20.619  -4.210   7.415  1.00  0.00     0.183 HD
HETATM   13  C4  UNL     1      20.183  -2.636  10.222  1.00  0.00     0.035 A 
HETATM   14  C5  UNL     1      21.030  -1.571   9.962  1.00  0.00     0.107 A 
HETATM   15  N6  UNL     1      21.693  -1.515   8.777  1.00  0.00    -0.202 N 
ATOM     16  H6  UNL     1      22.313  -0.725   8.600  1.00  0.00     0.183 HD
ENDBRANCH   7   9
BRANCH   1  17
HETATM   17  N1  UNL     1      21.759  -0.519   4.635  1.00  0.00    -0.345 N 
ATOM     18  H12 UNL     1      21.217  -0.784   3.813  1.00  0.00     0.172 HD
ATOM     19  H11 UNL     1      21.445   0.171   5.318  1.00  0.00     0.172 HD
ENDBRANCH   1  17
TORSDOF 2
ENDMDL
MODEL 5
REMARK VINA RESULT: -4.748905727      2.394      3.572
REMARK  2 active torsions:
REMARK  status: ('A' for Active; 'I' for Inactive)
REMARK    1  A    between atoms: N1_1  and  N2_4 
REMARK       I    between atoms: N2_4  and  C1_5 
REMARK       I    between atoms: C1_5  and  N3_6 
REMARK       I    between atoms: C1_5  and  N4_10 
REMARK    2  A    between atoms: N4_10  and  C2_12 
ROOT
HETATM    1  N2  UNL     1      20.929  -2.086  10.543  1.00  0.00    -0.093 NA
HETATM    2  C1  UNL     1      20.690  -2.455   9.168  1.00  0.00     0.410 C 
HETATM    3  N3  UNL     1      20.169  -3.809   9.188  1.00  0.00    -0.042 N 
ATOM      4  H31 UNL     1      19.999  -4.070   8.216  1.00  0.00     0.278 HD
ATOM      5  H32 UNL     1      19.348  -3.917   9.783  1.00  0.00     0.278 HD
ATOM      6  H33 UNL     1      20.772  -4.466   9.682  1.00  0.00     0.278 HD
HETATM    7  N4  UNL     1      21.819  -2.314   8.327  1.00  0.00    -0.181 N 
ATOM      8  H4  UNL     1      22.693  -2.639   8.741  1.00  0.00     0.181 HD
ENDROOT
BRANCH   7   9
HETATM    9  C2  UNL     1      21.939  -1.861   7.163  1.00  0.00     0.680 A 
HETATM   10  N5  UNL     1      23.109  -1.939   6.493  1.00  0.00    -0.202 N 
HETATM   11  C3  UNL     1      23.285  -1.478   5.264  1.00  0.00     0.107 A 
ATOM     12  H5  UNL     1      23.902  -2.378   6.959  1.00  0.00     0.183 HD
HETATM   13  C4  UNL     1      22.250  -0.882   4.597  1.00  0.00     0.035 A 
HETATM   14  C5  UNL     1      21.038  -0.788   5.261  1.00  0.00     0.107 A 
HETATM   15  N6  UNL     1      20.923  -1.281   6.522  1.00  0.00    -0.202 N 
ATOM     16  H6  UNL     1      20.024  -1.205   6.997  1.00  0.00     0.183 HD
ENDBRANCH   7   9
BRANCH   1  17
HETATM   17  N1  UNL     1      21.409  -0.811  10.718  1.00  0.00    -0.345 N 
ATOM     18  H12 UNL     1      22.403  -0.624  10.841  1.00  0.00     0.172 HD
ATOM     19  H11 UNL     1      20.694  -0.084  10.715  1.00  0.00     0.172 HD
ENDBRANCH   1  17
TORSDOF 2
ENDMDL
