MODEL 1
REMARK VINA RESULT: -9.070577505      0.000      0.000
REMARK  8 active torsions:
REMARK  status: ('A' for Active; 'I' for Inactive)
REMARK    1  A    between atoms: O1_2  and  C2_3 
REMARK    2  A    between atoms: C2_3  and  C3_4 
REMARK    3  A    between atoms: C3_4  and  O2_5 
REMARK    4  A    between atoms: O2_5  and  C4_6 
REMARK    5  A    between atoms: C5_9  and  C6_10 
REMARK    6  A    between atoms: C10_17  and  N3_18 
REMARK    7  A    between atoms: C11_23  and  N5_24 
REMARK    8  A    between atoms: C15_34  and  N9_35 
ROOT
HETATM    1  C4  UNL     1      19.404  48.901  17.187  1.00  0.00     0.225 A 
HETATM    2  N1  UNL     1      18.691  49.284  18.254  1.00  0.00    -0.318 N 
ATOM      3  H1  UNL     1      18.948  48.917  19.171  1.00  0.00     0.169 HD
HETATM    4  C5  UNL     1      17.632  50.148  18.168  1.00  0.00     0.097 A 
HETATM    5  C13 UNL     1      17.292  50.638  16.940  1.00  0.00     0.117 A 
HETATM    6  C14 UNL     1      16.182  51.551  16.802  1.00  0.00     0.105 C 
HETATM    7  N8  UNL     1      15.302  52.280  16.666  1.00  0.00    -0.191 NA
HETATM    8  C15 UNL     1      18.022  50.247  15.834  1.00  0.00     0.125 A 
HETATM    9  N10 UNL     1      19.045  49.399  15.998  1.00  0.00    -0.307 N 
ATOM     10  H10 UNL     1      19.578  49.117  15.175  1.00  0.00     0.171 HD
ENDROOT
BRANCH   4  11
HETATM   11  C6  UNL     1      16.918  50.504  19.393  1.00  0.00     0.147 A 
HETATM   12  O3  UNL     1      16.929  51.598  20.054  1.00  0.00    -0.287 OA
HETATM   13  C7  UNL     1      16.159  51.582  21.128  1.00  0.00     0.165 A 
HETATM   14  C8  UNL     1      16.006  52.696  22.033  1.00  0.00     0.075 A 
HETATM   15  N6  UNL     1      15.623  50.353  21.119  1.00  0.00    -0.322 N 
HETATM   16  C9  UNL     1      16.690  53.866  21.794  1.00  0.00     0.125 A 
HETATM   17  C11 UNL     1      15.206  52.672  23.142  1.00  0.00     0.130 A 
HETATM   18  N2  UNL     1      16.589  54.938  22.601  1.00  0.00    -0.201 N 
HETATM   19  C10 UNL     1      15.796  54.889  23.685  1.00  0.00     0.677 A 
ATOM     20  H2  UNL     1      17.115  55.786  22.390  1.00  0.00     0.183 HD
HETATM   21  N4  UNL     1      15.117  53.781  23.953  1.00  0.00    -0.176 N 
ATOM     22  H4  UNL     1      14.517  53.750  24.778  1.00  0.00     0.186 HD
HETATM   23  C12 UNL     1      16.058  49.648  20.072  1.00  0.00     0.154 A 
ATOM     24  H6  UNL     1      14.970  50.002  21.819  1.00  0.00     0.169 HD
HETATM   25  N7  UNL     1      15.723  48.328  19.726  1.00  0.00    -0.080 NA
BRANCH  19  26
HETATM   26  N3  UNL     1      15.713  55.950  24.459  1.00  0.00    -0.234 N 
ATOM     27  H32 UNL     1      16.006  55.921  25.436  1.00  0.00     0.174 HD
ATOM     28  H31 UNL     1      15.345  56.818  24.069  1.00  0.00     0.174 HD
ENDBRANCH  19  26
BRANCH  17  29
HETATM   29  N5  UNL     1      14.535  51.664  23.462  1.00  0.00    -0.384 N 
ATOM     30  H52 UNL     1      14.010  51.193  22.725  1.00  0.00     0.157 HD
ATOM     31  H51 UNL     1      14.501  51.312  24.419  1.00  0.00     0.157 HD
ENDBRANCH  17  29
ENDBRANCH   4  11
BRANCH   8  32
HETATM   32  N9  UNL     1      17.691  50.715  14.686  1.00  0.00    -0.384 N 
ATOM     33  H92 UNL     1      17.469  51.699  14.537  1.00  0.00     0.157 HD
ATOM     34  H91 UNL     1      17.649  50.074  13.893  1.00  0.00     0.157 HD
ENDBRANCH   8  32
BRANCH   1  35
HETATM   35  O2  UNL     1      20.478  48.026  17.267  1.00  0.00    -0.320 OA
BRANCH  35  36
HETATM   36  C3  UNL     1      20.797  47.160  16.161  1.00  0.00     0.205 C 
BRANCH  36  37
HETATM   37  C2  UNL     1      19.733  46.128  15.969  1.00  0.00     0.193 C 
BRANCH  37  38
HETATM   38  O1  UNL     1      18.716  46.519  15.134  1.00  0.00    -0.394 OA
HETATM   39  C1  UNL     1      18.149  45.480  14.431  1.00  0.00     0.201 C 
ENDBRANCH  37  38
ENDBRANCH  36  37
ENDBRANCH  35  36
ENDBRANCH   1  35
TORSDOF 8
ENDMDL
MODEL 2
REMARK VINA RESULT: -9.052239865      1.223      2.097
REMARK  8 active torsions:
REMARK  status: ('A' for Active; 'I' for Inactive)
REMARK    1  A    between atoms: O1_2  and  C2_3 
REMARK    2  A    between atoms: C2_3  and  C3_4 
REMARK    3  A    between atoms: C3_4  and  O2_5 
REMARK    4  A    between atoms: O2_5  and  C4_6 
REMARK    5  A    between atoms: C5_9  and  C6_10 
REMARK    6  A    between atoms: C10_17  and  N3_18 
REMARK    7  A    between atoms: C11_23  and  N5_24 
REMARK    8  A    between atoms: C15_34  and  N9_35 
ROOT
HETATM    1  C4  UNL     1      19.348  48.774  17.163  1.00  0.00     0.225 A 
HETATM    2  N1  UNL     1      18.646  49.178  18.229  1.00  0.00    -0.318 N 
ATOM      3  H1  UNL     1      18.884  48.796  19.144  1.00  0.00     0.169 HD
HETATM    4  C5  UNL     1      17.621  50.083  18.143  1.00  0.00     0.097 A 
HETATM    5  C13 UNL     1      17.306  50.594  16.917  1.00  0.00     0.117 A 
HETATM    6  C14 UNL     1      16.234  51.551  16.780  1.00  0.00     0.105 C 
HETATM    7  N8  UNL     1      15.383  52.315  16.644  1.00  0.00    -0.191 NA
HETATM    8  C15 UNL     1      18.027  50.182  15.811  1.00  0.00     0.125 A 
HETATM    9  N10 UNL     1      19.015  49.294  15.975  1.00  0.00    -0.307 N 
ATOM     10  H10 UNL     1      19.540  48.997  15.152  1.00  0.00     0.171 HD
ENDROOT
BRANCH   4  11
HETATM   11  C6  UNL     1      16.916  50.459  19.367  1.00  0.00     0.147 A 
HETATM   12  O3  UNL     1      16.934  51.563  20.012  1.00  0.00    -0.287 OA
HETATM   13  C7  UNL     1      16.170  51.564  21.091  1.00  0.00     0.165 A 
HETATM   14  C8  UNL     1      16.025  52.691  21.980  1.00  0.00     0.075 A 
HETATM   15  N6  UNL     1      15.630  50.336  21.103  1.00  0.00    -0.322 N 
HETATM   16  C9  UNL     1      16.711  53.856  21.721  1.00  0.00     0.125 A 
HETATM   17  C11 UNL     1      15.232  52.685  23.094  1.00  0.00     0.130 A 
HETATM   18  N2  UNL     1      16.618  54.939  22.512  1.00  0.00    -0.201 N 
HETATM   19  C10 UNL     1      15.831  54.909  23.602  1.00  0.00     0.677 A 
ATOM     20  H2  UNL     1      17.145  55.783  22.286  1.00  0.00     0.183 HD
HETATM   21  N4  UNL     1      15.151  53.806  23.890  1.00  0.00    -0.176 N 
ATOM     22  H4  UNL     1      14.556  53.789  24.718  1.00  0.00     0.186 HD
HETATM   23  C12 UNL     1      16.057  49.615  20.063  1.00  0.00     0.154 A 
ATOM     24  H6  UNL     1      14.981  49.998  21.812  1.00  0.00     0.169 HD
HETATM   25  N7  UNL     1      15.716  48.292  19.739  1.00  0.00    -0.080 NA
BRANCH  19  26
HETATM   26  N3  UNL     1      15.756  55.981  24.361  1.00  0.00    -0.234 N 
ATOM     27  H32 UNL     1      16.468  56.710  24.325  1.00  0.00     0.174 HD
ATOM     28  H31 UNL     1      14.964  56.079  24.998  1.00  0.00     0.174 HD
ENDBRANCH  19  26
BRANCH  17  29
HETATM   29  N5  UNL     1      14.560  51.685  23.433  1.00  0.00    -0.384 N 
ATOM     30  H52 UNL     1      14.639  50.846  22.857  1.00  0.00     0.157 HD
ATOM     31  H51 UNL     1      13.950  51.688  24.250  1.00  0.00     0.157 HD
ENDBRANCH  17  29
ENDBRANCH   4  11
BRANCH   8  32
HETATM   32  N9  UNL     1      17.720  50.670  14.665  1.00  0.00    -0.384 N 
ATOM     33  H92 UNL     1      17.030  51.412  14.551  1.00  0.00     0.157 HD
ATOM     34  H91 UNL     1      18.187  50.299  13.838  1.00  0.00     0.157 HD
ENDBRANCH   8  32
BRANCH   1  35
HETATM   35  O2  UNL     1      20.387  47.858  17.241  1.00  0.00    -0.320 OA
BRANCH  35  36
HETATM   36  C3  UNL     1      21.728  48.241  16.879  1.00  0.00     0.205 C 
BRANCH  36  37
HETATM   37  C2  UNL     1      22.238  49.316  17.784  1.00  0.00     0.193 C 
BRANCH  37  38
HETATM   38  O1  UNL     1      23.554  49.645  17.580  1.00  0.00    -0.394 OA
HETATM   39  C1  UNL     1      24.432  48.637  17.908  1.00  0.00     0.201 C 
ENDBRANCH  37  38
ENDBRANCH  36  37
ENDBRANCH  35  36
ENDBRANCH   1  35
TORSDOF 8
ENDMDL
MODEL 3
REMARK VINA RESULT: -8.631031469      3.000      4.708
REMARK  8 active torsions:
REMARK  status: ('A' for Active; 'I' for Inactive)
REMARK    1  A    between atoms: O1_2  and  C2_3 
REMARK    2  A    between atoms: C2_3  and  C3_4 
REMARK    3  A    between atoms: C3_4  and  O2_5 
REMARK    4  A    between atoms: O2_5  and  C4_6 
REMARK    5  A    between atoms: C5_9  and  C6_10 
REMARK    6  A    between atoms: C10_17  and  N3_18 
REMARK    7  A    between atoms: C11_23  and  N5_24 
REMARK    8  A    between atoms: C15_34  and  N9_35 
ROOT
HETATM    1  C4  UNL     1      15.399  52.719  15.872  1.00  0.00     0.225 A 
HETATM    2  N1  UNL     1      15.191  52.703  17.195  1.00  0.00    -0.318 N 
ATOM      3  H1  UNL     1      14.548  53.386  17.597  1.00  0.00     0.169 HD
HETATM    4  C5  UNL     1      15.804  51.810  18.032  1.00  0.00     0.097 A 
HETATM    5  C13 UNL     1      16.663  50.896  17.492  1.00  0.00     0.117 A 
HETATM    6  C14 UNL     1      17.331  49.935  18.337  1.00  0.00     0.105 C 
HETATM    7  N8  UNL     1      17.876  49.159  18.990  1.00  0.00    -0.191 NA
HETATM    8  C15 UNL     1      16.883  50.906  16.127  1.00  0.00     0.125 A 
HETATM    9  N10 UNL     1      16.246  51.811  15.374  1.00  0.00    -0.307 N 
ATOM     10  H10 UNL     1      16.416  51.809  14.368  1.00  0.00     0.171 HD
ENDROOT
BRANCH   4  11
HETATM   11  C6  UNL     1      15.509  51.876  19.463  1.00  0.00     0.147 A 
HETATM   12  O3  UNL     1      16.110  52.518  20.390  1.00  0.00    -0.287 OA
HETATM   13  C7  UNL     1      15.574  52.355  21.588  1.00  0.00     0.165 A 
HETATM   14  C8  UNL     1      16.074  52.975  22.791  1.00  0.00     0.075 A 
HETATM   15  N6  UNL     1      14.541  51.529  21.366  1.00  0.00    -0.322 N 
HETATM   16  C9  UNL     1      17.177  53.797  22.726  1.00  0.00     0.125 A 
HETATM   17  C11 UNL     1      15.514  52.802  24.026  1.00  0.00     0.130 A 
HETATM   18  N2  UNL     1      17.689  54.403  23.812  1.00  0.00    -0.201 N 
HETATM   19  C10 UNL     1      17.120  54.217  25.016  1.00  0.00     0.677 A 
ATOM     20  H2  UNL     1      18.509  55.003  23.722  1.00  0.00     0.183 HD
HETATM   21  N4  UNL     1      16.054  53.433  25.125  1.00  0.00    -0.176 N 
ATOM     22  H4  UNL     1      15.627  53.295  26.040  1.00  0.00     0.186 HD
HETATM   23  C12 UNL     1      14.456  51.204  20.074  1.00  0.00     0.154 A 
ATOM     24  H6  UNL     1      13.904  51.195  22.089  1.00  0.00     0.169 HD
HETATM   25  N7  UNL     1      13.511  50.365  19.461  1.00  0.00    -0.080 NA
BRANCH  19  26
HETATM   26  N3  UNL     1      17.639  54.820  26.064  1.00  0.00    -0.234 N 
ATOM     27  H32 UNL     1      18.627  54.724  26.299  1.00  0.00     0.174 HD
ATOM     28  H31 UNL     1      17.034  55.396  26.651  1.00  0.00     0.174 HD
ENDBRANCH  19  26
BRANCH  17  29
HETATM   29  N5  UNL     1      14.508  52.079  24.211  1.00  0.00    -0.384 N 
ATOM     30  H52 UNL     1      13.734  52.474  24.745  1.00  0.00     0.157 HD
ATOM     31  H51 UNL     1      14.446  51.127  23.849  1.00  0.00     0.157 HD
ENDBRANCH  17  29
ENDBRANCH   4  11
BRANCH   8  32
HETATM   32  N9  UNL     1      17.692  50.042  15.633  1.00  0.00    -0.384 N 
ATOM     33  H92 UNL     1      17.779  49.882  14.629  1.00  0.00     0.157 HD
ATOM     34  H91 UNL     1      18.270  49.496  16.271  1.00  0.00     0.157 HD
ENDBRANCH   8  32
BRANCH   1  35
HETATM   35  O2  UNL     1      14.781  53.621  15.018  1.00  0.00    -0.320 OA
BRANCH  35  36
HETATM   36  C3  UNL     1      15.098  53.629  13.612  1.00  0.00     0.205 C 
BRANCH  36  37
HETATM   37  C2  UNL     1      13.853  53.618  12.786  1.00  0.00     0.193 C 
BRANCH  37  38
HETATM   38  O1  UNL     1      12.701  53.818  13.503  1.00  0.00    -0.394 OA
HETATM   39  C1  UNL     1      11.719  54.477  12.798  1.00  0.00     0.201 C 
ENDBRANCH  37  38
ENDBRANCH  36  37
ENDBRANCH  35  36
ENDBRANCH   1  35
TORSDOF 8
ENDMDL
MODEL 4
REMARK VINA RESULT: -8.570686265      1.051      1.087
REMARK  8 active torsions:
REMARK  status: ('A' for Active; 'I' for Inactive)
REMARK    1  A    between atoms: O1_2  and  C2_3 
REMARK    2  A    between atoms: C2_3  and  C3_4 
REMARK    3  A    between atoms: C3_4  and  O2_5 
REMARK    4  A    between atoms: O2_5  and  C4_6 
REMARK    5  A    between atoms: C5_9  and  C6_10 
REMARK    6  A    between atoms: C10_17  and  N3_18 
REMARK    7  A    between atoms: C11_23  and  N5_24 
REMARK    8  A    between atoms: C15_34  and  N9_35 
ROOT
HETATM    1  C4  UNL     1      18.329  49.147  17.524  1.00  0.00     0.225 A 
HETATM    2  N1  UNL     1      17.749  49.610  18.638  1.00  0.00    -0.318 N 
ATOM      3  H1  UNL     1      17.977  49.167  19.528  1.00  0.00     0.169 HD
HETATM    4  C5  UNL     1      16.863  50.654  18.635  1.00  0.00     0.097 A 
HETATM    5  C13 UNL     1      16.561  51.247  17.442  1.00  0.00     0.117 A 
HETATM    6  C14 UNL     1      15.632  52.351  17.392  1.00  0.00     0.105 C 
HETATM    7  N8  UNL     1      14.895  53.232  17.326  1.00  0.00    -0.191 NA
HETATM    8  C15 UNL     1      17.155  50.775  16.287  1.00  0.00     0.125 A 
HETATM    9  N10 UNL     1      18.012  49.749  16.371  1.00  0.00    -0.307 N 
ATOM     10  H10 UNL     1      18.445  49.409  15.512  1.00  0.00     0.171 HD
ENDROOT
BRANCH   4  11
HETATM   11  C6  UNL     1      16.284  51.085  19.906  1.00  0.00     0.147 A 
HETATM   12  O3  UNL     1      16.626  52.049  20.673  1.00  0.00    -0.287 OA
HETATM   13  C7  UNL     1      15.880  52.160  21.759  1.00  0.00     0.165 A 
HETATM   14  C8  UNL     1      16.071  53.168  22.773  1.00  0.00     0.075 A 
HETATM   15  N6  UNL     1      14.992  51.162  21.640  1.00  0.00    -0.322 N 
HETATM   16  C9  UNL     1      17.084  54.090  22.636  1.00  0.00     0.125 A 
HETATM   17  C11 UNL     1      15.294  53.277  23.894  1.00  0.00     0.130 A 
HETATM   18  N2  UNL     1      17.311  55.052  23.548  1.00  0.00    -0.201 N 
HETATM   19  C10 UNL     1      16.534  55.139  24.641  1.00  0.00     0.677 A 
ATOM     20  H2  UNL     1      18.074  55.716  23.409  1.00  0.00     0.183 HD
HETATM   21  N4  UNL     1      15.545  54.271  24.814  1.00  0.00    -0.176 N 
ATOM     22  H4  UNL     1      14.958  54.341  25.645  1.00  0.00     0.186 HD
HETATM   23  C12 UNL     1      15.197  50.469  20.518  1.00  0.00     0.154 A 
ATOM     24  H6  UNL     1      14.258  50.959  22.318  1.00  0.00     0.169 HD
HETATM   25  N7  UNL     1      14.475  49.359  20.050  1.00  0.00    -0.080 NA
BRANCH  19  26
HETATM   26  N3  UNL     1      16.775  56.089  25.519  1.00  0.00    -0.234 N 
ATOM     27  H32 UNL     1      17.626  56.650  25.476  1.00  0.00     0.174 HD
ATOM     28  H31 UNL     1      16.092  56.263  26.257  1.00  0.00     0.174 HD
ENDBRANCH  19  26
BRANCH  17  29
HETATM   29  N5  UNL     1      14.343  52.497  24.129  1.00  0.00    -0.384 N 
ATOM     30  H52 UNL     1      14.521  51.712  24.755  1.00  0.00     0.157 HD
ATOM     31  H51 UNL     1      13.419  52.624  23.718  1.00  0.00     0.157 HD
ENDBRANCH  17  29
ENDBRANCH   4  11
BRANCH   8  32
HETATM   32  N9  UNL     1      16.862  51.340  15.174  1.00  0.00    -0.384 N 
ATOM     33  H92 UNL     1      17.569  51.597  14.485  1.00  0.00     0.157 HD
ATOM     34  H91 UNL     1      15.882  51.540  14.973  1.00  0.00     0.157 HD
ENDBRANCH   8  32
BRANCH   1  35
HETATM   35  O2  UNL     1      19.228  48.090  17.519  1.00  0.00    -0.320 OA
BRANCH  35  36
HETATM   36  C3  UNL     1      20.004  47.797  16.341  1.00  0.00     0.205 C 
BRANCH  36  37
HETATM   37  C2  UNL     1      19.503  46.562  15.666  1.00  0.00     0.193 C 
BRANCH  37  38
HETATM   38  O1  UNL     1      18.380  46.755  14.902  1.00  0.00    -0.394 OA
HETATM   39  C1  UNL     1      17.827  45.587  14.428  1.00  0.00     0.201 C 
ENDBRANCH  37  38
ENDBRANCH  36  37
ENDBRANCH  35  36
ENDBRANCH   1  35
TORSDOF 8
ENDMDL
MODEL 5
REMARK VINA RESULT: -8.356167715      1.646      2.035
REMARK  8 active torsions:
REMARK  status: ('A' for Active; 'I' for Inactive)
REMARK    1  A    between atoms: O1_2  and  C2_3 
REMARK    2  A    between atoms: C2_3  and  C3_4 
REMARK    3  A    between atoms: C3_4  and  O2_5 
REMARK    4  A    between atoms: O2_5  and  C4_6 
REMARK    5  A    between atoms: C5_9  and  C6_10 
REMARK    6  A    between atoms: C10_17  and  N3_18 
REMARK    7  A    between atoms: C11_23  and  N5_24 
REMARK    8  A    between atoms: C15_34  and  N9_35 
ROOT
HETATM    1  C4  UNL     1      17.391  50.034  16.625  1.00  0.00     0.225 A 
HETATM    2  N1  UNL     1      16.942  50.349  17.846  1.00  0.00    -0.318 N 
ATOM      3  H1  UNL     1      17.219  49.764  18.635  1.00  0.00     0.169 HD
HETATM    4  C5  UNL     1      16.127  51.424  18.082  1.00  0.00     0.097 A 
HETATM    5  C13 UNL     1      15.760  52.206  17.025  1.00  0.00     0.117 A 
HETATM    6  C14 UNL     1      14.901  53.349  17.228  1.00  0.00     0.105 C 
HETATM    7  N8  UNL     1      14.219  54.266  17.364  1.00  0.00    -0.191 NA
HETATM    8  C15 UNL     1      16.219  51.887  15.761  1.00  0.00     0.125 A 
HETATM    9  N10 UNL     1      17.013  50.820  15.610  1.00  0.00    -0.307 N 
ATOM     10  H10 UNL     1      17.347  50.594  14.673  1.00  0.00     0.171 HD
ENDROOT
BRANCH   4  11
HETATM   11  C6  UNL     1      15.691  51.683  19.453  1.00  0.00     0.147 A 
HETATM   12  O3  UNL     1      16.229  52.411  20.356  1.00  0.00    -0.287 OA
HETATM   13  C7  UNL     1      15.564  52.424  21.500  1.00  0.00     0.165 A 
HETATM   14  C8  UNL     1      15.972  53.170  22.665  1.00  0.00     0.075 A 
HETATM   15  N6  UNL     1      14.513  51.624  21.268  1.00  0.00    -0.322 N 
HETATM   16  C9  UNL     1      17.121  53.927  22.623  1.00  0.00     0.125 A 
HETATM   17  C11 UNL     1      15.279  53.179  23.844  1.00  0.00     0.130 A 
HETATM   18  N2  UNL     1      17.553  54.642  23.676  1.00  0.00    -0.201 N 
HETATM   19  C10 UNL     1      16.854  54.635  24.824  1.00  0.00     0.677 A 
ATOM     20  H2  UNL     1      18.411  55.189  23.604  1.00  0.00     0.183 HD
HETATM   21  N4  UNL     1      15.739  53.920  24.910  1.00  0.00    -0.176 N 
ATOM     22  H4  UNL     1      15.212  53.918  25.784  1.00  0.00     0.186 HD
HETATM   23  C12 UNL     1      14.544  51.141  20.023  1.00  0.00     0.154 A 
ATOM     24  H6  UNL     1      13.787  51.412  21.951  1.00  0.00     0.169 HD
HETATM   25  N7  UNL     1      13.620  50.275  19.416  1.00  0.00    -0.080 NA
BRANCH  19  26
HETATM   26  N3  UNL     1      17.295  55.343  25.842  1.00  0.00    -0.234 N 
ATOM     27  H32 UNL     1      18.261  55.671  25.884  1.00  0.00     0.174 HD
ATOM     28  H31 UNL     1      16.653  55.567  26.603  1.00  0.00     0.174 HD
ENDBRANCH  19  26
BRANCH  17  29
HETATM   29  N5  UNL     1      14.220  52.530  24.004  1.00  0.00    -0.384 N 
ATOM     30  H52 UNL     1      14.263  51.693  24.585  1.00  0.00     0.157 HD
ATOM     31  H51 UNL     1      13.337  52.811  23.577  1.00  0.00     0.157 HD
ENDBRANCH  17  29
ENDBRANCH   4  11
BRANCH   8  32
HETATM   32  N9  UNL     1      15.866  52.630  14.777  1.00  0.00    -0.384 N 
ATOM     33  H92 UNL     1      15.610  53.611  14.893  1.00  0.00     0.157 HD
ATOM     34  H91 UNL     1      15.841  52.220  13.843  1.00  0.00     0.157 HD
ENDBRANCH   8  32
BRANCH   1  35
HETATM   35  O2  UNL     1      18.217  48.946  16.378  1.00  0.00    -0.320 OA
BRANCH  35  36
HETATM   36  C3  UNL     1      19.550  49.143  15.867  1.00  0.00     0.205 C 
BRANCH  36  37
HETATM   37  C2  UNL     1      20.470  48.070  16.351  1.00  0.00     0.193 C 
BRANCH  37  38
HETATM   38  O1  UNL     1      19.848  47.078  17.067  1.00  0.00    -0.394 OA
HETATM   39  C1  UNL     1      20.286  45.811  16.750  1.00  0.00     0.201 C 
ENDBRANCH  37  38
ENDBRANCH  36  37
ENDBRANCH  35  36
ENDBRANCH   1  35
TORSDOF 8
ENDMDL
