MODEL 1
REMARK VINA RESULT: -8.497150921      0.000      0.000
REMARK  8 active torsions:
REMARK  status: ('A' for Active; 'I' for Inactive)
REMARK    1  A    between atoms: N1_1  and  C1_4 
REMARK    2  A    between atoms: C2_7  and  S1_8 
REMARK    3  A    between atoms: S1_8  and  C3_9 
REMARK    4  A    between atoms: C3_9  and  C4_10 
REMARK    5  A    between atoms: C12_22  and  C13_23 
REMARK    6  A    between atoms: C13_23  and  N5_24 
REMARK    7  A    between atoms: C17_31  and  C18_32 
REMARK    8  A    between atoms: C18_32  and  O1_33 
ROOT
HETATM    1  C1  UNL     1      16.378  49.999  21.016  1.00  0.00     0.131 A 
HETATM    2  N2  UNL     1      15.904  50.928  21.862  1.00  0.00    -0.321 N 
ATOM      3  H2  UNL     1      15.871  50.736  22.863  1.00  0.00     0.169 HD
HETATM    4  C2  UNL     1      15.472  52.117  21.388  1.00  0.00     0.147 A 
HETATM    5  N3  UNL     1      15.498  52.410  20.086  1.00  0.00    -0.321 N 
ATOM      6  H3  UNL     1      15.163  53.315  19.757  1.00  0.00     0.169 HD
HETATM    7  C10 UNL     1      15.966  51.503  19.207  1.00  0.00     0.134 A 
HETATM    8  C11 UNL     1      16.415  50.281  19.657  1.00  0.00     0.117 A 
HETATM    9  N4  UNL     1      16.902  49.349  18.710  1.00  0.00    -0.376 N 
ATOM     10  H4  UNL     1      16.945  48.360  18.954  1.00  0.00     0.160 HD
HETATM   11  C12 UNL     1      17.338  49.779  17.410  1.00  0.00     0.126 C 
HETATM   12  C17 UNL     1      16.350  50.782  16.852  1.00  0.00     0.131 C 
HETATM   13  N8  UNL     1      16.009  51.774  17.825  1.00  0.00    -0.365 N 
ATOM     14  H8  UNL     1      15.789  52.718  17.504  1.00  0.00     0.161 HD
ENDROOT
BRANCH   4  15
HETATM   15  S1  UNL     1      14.860  53.292  22.578  1.00  0.00    -0.089 SA
BRANCH  15  16
HETATM   16  C3  UNL     1      14.680  52.393  24.165  1.00  0.00     0.121 C 
BRANCH  16  17
HETATM   17  C4  UNL     1      15.842  52.766  25.014  1.00  0.00    -0.049 A 
HETATM   18  C5  UNL     1      16.998  53.325  24.467  1.00  0.00     0.008 A 
HETATM   19  C6  UNL     1      18.071  53.668  25.256  1.00  0.00     0.001 A 
HETATM   20  C7  UNL     1      18.059  53.477  26.616  1.00  0.00     0.000 A 
HETATM   21  C8  UNL     1      16.933  52.928  27.178  1.00  0.00     0.001 A 
HETATM   22  C9  UNL     1      15.844  52.580  26.380  1.00  0.00     0.008 A 
ENDBRANCH  16  17
ENDBRANCH  15  16
ENDBRANCH   4  15
BRANCH   1  23
HETATM   23  N1  UNL     1      16.800  48.854  21.427  1.00  0.00    -0.383 N 
ATOM     24  H12 UNL     1      16.833  48.075  20.769  1.00  0.00     0.157 HD
ATOM     25  H11 UNL     1      17.103  48.702  22.389  1.00  0.00     0.157 HD
ENDBRANCH   1  23
BRANCH  12  26
HETATM   26  C18 UNL     1      16.903  51.467  15.622  1.00  0.00     0.191 C 
BRANCH  26  27
HETATM   27  O1  UNL     1      16.067  52.476  15.167  1.00  0.00    -0.399 OA
ATOM     28  H1  UNL     1      15.577  52.213  14.398  1.00  0.00     0.209 HD
ENDBRANCH  26  27
ENDBRANCH  12  26
BRANCH  11  29
HETATM   29  C13 UNL     1      18.719  50.397  17.563  1.00  0.00     0.175 C 
BRANCH  29  30
HETATM   30  N5  UNL     1      19.697  49.422  17.123  1.00  0.00    -0.300 N 
HETATM   31  C14 UNL     1      19.442  48.443  16.209  1.00  0.00     0.113 A 
HETATM   32  C15 UNL     1      20.585  47.693  16.019  1.00  0.00     0.065 A 
HETATM   33  C16 UNL     1      21.537  48.249  16.847  1.00  0.00     0.132 A 
HETATM   34  N6  UNL     1      22.865  47.794  16.971  1.00  0.00    -0.081 NA
HETATM   35  N7  UNL     1      20.964  49.300  17.504  1.00  0.00    -0.286 N 
ATOM     36  H7  UNL     1      21.435  49.899  18.182  1.00  0.00     0.188 HD
ENDBRANCH  29  30
ENDBRANCH  11  29
TORSDOF 8
ENDMDL
MODEL 2
REMARK VINA RESULT: -8.492894588      0.946      1.470
REMARK  8 active torsions:
REMARK  status: ('A' for Active; 'I' for Inactive)
REMARK    1  A    between atoms: N1_1  and  C1_4 
REMARK    2  A    between atoms: C2_7  and  S1_8 
REMARK    3  A    between atoms: S1_8  and  C3_9 
REMARK    4  A    between atoms: C3_9  and  C4_10 
REMARK    5  A    between atoms: C12_22  and  C13_23 
REMARK    6  A    between atoms: C13_23  and  N5_24 
REMARK    7  A    between atoms: C17_31  and  C18_32 
REMARK    8  A    between atoms: C18_32  and  O1_33 
ROOT
HETATM    1  C1  UNL     1      16.380  50.014  20.976  1.00  0.00     0.131 A 
HETATM    2  N2  UNL     1      16.083  50.935  21.907  1.00  0.00    -0.321 N 
ATOM      3  H2  UNL     1      16.110  50.687  22.896  1.00  0.00     0.169 HD
HETATM    4  C2  UNL     1      15.748  52.189  21.535  1.00  0.00     0.147 A 
HETATM    5  N3  UNL     1      15.700  52.556  20.252  1.00  0.00    -0.321 N 
ATOM      6  H3  UNL     1      15.442  53.510  20.001  1.00  0.00     0.169 HD
HETATM    7  C10 UNL     1      15.992  51.660  19.290  1.00  0.00     0.134 A 
HETATM    8  C11 UNL     1      16.337  50.373  19.635  1.00  0.00     0.117 A 
HETATM    9  N4  UNL     1      16.639  49.453  18.602  1.00  0.00    -0.376 N 
ATOM     10  H4  UNL     1      16.592  48.452  18.790  1.00  0.00     0.160 HD
HETATM   11  C12 UNL     1      17.012  49.912  17.293  1.00  0.00     0.126 C 
HETATM   12  C17 UNL     1      16.100  51.047  16.876  1.00  0.00     0.131 C 
HETATM   13  N8  UNL     1      15.952  52.009  17.925  1.00  0.00    -0.365 N 
ATOM     14  H8  UNL     1      15.812  52.988  17.674  1.00  0.00     0.161 HD
ENDROOT
BRANCH   4  15
HETATM   15  S1  UNL     1      15.369  53.347  22.833  1.00  0.00    -0.089 SA
BRANCH  15  16
HETATM   16  C3  UNL     1      16.970  53.918  23.518  1.00  0.00     0.121 C 
BRANCH  16  17
HETATM   17  C4  UNL     1      17.021  53.478  24.937  1.00  0.00    -0.049 A 
HETATM   18  C5  UNL     1      15.898  52.958  25.582  1.00  0.00     0.008 A 
HETATM   19  C6  UNL     1      15.949  52.553  26.896  1.00  0.00     0.001 A 
HETATM   20  C7  UNL     1      17.104  52.640  27.635  1.00  0.00     0.000 A 
HETATM   21  C8  UNL     1      18.222  53.148  27.022  1.00  0.00     0.001 A 
HETATM   22  C9  UNL     1      18.173  53.560  25.691  1.00  0.00     0.008 A 
ENDBRANCH  16  17
ENDBRANCH  15  16
ENDBRANCH   4  15
BRANCH   1  23
HETATM   23  N1  UNL     1      16.705  48.807  21.289  1.00  0.00    -0.383 N 
ATOM     24  H12 UNL     1      17.667  48.610  21.562  1.00  0.00     0.157 HD
ATOM     25  H11 UNL     1      16.029  48.043  21.272  1.00  0.00     0.157 HD
ENDBRANCH   1  23
BRANCH  12  26
HETATM   26  C18 UNL     1      16.623  51.743  15.640  1.00  0.00     0.191 C 
BRANCH  26  27
HETATM   27  O1  UNL     1      15.663  52.553  15.052  1.00  0.00    -0.399 OA
ATOM     28  H1  UNL     1      15.699  53.444  15.379  1.00  0.00     0.209 HD
ENDBRANCH  26  27
ENDBRANCH  12  26
BRANCH  11  29
HETATM   29  C13 UNL     1      18.461  50.370  17.356  1.00  0.00     0.175 C 
BRANCH  29  30
HETATM   30  N5  UNL     1      19.302  49.242  17.008  1.00  0.00    -0.300 N 
HETATM   31  C14 UNL     1      20.640  49.179  17.265  1.00  0.00     0.113 A 
HETATM   32  C15 UNL     1      21.131  47.974  16.806  1.00  0.00     0.065 A 
HETATM   33  C16 UNL     1      20.050  47.311  16.265  1.00  0.00     0.132 A 
HETATM   34  N6  UNL     1      20.097  46.031  15.678  1.00  0.00    -0.081 NA
HETATM   35  N7  UNL     1      18.952  48.111  16.406  1.00  0.00    -0.286 N 
ATOM     36  H7  UNL     1      18.009  47.877  16.095  1.00  0.00     0.188 HD
ENDBRANCH  29  30
ENDBRANCH  11  29
TORSDOF 8
ENDMDL
MODEL 3
REMARK VINA RESULT: -8.457348315      0.378      1.034
REMARK  8 active torsions:
REMARK  status: ('A' for Active; 'I' for Inactive)
REMARK    1  A    between atoms: N1_1  and  C1_4 
REMARK    2  A    between atoms: C2_7  and  S1_8 
REMARK    3  A    between atoms: S1_8  and  C3_9 
REMARK    4  A    between atoms: C3_9  and  C4_10 
REMARK    5  A    between atoms: C12_22  and  C13_23 
REMARK    6  A    between atoms: C13_23  and  N5_24 
REMARK    7  A    between atoms: C17_31  and  C18_32 
REMARK    8  A    between atoms: C18_32  and  O1_33 
ROOT
HETATM    1  C1  UNL     1      16.381  49.957  20.958  1.00  0.00     0.131 A 
HETATM    2  N2  UNL     1      15.934  50.861  21.845  1.00  0.00    -0.321 N 
ATOM      3  H2  UNL     1      15.919  50.636  22.839  1.00  0.00     0.169 HD
HETATM    4  C2  UNL     1      15.503  52.069  21.420  1.00  0.00     0.147 A 
HETATM    5  N3  UNL     1      15.505  52.405  20.128  1.00  0.00    -0.321 N 
ATOM      6  H3  UNL     1      15.172  53.324  19.838  1.00  0.00     0.169 HD
HETATM    7  C10 UNL     1      15.947  51.525  19.210  1.00  0.00     0.134 A 
HETATM    8  C11 UNL     1      16.393  50.285  19.609  1.00  0.00     0.117 A 
HETATM    9  N4  UNL     1      16.852  49.381  18.621  1.00  0.00    -0.376 N 
ATOM     10  H4  UNL     1      16.891  48.384  18.830  1.00  0.00     0.160 HD
HETATM   11  C12 UNL     1      17.265  49.851  17.327  1.00  0.00     0.126 C 
HETATM   12  C17 UNL     1      16.275  50.881  16.825  1.00  0.00     0.131 C 
HETATM   13  N8  UNL     1      15.964  51.843  17.837  1.00  0.00    -0.365 N 
ATOM     14  H8  UNL     1      15.746  52.798  17.553  1.00  0.00     0.161 HD
ENDROOT
BRANCH   4  15
HETATM   15  S1  UNL     1      14.926  53.208  22.661  1.00  0.00    -0.089 SA
BRANCH  15  16
HETATM   16  C3  UNL     1      16.399  54.105  23.283  1.00  0.00     0.121 C 
BRANCH  16  17
HETATM   17  C4  UNL     1      16.661  53.616  24.661  1.00  0.00    -0.049 A 
HETATM   18  C5  UNL     1      15.661  53.012  25.426  1.00  0.00     0.008 A 
HETATM   19  C6  UNL     1      15.907  52.561  26.702  1.00  0.00     0.001 A 
HETATM   20  C7  UNL     1      17.145  52.683  27.285  1.00  0.00     0.000 A 
HETATM   21  C8  UNL     1      18.146  53.273  26.553  1.00  0.00     0.001 A 
HETATM   22  C9  UNL     1      17.898  53.731  25.260  1.00  0.00     0.008 A 
ENDBRANCH  16  17
ENDBRANCH  15  16
ENDBRANCH   4  15
BRANCH   1  23
HETATM   23  N1  UNL     1      16.801  48.795  21.321  1.00  0.00    -0.383 N 
ATOM     24  H12 UNL     1      17.355  48.714  22.174  1.00  0.00     0.157 HD
ATOM     25  H11 UNL     1      16.596  47.953  20.783  1.00  0.00     0.157 HD
ENDBRANCH   1  23
BRANCH  12  26
HETATM   26  C18 UNL     1      16.809  51.603  15.607  1.00  0.00     0.191 C 
BRANCH  26  27
HETATM   27  O1  UNL     1      15.958  52.612  15.185  1.00  0.00    -0.399 OA
ATOM     28  H1  UNL     1      15.122  52.274  14.886  1.00  0.00     0.209 HD
ENDBRANCH  26  27
ENDBRANCH  12  26
BRANCH  11  29
HETATM   29  C13 UNL     1      18.654  50.451  17.473  1.00  0.00     0.175 C 
BRANCH  29  30
HETATM   30  N5  UNL     1      19.619  49.454  17.053  1.00  0.00    -0.300 N 
HETATM   31  C14 UNL     1      19.366  48.490  16.123  1.00  0.00     0.113 A 
HETATM   32  C15 UNL     1      20.493  47.713  15.960  1.00  0.00     0.065 A 
HETATM   33  C16 UNL     1      21.435  48.236  16.820  1.00  0.00     0.132 A 
HETATM   34  N6  UNL     1      22.746  47.744  16.979  1.00  0.00    -0.081 NA
HETATM   35  N7  UNL     1      20.870  49.296  17.469  1.00  0.00    -0.286 N 
ATOM     36  H7  UNL     1      21.337  49.876  18.167  1.00  0.00     0.188 HD
ENDBRANCH  29  30
ENDBRANCH  11  29
TORSDOF 8
ENDMDL
MODEL 4
REMARK VINA RESULT: -8.448302048      3.805      9.083
REMARK  8 active torsions:
REMARK  status: ('A' for Active; 'I' for Inactive)
REMARK    1  A    between atoms: N1_1  and  C1_4 
REMARK    2  A    between atoms: C2_7  and  S1_8 
REMARK    3  A    between atoms: S1_8  and  C3_9 
REMARK    4  A    between atoms: C3_9  and  C4_10 
REMARK    5  A    between atoms: C12_22  and  C13_23 
REMARK    6  A    between atoms: C13_23  and  N5_24 
REMARK    7  A    between atoms: C17_31  and  C18_32 
REMARK    8  A    between atoms: C18_32  and  O1_33 
ROOT
HETATM    1  C1  UNL     1      15.282  51.715  20.285  1.00  0.00     0.131 A 
HETATM    2  N2  UNL     1      15.988  50.938  19.447  1.00  0.00    -0.321 N 
ATOM      3  H2  UNL     1      15.548  50.565  18.606  1.00  0.00     0.169 HD
HETATM    4  C2  UNL     1      17.280  50.651  19.718  1.00  0.00     0.147 A 
HETATM    5  N3  UNL     1      17.894  51.119  20.808  1.00  0.00    -0.321 N 
ATOM      6  H3  UNL     1      18.870  50.884  20.986  1.00  0.00     0.169 HD
HETATM    7  C10 UNL     1      17.218  51.902  21.671  1.00  0.00     0.134 A 
HETATM    8  C11 UNL     1      15.900  52.214  21.424  1.00  0.00     0.117 A 
HETATM    9  N4  UNL     1      15.216  53.039  22.349  1.00  0.00    -0.376 N 
ATOM     10  H4  UNL     1      14.196  53.034  22.370  1.00  0.00     0.160 HD
HETATM   11  C12 UNL     1      15.939  53.883  23.258  1.00  0.00     0.126 C 
HETATM   12  C17 UNL     1      17.103  53.113  23.845  1.00  0.00     0.131 C 
HETATM   13  N8  UNL     1      17.831  52.414  22.831  1.00  0.00    -0.365 N 
ATOM     14  H8  UNL     1      18.836  52.282  22.953  1.00  0.00     0.161 HD
ENDROOT
BRANCH   4  15
HETATM   15  S1  UNL     1      18.142  49.614  18.556  1.00  0.00    -0.089 SA
BRANCH  15  16
HETATM   16  C3  UNL     1      19.754  50.419  18.222  1.00  0.00     0.121 C 
BRANCH  16  17
HETATM   17  C4  UNL     1      20.670  49.369  17.706  1.00  0.00    -0.049 A 
HETATM   18  C5  UNL     1      22.056  49.488  17.817  1.00  0.00     0.008 A 
HETATM   19  C6  UNL     1      22.901  48.514  17.337  1.00  0.00     0.001 A 
HETATM   20  C7  UNL     1      22.423  47.380  16.726  1.00  0.00     0.000 A 
HETATM   21  C8  UNL     1      21.063  47.239  16.605  1.00  0.00     0.001 A 
HETATM   22  C9  UNL     1      20.205  48.225  17.090  1.00  0.00     0.008 A 
ENDBRANCH  16  17
ENDBRANCH  15  16
ENDBRANCH   4  15
BRANCH   1  23
HETATM   23  N1  UNL     1      14.048  52.013  20.063  1.00  0.00    -0.383 N 
ATOM     24  H12 UNL     1      13.590  51.635  19.234  1.00  0.00     0.157 HD
ATOM     25  H11 UNL     1      13.516  52.613  20.692  1.00  0.00     0.157 HD
ENDBRANCH   1  23
BRANCH  12  26
HETATM   26  C18 UNL     1      18.050  54.033  24.585  1.00  0.00     0.191 C 
BRANCH  26  27
HETATM   27  O1  UNL     1      17.509  54.489  25.777  1.00  0.00    -0.399 OA
ATOM     28  H1  UNL     1      17.898  54.064  26.532  1.00  0.00     0.209 HD
ENDBRANCH  26  27
ENDBRANCH  12  26
BRANCH  11  29
HETATM   29  C13 UNL     1      16.423  55.097  22.480  1.00  0.00     0.175 C 
BRANCH  29  30
HETATM   30  N5  UNL     1      15.846  56.279  23.090  1.00  0.00    -0.300 N 
HETATM   31  C14 UNL     1      14.743  56.264  23.891  1.00  0.00     0.113 A 
HETATM   32  C15 UNL     1      14.465  57.551  24.301  1.00  0.00     0.065 A 
HETATM   33  C16 UNL     1      15.433  58.345  23.723  1.00  0.00     0.132 A 
HETATM   34  N6  UNL     1      15.532  59.742  23.877  1.00  0.00    -0.081 NA
HETATM   35  N7  UNL     1      16.258  57.538  22.993  1.00  0.00    -0.286 N 
ATOM     36  H7  UNL     1      17.066  57.853  22.455  1.00  0.00     0.188 HD
ENDBRANCH  29  30
ENDBRANCH  11  29
TORSDOF 8
ENDMDL
MODEL 5
REMARK VINA RESULT: -8.239106774      0.943      1.277
REMARK  8 active torsions:
REMARK  status: ('A' for Active; 'I' for Inactive)
REMARK    1  A    between atoms: N1_1  and  C1_4 
REMARK    2  A    between atoms: C2_7  and  S1_8 
REMARK    3  A    between atoms: S1_8  and  C3_9 
REMARK    4  A    between atoms: C3_9  and  C4_10 
REMARK    5  A    between atoms: C12_22  and  C13_23 
REMARK    6  A    between atoms: C13_23  and  N5_24 
REMARK    7  A    between atoms: C17_31  and  C18_32 
REMARK    8  A    between atoms: C18_32  and  O1_33 
ROOT
HETATM    1  C1  UNL     1      16.326  49.916  20.986  1.00  0.00     0.131 A 
HETATM    2  N2  UNL     1      15.800  50.831  21.817  1.00  0.00    -0.321 N 
ATOM      3  H2  UNL     1      15.720  50.628  22.813  1.00  0.00     0.169 HD
HETATM    4  C2  UNL     1      15.378  52.020  21.334  1.00  0.00     0.147 A 
HETATM    5  N3  UNL     1      15.464  52.326  20.037  1.00  0.00    -0.321 N 
ATOM      6  H3  UNL     1      15.136  53.231  19.701  1.00  0.00     0.169 HD
HETATM    7  C10 UNL     1      15.986  51.434  19.173  1.00  0.00     0.134 A 
HETATM    8  C11 UNL     1      16.427  50.213  19.633  1.00  0.00     0.117 A 
HETATM    9  N4  UNL     1      16.971  49.296  18.702  1.00  0.00    -0.376 N 
ATOM     10  H4  UNL     1      17.014  48.305  18.938  1.00  0.00     0.160 HD
HETATM   11  C12 UNL     1      17.464  49.744  17.430  1.00  0.00     0.126 C 
HETATM   12  C17 UNL     1      16.494  50.742  16.834  1.00  0.00     0.131 C 
HETATM   13  N8  UNL     1      16.094  51.720  17.798  1.00  0.00    -0.365 N 
ATOM     14  H8  UNL     1      15.879  52.664  17.476  1.00  0.00     0.161 HD
ENDROOT
BRANCH   4  15
HETATM   15  S1  UNL     1      14.694  53.175  22.503  1.00  0.00    -0.089 SA
BRANCH  15  16
HETATM   16  C3  UNL     1      15.467  52.808  24.124  1.00  0.00     0.121 C 
BRANCH  16  17
HETATM   17  C4  UNL     1      16.551  53.804  24.328  1.00  0.00    -0.049 A 
HETATM   18  C5  UNL     1      16.411  55.131  23.919  1.00  0.00     0.008 A 
HETATM   19  C6  UNL     1      17.417  56.050  24.109  1.00  0.00     0.001 A 
HETATM   20  C7  UNL     1      18.604  55.708  24.709  1.00  0.00     0.000 A 
HETATM   21  C8  UNL     1      18.766  54.408  25.120  1.00  0.00     0.001 A 
HETATM   22  C9  UNL     1      17.748  53.475  24.928  1.00  0.00     0.008 A 
ENDBRANCH  16  17
ENDBRANCH  15  16
ENDBRANCH   4  15
BRANCH   1  23
HETATM   23  N1  UNL     1      16.741  48.771  21.406  1.00  0.00    -0.383 N 
ATOM     24  H12 UNL     1      16.195  48.277  22.112  1.00  0.00     0.157 HD
ATOM     25  H11 UNL     1      17.597  48.344  21.053  1.00  0.00     0.157 HD
ENDBRANCH   1  23
BRANCH  12  26
HETATM   26  C18 UNL     1      17.098  51.446  15.639  1.00  0.00     0.191 C 
BRANCH  26  27
HETATM   27  O1  UNL     1      17.409  50.564  14.616  1.00  0.00    -0.399 OA
ATOM     28  H1  UNL     1      18.334  50.349  14.599  1.00  0.00     0.209 HD
ENDBRANCH  26  27
ENDBRANCH  12  26
BRANCH  11  29
HETATM   29  C13 UNL     1      18.829  50.376  17.657  1.00  0.00     0.175 C 
BRANCH  29  30
HETATM   30  N5  UNL     1      19.838  49.432  17.218  1.00  0.00    -0.300 N 
HETATM   31  C14 UNL     1      19.611  48.434  16.319  1.00  0.00     0.113 A 
HETATM   32  C15 UNL     1      20.778  47.725  16.126  1.00  0.00     0.065 A 
HETATM   33  C16 UNL     1      21.718  48.326  16.937  1.00  0.00     0.132 A 
HETATM   34  N6  UNL     1      23.062  47.920  17.053  1.00  0.00    -0.081 NA
HETATM   35  N7  UNL     1      21.112  49.362  17.588  1.00  0.00    -0.286 N 
ATOM     36  H7  UNL     1      21.567  49.986  18.254  1.00  0.00     0.188 HD
ENDBRANCH  29  30
ENDBRANCH  11  29
TORSDOF 8
ENDMDL
