MODEL 1
REMARK VINA RESULT: -8.681378190      0.000      0.000
REMARK  8 active torsions:
REMARK  status: ('A' for Active; 'I' for Inactive)
REMARK    1  A    between atoms: N2_3  and  N3_5 
REMARK    2  A    between atoms: N3_5  and  C2_7 
REMARK    3  A    between atoms: C3_8  and  C4_9 
REMARK    4  A    between atoms: C4_9  and  S1_10 
REMARK    5  A    between atoms: S1_10  and  C5_11 
REMARK    6  A    between atoms: N7_21  and  C7_22 
REMARK    7  A    between atoms: C7_22  and  C8_23 
REMARK    8  A    between atoms: C10_29  and  N9_30 
ROOT
HETATM    1  N1  UNL     1      13.412  49.652  20.141  1.00  0.00    -0.170 NA
HETATM    2  C1  UNL     1      13.812  50.680  19.863  1.00  0.00     0.197 C 
HETATM    3  N2  UNL     1      14.295  51.874  19.489  1.00  0.00    -0.236 N 
ATOM      4  H2  UNL     1      13.584  52.606  19.476  1.00  0.00     0.199 HD
ENDROOT
BRANCH   3   5
HETATM    5  N3  UNL     1      15.419  52.284  19.155  1.00  0.00    -0.289 N 
ATOM      6  H3  UNL     1      16.020  52.807  19.792  1.00  0.00     0.188 HD
BRANCH   5   7
HETATM    7  C2  UNL     1      15.820  51.971  17.798  1.00  0.00     0.091 A 
HETATM    8  C3  UNL     1      16.675  50.920  17.456  1.00  0.00     0.052 A 
HETATM    9  N7  UNL     1      16.854  50.909  16.158  1.00  0.00    -0.322 N 
HETATM   10  C9  UNL     1      16.131  51.956  15.641  1.00  0.00     0.142 A 
HETATM   11  N8  UNL     1      15.956  52.439  14.415  1.00  0.00    -0.175 N 
HETATM   12  C12 UNL     1      15.490  52.617  16.670  1.00  0.00     0.107 A 
HETATM   13  C10 UNL     1      15.212  53.513  14.215  1.00  0.00     0.680 A 
ATOM     14  H8  UNL     1      16.400  51.977  13.621  1.00  0.00     0.186 HD
HETATM   15  N10 UNL     1      14.583  54.186  15.190  1.00  0.00    -0.155 N 
HETATM   16  C11 UNL     1      14.717  53.734  16.459  1.00  0.00     0.276 A 
ATOM     17  H10 UNL     1      14.022  55.012  14.982  1.00  0.00     0.187 HD
HETATM   18  O3  UNL     1      14.149  54.310  17.453  1.00  0.00    -0.267 OA
BRANCH   8  19
HETATM   19  C4  UNL     1      17.224  50.007  18.508  1.00  0.00     0.141 C 
BRANCH  19  20
HETATM   20  S1  UNL     1      18.953  50.277  18.727  1.00  0.00    -0.097 SA
BRANCH  20  21
HETATM   21  C5  UNL     1      20.053  49.188  17.922  1.00  0.00     0.130 A 
HETATM   22  N4  UNL     1      19.857  48.158  17.136  1.00  0.00    -0.286 N 
HETATM   23  N5  UNL     1      20.814  47.535  16.584  1.00  0.00    -0.279 N 
ATOM     24  H4  UNL     1      18.902  47.846  16.962  1.00  0.00     0.188 HD
HETATM   25  C6  UNL     1      22.054  47.937  16.813  1.00  0.00     0.159 A 
ATOM     26  H5  UNL     1      20.631  46.738  15.974  1.00  0.00     0.189 HD
HETATM   27  N6  UNL     1      23.208  47.464  16.387  1.00  0.00    -0.379 N 
HETATM   28  S2  UNL     1      21.813  49.278  17.877  1.00  0.00    -0.027 SA
ATOM     29  H62 UNL     1      23.350  46.672  15.758  1.00  0.00     0.158 HD
ATOM     30  H61 UNL     1      24.163  47.774  16.564  1.00  0.00     0.158 HD
ENDBRANCH  20  21
ENDBRANCH  19  20
ENDBRANCH   8  19
BRANCH   9  31
HETATM   31  C7  UNL     1      17.422  49.919  15.259  1.00  0.00     0.243 C 
BRANCH  31  32
HETATM   32  C8  UNL     1      18.639  50.553  14.592  1.00  0.00     0.191 C 
HETATM   33  O1  UNL     1      19.759  50.356  15.098  1.00  0.00    -0.647 OA
HETATM   34  O2  UNL     1      18.516  51.330  13.443  1.00  0.00    -0.647 OA
ENDBRANCH  31  32
ENDBRANCH   9  31
BRANCH  13  35
HETATM   35  N9  UNL     1      15.082  53.943  12.997  1.00  0.00    -0.234 N 
ATOM     36  H92 UNL     1      14.654  53.319  12.313  1.00  0.00     0.174 HD
ATOM     37  H91 UNL     1      15.414  54.883  12.786  1.00  0.00     0.174 HD
ENDBRANCH  13  35
ENDBRANCH   5   7
ENDBRANCH   3   5
TORSDOF 8
ENDMDL
MODEL 2
REMARK VINA RESULT: -7.828378147      2.752      6.017
REMARK  8 active torsions:
REMARK  status: ('A' for Active; 'I' for Inactive)
REMARK    1  A    between atoms: N2_3  and  N3_5 
REMARK    2  A    between atoms: N3_5  and  C2_7 
REMARK    3  A    between atoms: C3_8  and  C4_9 
REMARK    4  A    between atoms: C4_9  and  S1_10 
REMARK    5  A    between atoms: S1_10  and  C5_11 
REMARK    6  A    between atoms: N7_21  and  C7_22 
REMARK    7  A    between atoms: C7_22  and  C8_23 
REMARK    8  A    between atoms: C10_29  and  N9_30 
ROOT
HETATM    1  N1  UNL     1      21.038  50.797  18.785  1.00  0.00    -0.170 NA
HETATM    2  C1  UNL     1      20.353  50.079  18.228  1.00  0.00     0.197 C 
HETATM    3  N2  UNL     1      19.518  49.271  17.558  1.00  0.00    -0.236 N 
ATOM      4  H2  UNL     1      19.965  48.798  16.773  1.00  0.00     0.199 HD
ENDROOT
BRANCH   3   5
HETATM    5  N3  UNL     1      18.319  48.973  17.685  1.00  0.00    -0.289 N 
ATOM      6  H3  UNL     1      18.013  48.022  17.890  1.00  0.00     0.188 HD
BRANCH   5   7
HETATM    7  C2  UNL     1      17.384  50.068  17.521  1.00  0.00     0.091 A 
HETATM    8  C3  UNL     1      16.480  50.480  18.504  1.00  0.00     0.052 A 
HETATM    9  N7  UNL     1      15.766  51.479  18.047  1.00  0.00    -0.322 N 
HETATM   10  C9  UNL     1      16.184  51.722  16.762  1.00  0.00     0.142 A 
HETATM   11  N8  UNL     1      15.813  52.581  15.818  1.00  0.00    -0.175 N 
HETATM   12  C12 UNL     1      17.192  50.836  16.439  1.00  0.00     0.107 A 
HETATM   13  C10 UNL     1      16.386  52.560  14.627  1.00  0.00     0.680 A 
ATOM     14  H8  UNL     1      15.081  53.263  16.014  1.00  0.00     0.186 HD
HETATM   15  N10 UNL     1      17.361  51.709  14.274  1.00  0.00    -0.155 N 
HETATM   16  C11 UNL     1      17.786  50.816  15.198  1.00  0.00     0.276 A 
ATOM     17  H10 UNL     1      17.767  51.733  13.340  1.00  0.00     0.187 HD
HETATM   18  O3  UNL     1      18.714  49.967  14.952  1.00  0.00    -0.267 OA
BRANCH   8  19
HETATM   19  C4  UNL     1      16.443  49.807  19.842  1.00  0.00     0.141 C 
BRANCH  19  20
HETATM   20  S1  UNL     1      17.628  50.525  20.933  1.00  0.00    -0.097 SA
BRANCH  20  21
HETATM   21  C5  UNL     1      17.271  52.098  21.597  1.00  0.00     0.130 A 
HETATM   22  N4  UNL     1      16.534  53.092  21.165  1.00  0.00    -0.286 N 
HETATM   23  N5  UNL     1      16.342  54.142  21.850  1.00  0.00    -0.279 N 
ATOM     24  H4  UNL     1      16.099  53.018  20.245  1.00  0.00     0.188 HD
HETATM   25  C6  UNL     1      16.910  54.239  23.042  1.00  0.00     0.159 A 
ATOM     26  H5  UNL     1      15.760  54.898  21.489  1.00  0.00     0.189 HD
HETATM   27  N6  UNL     1      16.888  55.210  23.932  1.00  0.00    -0.379 N 
HETATM   28  S2  UNL     1      17.757  52.738  23.167  1.00  0.00    -0.027 SA
ATOM     29  H62 UNL     1      16.387  56.096  23.859  1.00  0.00     0.158 HD
ATOM     30  H61 UNL     1      17.326  55.284  24.851  1.00  0.00     0.158 HD
ENDBRANCH  20  21
ENDBRANCH  19  20
ENDBRANCH   8  19
BRANCH   9  31
HETATM   31  C7  UNL     1      14.884  52.429  18.703  1.00  0.00     0.243 C 
BRANCH  31  32
HETATM   32  C8  UNL     1      13.992  51.640  19.659  1.00  0.00     0.191 C 
HETATM   33  O1  UNL     1      13.917  52.016  20.843  1.00  0.00    -0.647 OA
HETATM   34  O2  UNL     1      13.271  50.529  19.229  1.00  0.00    -0.647 OA
ENDBRANCH  31  32
ENDBRANCH   9  31
BRANCH  13  35
HETATM   35  N9  UNL     1      15.979  53.419  13.743  1.00  0.00    -0.234 N 
ATOM     36  H92 UNL     1      15.600  53.060  12.867  1.00  0.00     0.174 HD
ATOM     37  H91 UNL     1      16.059  54.410  13.970  1.00  0.00     0.174 HD
ENDBRANCH  13  35
ENDBRANCH   5   7
ENDBRANCH   3   5
TORSDOF 8
ENDMDL
MODEL 3
REMARK VINA RESULT: -7.529518965      1.826      4.047
REMARK  8 active torsions:
REMARK  status: ('A' for Active; 'I' for Inactive)
REMARK    1  A    between atoms: N2_3  and  N3_5 
REMARK    2  A    between atoms: N3_5  and  C2_7 
REMARK    3  A    between atoms: C3_8  and  C4_9 
REMARK    4  A    between atoms: C4_9  and  S1_10 
REMARK    5  A    between atoms: S1_10  and  C5_11 
REMARK    6  A    between atoms: N7_21  and  C7_22 
REMARK    7  A    between atoms: C7_22  and  C8_23 
REMARK    8  A    between atoms: C10_29  and  N9_30 
ROOT
HETATM    1  N1  UNL     1      18.288  47.062  14.882  1.00  0.00    -0.170 NA
HETATM    2  C1  UNL     1      17.950  48.148  14.838  1.00  0.00     0.197 C 
HETATM    3  N2  UNL     1      17.597  49.440  14.765  1.00  0.00    -0.236 N 
ATOM      4  H2  UNL     1      16.811  49.603  14.136  1.00  0.00     0.199 HD
ENDROOT
BRANCH   3   5
HETATM    5  N3  UNL     1      18.017  50.481  15.296  1.00  0.00    -0.289 N 
ATOM      6  H3  UNL     1      18.916  50.895  15.048  1.00  0.00     0.188 HD
BRANCH   5   7
HETATM    7  C2  UNL     1      17.145  51.069  16.292  1.00  0.00     0.091 A 
HETATM    8  C3  UNL     1      16.999  50.580  17.593  1.00  0.00     0.052 A 
HETATM    9  N7  UNL     1      16.130  51.317  18.241  1.00  0.00    -0.322 N 
HETATM   10  C9  UNL     1      15.691  52.284  17.370  1.00  0.00     0.142 A 
HETATM   11  N8  UNL     1      14.809  53.275  17.461  1.00  0.00    -0.175 N 
HETATM   12  C12 UNL     1      16.325  52.122  16.155  1.00  0.00     0.107 A 
HETATM   13  C10 UNL     1      14.556  54.046  16.418  1.00  0.00     0.680 A 
ATOM     14  H8  UNL     1      14.324  53.441  18.342  1.00  0.00     0.186 HD
HETATM   15  N10 UNL     1      15.145  53.913  15.220  1.00  0.00    -0.155 N 
HETATM   16  C11 UNL     1      16.060  52.927  15.071  1.00  0.00     0.276 A 
ATOM     17  H10 UNL     1      14.912  54.535  14.447  1.00  0.00     0.187 HD
HETATM   18  O3  UNL     1      16.676  52.727  13.966  1.00  0.00    -0.267 OA
BRANCH   8  19
HETATM   19  C4  UNL     1      17.786  49.393  18.058  1.00  0.00     0.141 C 
BRANCH  19  20
HETATM   20  S1  UNL     1      19.459  49.844  18.386  1.00  0.00    -0.097 SA
BRANCH  20  21
HETATM   21  C5  UNL     1      20.717  48.867  17.676  1.00  0.00     0.130 A 
HETATM   22  N4  UNL     1      20.683  47.779  16.947  1.00  0.00    -0.286 N 
HETATM   23  N5  UNL     1      21.731  47.257  16.458  1.00  0.00    -0.279 N 
ATOM     24  H4  UNL     1      19.783  47.335  16.766  1.00  0.00     0.188 HD
HETATM   25  C6  UNL     1      22.900  47.831  16.697  1.00  0.00     0.159 A 
ATOM     26  H5  UNL     1      21.673  46.411  15.891  1.00  0.00     0.189 HD
HETATM   27  N6  UNL     1      24.119  47.490  16.330  1.00  0.00    -0.379 N 
HETATM   28  S2  UNL     1      22.451  49.184  17.673  1.00  0.00    -0.027 SA
ATOM     29  H62 UNL     1      24.384  46.691  15.753  1.00  0.00     0.158 HD
ATOM     30  H61 UNL     1      25.020  47.932  16.514  1.00  0.00     0.158 HD
ENDBRANCH  20  21
ENDBRANCH  19  20
ENDBRANCH   8  19
BRANCH   9  31
HETATM   31  C7  UNL     1      15.794  51.418  19.651  1.00  0.00     0.243 C 
BRANCH  31  32
HETATM   32  C8  UNL     1      14.389  50.850  19.827  1.00  0.00     0.191 C 
HETATM   33  O1  UNL     1      14.269  49.634  20.063  1.00  0.00    -0.647 OA
HETATM   34  O2  UNL     1      13.260  51.660  19.733  1.00  0.00    -0.647 OA
ENDBRANCH  31  32
ENDBRANCH   9  31
BRANCH  13  35
HETATM   35  N9  UNL     1      13.681  54.994  16.564  1.00  0.00    -0.234 N 
ATOM     36  H92 UNL     1      12.724  54.730  16.797  1.00  0.00     0.174 HD
ATOM     37  H91 UNL     1      13.995  55.956  16.438  1.00  0.00     0.174 HD
ENDBRANCH  13  35
ENDBRANCH   5   7
ENDBRANCH   3   5
TORSDOF 8
ENDMDL
MODEL 4
REMARK VINA RESULT: -7.356409282      2.536      5.095
REMARK  8 active torsions:
REMARK  status: ('A' for Active; 'I' for Inactive)
REMARK    1  A    between atoms: N2_3  and  N3_5 
REMARK    2  A    between atoms: N3_5  and  C2_7 
REMARK    3  A    between atoms: C3_8  and  C4_9 
REMARK    4  A    between atoms: C4_9  and  S1_10 
REMARK    5  A    between atoms: S1_10  and  C5_11 
REMARK    6  A    between atoms: N7_21  and  C7_22 
REMARK    7  A    between atoms: C7_22  and  C8_23 
REMARK    8  A    between atoms: C10_29  and  N9_30 
ROOT
HETATM    1  N1  UNL     1      12.963  50.377  20.907  1.00  0.00    -0.170 NA
HETATM    2  C1  UNL     1      13.549  50.597  19.955  1.00  0.00     0.197 C 
HETATM    3  N2  UNL     1      14.280  50.843  18.858  1.00  0.00    -0.236 N 
ATOM      4  H2  UNL     1      14.052  50.224  18.080  1.00  0.00     0.199 HD
ENDROOT
BRANCH   3   5
HETATM    5  N3  UNL     1      15.174  51.660  18.582  1.00  0.00    -0.289 N 
ATOM      6  H3  UNL     1      15.122  52.639  18.863  1.00  0.00     0.188 HD
BRANCH   5   7
HETATM    7  C2  UNL     1      16.295  51.129  17.833  1.00  0.00     0.091 A 
HETATM    8  C3  UNL     1      17.227  50.227  18.351  1.00  0.00     0.052 A 
HETATM    9  N7  UNL     1      18.122  49.951  17.435  1.00  0.00    -0.322 N 
HETATM   10  C9  UNL     1      17.794  50.677  16.317  1.00  0.00     0.142 A 
HETATM   11  N8  UNL     1      18.342  50.816  15.114  1.00  0.00    -0.175 N 
HETATM   12  C12 UNL     1      16.654  51.413  16.573  1.00  0.00     0.107 A 
HETATM   13  C10 UNL     1      17.812  51.637  14.224  1.00  0.00     0.680 A 
ATOM     14  H8  UNL     1      19.178  50.284  14.875  1.00  0.00     0.186 HD
HETATM   15  N10 UNL     1      16.712  52.374  14.440  1.00  0.00    -0.155 N 
HETATM   16  C11 UNL     1      16.105  52.267  15.645  1.00  0.00     0.276 A 
ATOM     17  H10 UNL     1      16.345  52.996  13.720  1.00  0.00     0.187 HD
HETATM   18  O3  UNL     1      15.048  52.929  15.939  1.00  0.00    -0.267 OA
BRANCH   8  19
HETATM   19  C4  UNL     1      17.100  49.716  19.754  1.00  0.00     0.141 C 
BRANCH  19  20
HETATM   20  S1  UNL     1      17.703  50.906  20.907  1.00  0.00    -0.097 SA
BRANCH  20  21
HETATM   21  C5  UNL     1      16.530  51.843  21.794  1.00  0.00     0.130 A 
HETATM   22  N4  UNL     1      15.415  51.516  22.401  1.00  0.00    -0.286 N 
HETATM   23  N5  UNL     1      14.733  52.353  23.066  1.00  0.00    -0.279 N 
ATOM     24  H4  UNL     1      15.085  50.554  22.336  1.00  0.00     0.188 HD
HETATM   25  C6  UNL     1      15.162  53.604  23.146  1.00  0.00     0.159 A 
ATOM     26  H5  UNL     1      13.871  52.069  23.530  1.00  0.00     0.189 HD
HETATM   27  N6  UNL     1      14.644  54.657  23.747  1.00  0.00    -0.379 N 
HETATM   28  S2  UNL     1      16.616  53.554  22.214  1.00  0.00    -0.027 SA
ATOM     29  H62 UNL     1      13.785  54.686  24.298  1.00  0.00     0.158 HD
ATOM     30  H61 UNL     1      14.974  55.620  23.809  1.00  0.00     0.158 HD
ENDBRANCH  20  21
ENDBRANCH  19  20
ENDBRANCH   8  19
BRANCH   9  31
HETATM   31  C7  UNL     1      19.139  48.918  17.344  1.00  0.00     0.243 C 
BRANCH  31  32
HETATM   32  C8  UNL     1      20.471  49.551  17.738  1.00  0.00     0.191 C 
HETATM   33  O1  UNL     1      21.518  49.049  17.293  1.00  0.00    -0.647 OA
HETATM   34  O2  UNL     1      20.526  50.667  18.571  1.00  0.00    -0.647 OA
ENDBRANCH  31  32
ENDBRANCH   9  31
BRANCH  13  35
HETATM   35  N9  UNL     1      18.393  51.736  13.068  1.00  0.00    -0.234 N 
ATOM     36  H92 UNL     1      18.804  50.893  12.666  1.00  0.00     0.174 HD
ATOM     37  H91 UNL     1      18.410  52.652  12.620  1.00  0.00     0.174 HD
ENDBRANCH  13  35
ENDBRANCH   5   7
ENDBRANCH   3   5
TORSDOF 8
ENDMDL
MODEL 5
REMARK VINA RESULT: -7.159768234      2.355      6.085
REMARK  8 active torsions:
REMARK  status: ('A' for Active; 'I' for Inactive)
REMARK    1  A    between atoms: N2_3  and  N3_5 
REMARK    2  A    between atoms: N3_5  and  C2_7 
REMARK    3  A    between atoms: C3_8  and  C4_9 
REMARK    4  A    between atoms: C4_9  and  S1_10 
REMARK    5  A    between atoms: S1_10  and  C5_11 
REMARK    6  A    between atoms: N7_21  and  C7_22 
REMARK    7  A    between atoms: C7_22  and  C8_23 
REMARK    8  A    between atoms: C10_29  and  N9_30 
ROOT
HETATM    1  N1  UNL     1      22.571  49.639  17.886  1.00  0.00    -0.170 NA
HETATM    2  C1  UNL     1      21.450  49.695  18.073  1.00  0.00     0.197 C 
HETATM    3  N2  UNL     1      20.130  49.713  18.308  1.00  0.00    -0.236 N 
ATOM      4  H2  UNL     1      19.866  50.358  19.054  1.00  0.00     0.199 HD
ENDROOT
BRANCH   3   5
HETATM    5  N3  UNL     1      19.157  49.117  17.817  1.00  0.00    -0.289 N 
ATOM      6  H3  UNL     1      19.160  48.109  17.657  1.00  0.00     0.188 HD
BRANCH   5   7
HETATM    7  C2  UNL     1      18.018  49.948  17.486  1.00  0.00     0.091 A 
HETATM    8  C3  UNL     1      16.859  50.036  18.262  1.00  0.00     0.052 A 
HETATM    9  N7  UNL     1      16.012  50.855  17.690  1.00  0.00    -0.322 N 
HETATM   10  C9  UNL     1      16.600  51.301  16.532  1.00  0.00     0.142 A 
HETATM   11  N8  UNL     1      16.212  52.113  15.554  1.00  0.00    -0.175 N 
HETATM   12  C12 UNL     1      17.850  50.729  16.409  1.00  0.00     0.107 A 
HETATM   13  C10 UNL     1      16.996  52.336  14.514  1.00  0.00     0.680 A 
ATOM     14  H8  UNL     1      15.301  52.569  15.607  1.00  0.00     0.186 HD
HETATM   15  N10 UNL     1      18.212  51.791  14.356  1.00  0.00    -0.155 N 
HETATM   16  C11 UNL     1      18.665  50.962  15.325  1.00  0.00     0.276 A 
ATOM     17  H10 UNL     1      18.776  51.995  13.531  1.00  0.00     0.187 HD
HETATM   18  O3  UNL     1      19.814  50.400  15.261  1.00  0.00    -0.267 OA
BRANCH   8  19
HETATM   19  C4  UNL     1      16.735  49.268  19.542  1.00  0.00     0.141 C 
BRANCH  19  20
HETATM   20  S1  UNL     1      17.455  50.164  20.880  1.00  0.00    -0.097 SA
BRANCH  20  21
HETATM   21  C5  UNL     1      16.517  51.452  21.590  1.00  0.00     0.130 A 
HETATM   22  N4  UNL     1      15.227  51.665  21.668  1.00  0.00    -0.286 N 
HETATM   23  N5  UNL     1      14.738  52.645  22.307  1.00  0.00    -0.279 N 
ATOM     24  H4  UNL     1      14.593  51.020  21.197  1.00  0.00     0.188 HD
HETATM   25  C6  UNL     1      15.563  53.485  22.915  1.00  0.00     0.159 A 
ATOM     26  H5  UNL     1      13.729  52.784  22.353  1.00  0.00     0.189 HD
HETATM   27  N6  UNL     1      15.322  54.574  23.618  1.00  0.00    -0.379 N 
HETATM   28  S2  UNL     1      17.111  52.817  22.536  1.00  0.00    -0.027 SA
ATOM     29  H62 UNL     1      14.408  54.969  23.841  1.00  0.00     0.158 HD
ATOM     30  H61 UNL     1      15.957  55.221  24.085  1.00  0.00     0.158 HD
ENDBRANCH  20  21
ENDBRANCH  19  20
ENDBRANCH   8  19
BRANCH   9  31
HETATM   31  C7  UNL     1      14.797  51.493  18.167  1.00  0.00     0.243 C 
BRANCH  31  32
HETATM   32  C8  UNL     1      15.110  52.973  18.374  1.00  0.00     0.191 C 
HETATM   33  O1  UNL     1      15.817  53.297  19.345  1.00  0.00    -0.647 OA
HETATM   34  O2  UNL     1      14.626  53.947  17.503  1.00  0.00    -0.647 OA
ENDBRANCH  31  32
ENDBRANCH   9  31
BRANCH  13  35
HETATM   35  N9  UNL     1      16.561  53.134  13.587  1.00  0.00    -0.234 N 
ATOM     36  H92 UNL     1      17.115  53.963  13.372  1.00  0.00     0.174 HD
ATOM     37  H91 UNL     1      15.688  52.892  13.120  1.00  0.00     0.174 HD
ENDBRANCH  13  35
ENDBRANCH   5   7
ENDBRANCH   3   5
TORSDOF 8
ENDMDL
