MODEL 1
REMARK VINA RESULT: -8.340159868      0.000      0.000
REMARK  9 active torsions:
REMARK  status: ('A' for Active; 'I' for Inactive)
REMARK       I    between atoms: C1_4  and  N2_5 
REMARK       I    between atoms: C1_4  and  N4_10 
REMARK    1  A    between atoms: N2_5  and  N3_7 
REMARK    2  A    between atoms: N4_10  and  C2_12 
REMARK    3  A    between atoms: C2_12  and  C3_13 
REMARK    4  A    between atoms: C3_13  and  C4_14 
REMARK    5  A    between atoms: C4_14  and  N5_15 
REMARK    6  A    between atoms: N5_15  and  C5_17 
REMARK    7  A    between atoms: N7_20  and  N8_21 
REMARK    8  A    between atoms: C7_24  and  S1_25 
REMARK    9  A    between atoms: S1_25  and  C8_26 
ROOT
HETATM    1  C5  UNL     1      16.017  51.973  19.446  1.00  0.00     0.110 A 
HETATM    2  C6  UNL     1      16.064  52.624  18.233  1.00  0.00     0.169 A 
HETATM    3  N6  UNL     1      15.298  53.828  18.082  1.00  0.00    -0.078 NA
HETATM    4  N7  UNL     1      16.813  52.119  17.241  1.00  0.00    -0.224 N 
HETATM    5  C7  UNL     1      17.539  50.988  17.367  1.00  0.00     0.173 A 
HETATM    6  N10 UNL     1      17.507  50.339  18.541  1.00  0.00    -0.324 N 
ATOM      7  H10 UNL     1      18.047  49.482  18.659  1.00  0.00     0.169 HD
HETATM    8  C14 UNL     1      16.768  50.808  19.566  1.00  0.00     0.132 A 
HETATM    9  S2  UNL     1      16.738  50.015  20.980  1.00  0.00    -0.058 SA
ENDROOT
BRANCH   1  10
HETATM   10  N5  UNL     1      15.260  52.433  20.554  1.00  0.00    -0.385 N 
ATOM     11  H5  UNL     1      14.450  51.882  20.835  1.00  0.00     0.159 HD
BRANCH  10  12
HETATM   12  C4  UNL     1      15.553  53.620  21.308  1.00  0.00     0.121 C 
BRANCH  12  13
HETATM   13  C3  UNL     1      16.841  53.467  22.112  1.00  0.00     0.040 C 
BRANCH  13  14
HETATM   14  C2  UNL     1      16.828  54.405  23.304  1.00  0.00     0.139 C 
BRANCH  14  15
HETATM   15  N4  UNL     1      15.944  55.508  22.988  1.00  0.00    -0.225 N 
HETATM   16  C1  UNL     1      16.003  56.719  23.730  1.00  0.00     0.685 C 
HETATM   17  N1  UNL     1      15.692  56.675  24.986  1.00  0.00    -0.234 N 
HETATM   18  N2  UNL     1      16.392  57.908  23.080  1.00  0.00    -0.139 N 
ATOM     19  H12 UNL     1      15.734  57.543  25.519  1.00  0.00     0.174 HD
ATOM     20  H11 UNL     1      15.411  55.815  25.456  1.00  0.00     0.174 HD
ATOM     21  H2  UNL     1      16.411  57.970  22.062  1.00  0.00     0.205 HD
ATOM     22  H4  UNL     1      15.274  55.416  22.225  1.00  0.00     0.177 HD
BRANCH  18  23
HETATM   23  N3  UNL     1      16.754  59.007  23.884  1.00  0.00    -0.331 N 
ATOM     24  H32 UNL     1      17.726  59.140  24.163  1.00  0.00     0.177 HD
ATOM     25  H31 UNL     1      16.016  59.650  24.169  1.00  0.00     0.177 HD
ENDBRANCH  18  23
ENDBRANCH  14  15
ENDBRANCH  13  14
ENDBRANCH  12  13
ENDBRANCH  10  12
ENDBRANCH   1  10
BRANCH   4  26
HETATM   26  N8  UNL     1      16.845  52.785  16.036  1.00  0.00    -0.335 N 
ATOM     27  H82 UNL     1      16.011  52.763  15.450  1.00  0.00     0.177 HD
ATOM     28  H81 UNL     1      17.699  53.276  15.773  1.00  0.00     0.177 HD
ENDBRANCH   4  26
BRANCH   5  29
HETATM   29  S1  UNL     1      18.502  50.420  15.977  1.00  0.00    -0.052 SA
BRANCH  29  30
HETATM   30  C8  UNL     1      19.921  49.483  16.467  1.00  0.00     0.010 A 
HETATM   31  C9  UNL     1      20.034  48.122  16.259  1.00  0.00     0.019 A 
HETATM   32  C10 UNL     1      21.197  47.512  16.688  1.00  0.00     0.003 A 
HETATM   33  C11 UNL     1      22.213  48.210  17.299  1.00  0.00     0.026 A 
HETATM   34  C12 UNL     1      22.108  49.577  17.511  1.00  0.00     0.047 A 
HETATM   35  N9  UNL     1      23.156  50.311  18.140  1.00  0.00    -0.102 NA
HETATM   36  C13 UNL     1      20.949  50.177  17.082  1.00  0.00     0.045 A 
ENDBRANCH  29  30
ENDBRANCH   5  29
TORSDOF 9
ENDMDL
MODEL 2
REMARK VINA RESULT: -8.266854053      1.892      2.136
REMARK  9 active torsions:
REMARK  status: ('A' for Active; 'I' for Inactive)
REMARK       I    between atoms: C1_4  and  N2_5 
REMARK       I    between atoms: C1_4  and  N4_10 
REMARK    1  A    between atoms: N2_5  and  N3_7 
REMARK    2  A    between atoms: N4_10  and  C2_12 
REMARK    3  A    between atoms: C2_12  and  C3_13 
REMARK    4  A    between atoms: C3_13  and  C4_14 
REMARK    5  A    between atoms: C4_14  and  N5_15 
REMARK    6  A    between atoms: N5_15  and  C5_17 
REMARK    7  A    between atoms: N7_20  and  N8_21 
REMARK    8  A    between atoms: C7_24  and  S1_25 
REMARK    9  A    between atoms: S1_25  and  C8_26 
ROOT
HETATM    1  C5  UNL     1      15.949  51.970  19.568  1.00  0.00     0.110 A 
HETATM    2  C6  UNL     1      15.986  52.671  18.382  1.00  0.00     0.169 A 
HETATM    3  N6  UNL     1      15.208  53.872  18.283  1.00  0.00    -0.078 NA
HETATM    4  N7  UNL     1      16.737  52.214  17.369  1.00  0.00    -0.224 N 
HETATM    5  C7  UNL     1      17.474  51.086  17.445  1.00  0.00     0.173 A 
HETATM    6  N10 UNL     1      17.452  50.389  18.592  1.00  0.00    -0.324 N 
ATOM      7  H10 UNL     1      18.001  49.533  18.673  1.00  0.00     0.169 HD
HETATM    8  C14 UNL     1      16.712  50.808  19.637  1.00  0.00     0.132 A 
HETATM    9  S2  UNL     1      16.694  49.958  21.018  1.00  0.00    -0.058 SA
ENDROOT
BRANCH   1  10
HETATM   10  N5  UNL     1      15.192  52.377  20.696  1.00  0.00    -0.385 N 
ATOM     11  H5  UNL     1      14.412  51.785  20.981  1.00  0.00     0.159 HD
BRANCH  10  12
HETATM   12  C4  UNL     1      15.444  53.563  21.466  1.00  0.00     0.121 C 
BRANCH  12  13
HETATM   13  C3  UNL     1      16.676  53.402  22.351  1.00  0.00     0.040 C 
BRANCH  13  14
HETATM   14  C2  UNL     1      16.333  53.734  23.791  1.00  0.00     0.139 C 
BRANCH  14  15
HETATM   15  N4  UNL     1      15.023  53.181  24.071  1.00  0.00    -0.225 N 
HETATM   16  C1  UNL     1      14.447  53.305  25.364  1.00  0.00     0.685 C 
HETATM   17  N1  UNL     1      15.039  52.713  26.351  1.00  0.00    -0.234 N 
HETATM   18  N2  UNL     1      13.266  54.059  25.523  1.00  0.00    -0.139 N 
ATOM     19  H12 UNL     1      14.626  52.802  27.279  1.00  0.00     0.174 HD
ATOM     20  H11 UNL     1      15.893  52.168  26.236  1.00  0.00     0.174 HD
ATOM     21  H2  UNL     1      12.696  54.322  24.718  1.00  0.00     0.205 HD
ATOM     22  H4  UNL     1      14.510  52.699  23.334  1.00  0.00     0.177 HD
BRANCH  18  23
HETATM   23  N3  UNL     1      12.898  54.436  26.829  1.00  0.00    -0.331 N 
ATOM     24  H32 UNL     1      13.603  54.784  27.479  1.00  0.00     0.177 HD
ATOM     25  H31 UNL     1      11.917  54.347  27.091  1.00  0.00     0.177 HD
ENDBRANCH  18  23
ENDBRANCH  14  15
ENDBRANCH  13  14
ENDBRANCH  12  13
ENDBRANCH  10  12
ENDBRANCH   1  10
BRANCH   4  26
HETATM   26  N8  UNL     1      16.758  52.929  16.191  1.00  0.00    -0.335 N 
ATOM     27  H82 UNL     1      16.236  53.804  16.148  1.00  0.00     0.177 HD
ATOM     28  H81 UNL     1      17.294  52.560  15.407  1.00  0.00     0.177 HD
ENDBRANCH   4  26
BRANCH   5  29
HETATM   29  S1  UNL     1      18.437  50.584  16.031  1.00  0.00    -0.052 SA
BRANCH  29  30
HETATM   30  C8  UNL     1      19.846  49.609  16.475  1.00  0.00     0.010 A 
HETATM   31  C9  UNL     1      19.928  48.251  16.231  1.00  0.00     0.019 A 
HETATM   32  C10 UNL     1      21.086  47.608  16.626  1.00  0.00     0.003 A 
HETATM   33  C11 UNL     1      22.124  48.271  17.239  1.00  0.00     0.026 A 
HETATM   34  C12 UNL     1      22.049  49.634  17.487  1.00  0.00     0.047 A 
HETATM   35  N9  UNL     1      23.121  50.331  18.117  1.00  0.00    -0.102 NA
HETATM   36  C13 UNL     1      20.896  50.266  17.091  1.00  0.00     0.045 A 
ENDBRANCH  29  30
ENDBRANCH   5  29
TORSDOF 9
ENDMDL
MODEL 3
REMARK VINA RESULT: -8.260731142      1.734      2.273
REMARK  9 active torsions:
REMARK  status: ('A' for Active; 'I' for Inactive)
REMARK       I    between atoms: C1_4  and  N2_5 
REMARK       I    between atoms: C1_4  and  N4_10 
REMARK    1  A    between atoms: N2_5  and  N3_7 
REMARK    2  A    between atoms: N4_10  and  C2_12 
REMARK    3  A    between atoms: C2_12  and  C3_13 
REMARK    4  A    between atoms: C3_13  and  C4_14 
REMARK    5  A    between atoms: C4_14  and  N5_15 
REMARK    6  A    between atoms: N5_15  and  C5_17 
REMARK    7  A    between atoms: N7_20  and  N8_21 
REMARK    8  A    between atoms: C7_24  and  S1_25 
REMARK    9  A    between atoms: S1_25  and  C8_26 
ROOT
HETATM    1  C5  UNL     1      16.166  52.072  19.095  1.00  0.00     0.110 A 
HETATM    2  C6  UNL     1      16.209  52.569  17.811  1.00  0.00     0.169 A 
HETATM    3  N6  UNL     1      15.465  53.761  17.523  1.00  0.00    -0.078 NA
HETATM    4  N7  UNL     1      16.937  51.932  16.881  1.00  0.00    -0.224 N 
HETATM    5  C7  UNL     1      17.643  50.810  17.135  1.00  0.00     0.173 A 
HETATM    6  N10 UNL     1      17.613  50.309  18.380  1.00  0.00    -0.324 N 
ATOM      7  H10 UNL     1      18.139  49.462  18.596  1.00  0.00     0.169 HD
HETATM    8  C14 UNL     1      16.897  50.914  19.348  1.00  0.00     0.132 A 
HETATM    9  S2  UNL     1      16.869  50.300  20.848  1.00  0.00    -0.058 SA
ENDROOT
BRANCH   1  10
HETATM   10  N5  UNL     1      15.432  52.678  20.146  1.00  0.00    -0.385 N 
ATOM     11  H5  UNL     1      14.603  52.191  20.487  1.00  0.00     0.159 HD
BRANCH  10  12
HETATM   12  C4  UNL     1      15.772  53.928  20.766  1.00  0.00     0.121 C 
BRANCH  12  13
HETATM   13  C3  UNL     1      16.421  53.717  22.130  1.00  0.00     0.040 C 
BRANCH  13  14
HETATM   14  C2  UNL     1      15.451  53.022  23.068  1.00  0.00     0.139 C 
BRANCH  14  15
HETATM   15  N4  UNL     1      15.329  53.837  24.260  1.00  0.00    -0.225 N 
HETATM   16  C1  UNL     1      15.240  53.234  25.543  1.00  0.00     0.685 C 
HETATM   17  N1  UNL     1      14.205  52.499  25.797  1.00  0.00    -0.234 N 
HETATM   18  N2  UNL     1      16.268  53.456  26.483  1.00  0.00    -0.139 N 
ATOM     19  H12 UNL     1      14.141  52.066  26.718  1.00  0.00     0.174 HD
ATOM     20  H11 UNL     1      13.462  52.339  25.118  1.00  0.00     0.174 HD
ATOM     21  H2  UNL     1      16.947  54.206  26.353  1.00  0.00     0.205 HD
ATOM     22  H4  UNL     1      15.308  54.853  24.177  1.00  0.00     0.177 HD
BRANCH  18  23
HETATM   23  N3  UNL     1      16.326  52.607  27.605  1.00  0.00    -0.331 N 
ATOM     24  H32 UNL     1      16.981  51.826  27.624  1.00  0.00     0.177 HD
ATOM     25  H31 UNL     1      15.696  52.805  28.382  1.00  0.00     0.177 HD
ENDBRANCH  18  23
ENDBRANCH  14  15
ENDBRANCH  13  14
ENDBRANCH  12  13
ENDBRANCH  10  12
ENDBRANCH   1  10
BRANCH   4  26
HETATM   26  N8  UNL     1      16.965  52.446  15.603  1.00  0.00    -0.335 N 
ATOM     27  H82 UNL     1      17.467  53.320  15.444  1.00  0.00     0.177 HD
ATOM     28  H81 UNL     1      16.485  51.935  14.862  1.00  0.00     0.177 HD
ENDBRANCH   4  26
BRANCH   5  29
HETATM   29  S1  UNL     1      18.576  50.058  15.816  1.00  0.00    -0.052 SA
BRANCH  29  30
HETATM   30  C8  UNL     1      20.027  49.225  16.394  1.00  0.00     0.010 A 
HETATM   31  C9  UNL     1      20.212  47.861  16.268  1.00  0.00     0.019 A 
HETATM   32  C10 UNL     1      21.392  47.337  16.760  1.00  0.00     0.003 A 
HETATM   33  C11 UNL     1      22.355  48.120  17.355  1.00  0.00     0.026 A 
HETATM   34  C12 UNL     1      22.177  49.489  17.484  1.00  0.00     0.047 A 
HETATM   35  N9  UNL     1      23.169  50.310  18.095  1.00  0.00    -0.102 NA
HETATM   36  C13 UNL     1      21.002  50.003  16.993  1.00  0.00     0.045 A 
ENDBRANCH  29  30
ENDBRANCH   5  29
TORSDOF 9
ENDMDL
MODEL 4
REMARK VINA RESULT: -8.115264377      1.041      1.391
REMARK  9 active torsions:
REMARK  status: ('A' for Active; 'I' for Inactive)
REMARK       I    between atoms: C1_4  and  N2_5 
REMARK       I    between atoms: C1_4  and  N4_10 
REMARK    1  A    between atoms: N2_5  and  N3_7 
REMARK    2  A    between atoms: N4_10  and  C2_12 
REMARK    3  A    between atoms: C2_12  and  C3_13 
REMARK    4  A    between atoms: C3_13  and  C4_14 
REMARK    5  A    between atoms: C4_14  and  N5_15 
REMARK    6  A    between atoms: N5_15  and  C5_17 
REMARK    7  A    between atoms: N7_20  and  N8_21 
REMARK    8  A    between atoms: C7_24  and  S1_25 
REMARK    9  A    between atoms: S1_25  and  C8_26 
ROOT
HETATM    1  C5  UNL     1      15.963  51.995  19.377  1.00  0.00     0.110 A 
HETATM    2  C6  UNL     1      16.049  52.663  18.175  1.00  0.00     0.169 A 
HETATM    3  N6  UNL     1      15.288  53.869  18.017  1.00  0.00    -0.078 NA
HETATM    4  N7  UNL     1      16.830  52.172  17.201  1.00  0.00    -0.224 N 
HETATM    5  C7  UNL     1      17.552  51.039  17.333  1.00  0.00     0.173 A 
HETATM    6  N10 UNL     1      17.481  50.373  18.497  1.00  0.00    -0.324 N 
ATOM      7  H10 UNL     1      18.018  49.514  18.620  1.00  0.00     0.169 HD
HETATM    8  C14 UNL     1      16.710  50.827  19.504  1.00  0.00     0.132 A 
HETATM    9  S2  UNL     1      16.634  50.014  20.904  1.00  0.00    -0.058 SA
ENDROOT
BRANCH   1  10
HETATM   10  N5  UNL     1      15.171  52.439  20.466  1.00  0.00    -0.385 N 
ATOM     11  H5  UNL     1      14.347  51.889  20.707  1.00  0.00     0.159 HD
BRANCH  10  12
HETATM   12  C4  UNL     1      15.446  53.608  21.254  1.00  0.00     0.121 C 
BRANCH  12  13
HETATM   13  C3  UNL     1      16.783  53.489  21.980  1.00  0.00     0.040 C 
BRANCH  13  14
HETATM   14  C2  UNL     1      16.783  54.364  23.220  1.00  0.00     0.139 C 
BRANCH  14  15
HETATM   15  N4  UNL     1      15.884  55.474  22.977  1.00  0.00    -0.225 N 
HETATM   16  C1  UNL     1      16.000  56.677  23.725  1.00  0.00     0.685 C 
HETATM   17  N1  UNL     1      15.779  56.622  24.999  1.00  0.00    -0.234 N 
HETATM   18  N2  UNL     1      16.347  57.871  23.060  1.00  0.00    -0.139 N 
ATOM     19  H12 UNL     1      15.862  57.485  25.536  1.00  0.00     0.174 HD
ATOM     20  H11 UNL     1      15.528  55.758  25.479  1.00  0.00     0.174 HD
ATOM     21  H2  UNL     1      16.294  57.943  22.044  1.00  0.00     0.205 HD
ATOM     22  H4  UNL     1      15.161  55.392  22.262  1.00  0.00     0.177 HD
BRANCH  18  23
HETATM   23  N3  UNL     1      16.770  58.961  23.847  1.00  0.00    -0.331 N 
ATOM     24  H32 UNL     1      17.670  59.405  23.666  1.00  0.00     0.177 HD
ATOM     25  H31 UNL     1      16.148  59.279  24.590  1.00  0.00     0.177 HD
ENDBRANCH  18  23
ENDBRANCH  14  15
ENDBRANCH  13  14
ENDBRANCH  12  13
ENDBRANCH  10  12
ENDBRANCH   1  10
BRANCH   4  26
HETATM   26  N8  UNL     1      16.900  52.855  16.007  1.00  0.00    -0.335 N 
ATOM     27  H82 UNL     1      16.383  53.730  15.920  1.00  0.00     0.177 HD
ATOM     28  H81 UNL     1      17.465  52.463  15.254  1.00  0.00     0.177 HD
ENDBRANCH   4  26
BRANCH   5  29
HETATM   29  S1  UNL     1      18.558  50.490  15.968  1.00  0.00    -0.052 SA
BRANCH  29  30
HETATM   30  C8  UNL     1      19.960  49.544  16.489  1.00  0.00     0.010 A 
HETATM   31  C9  UNL     1      21.161  50.119  16.858  1.00  0.00     0.019 A 
HETATM   32  C10 UNL     1      22.175  49.265  17.247  1.00  0.00     0.003 A 
HETATM   33  C11 UNL     1      22.019  47.899  17.272  1.00  0.00     0.026 A 
HETATM   34  C12 UNL     1      20.817  47.314  16.904  1.00  0.00     0.047 A 
HETATM   35  N9  UNL     1      20.643  45.899  16.929  1.00  0.00    -0.102 NA
HETATM   36  C13 UNL     1      19.813  48.168  16.518  1.00  0.00     0.045 A 
ENDBRANCH  29  30
ENDBRANCH   5  29
TORSDOF 9
ENDMDL
MODEL 5
REMARK VINA RESULT: -8.080648785      2.067      2.664
REMARK  9 active torsions:
REMARK  status: ('A' for Active; 'I' for Inactive)
REMARK       I    between atoms: C1_4  and  N2_5 
REMARK       I    between atoms: C1_4  and  N4_10 
REMARK    1  A    between atoms: N2_5  and  N3_7 
REMARK    2  A    between atoms: N4_10  and  C2_12 
REMARK    3  A    between atoms: C2_12  and  C3_13 
REMARK    4  A    between atoms: C3_13  and  C4_14 
REMARK    5  A    between atoms: C4_14  and  N5_15 
REMARK    6  A    between atoms: N5_15  and  C5_17 
REMARK    7  A    between atoms: N7_20  and  N8_21 
REMARK    8  A    between atoms: C7_24  and  S1_25 
REMARK    9  A    between atoms: S1_25  and  C8_26 
ROOT
HETATM    1  C5  UNL     1      16.239  52.062  19.048  1.00  0.00     0.110 A 
HETATM    2  C6  UNL     1      16.273  52.535  17.754  1.00  0.00     0.169 A 
HETATM    3  N6  UNL     1      15.503  53.706  17.445  1.00  0.00    -0.078 NA
HETATM    4  N7  UNL     1      17.012  51.896  16.836  1.00  0.00    -0.224 N 
HETATM    5  C7  UNL     1      17.741  50.793  17.111  1.00  0.00     0.173 A 
HETATM    6  N10 UNL     1      17.722  50.316  18.366  1.00  0.00    -0.324 N 
ATOM      7  H10 UNL     1      18.265  49.484  18.597  1.00  0.00     0.169 HD
HETATM    8  C14 UNL     1      16.994  50.924  19.322  1.00  0.00     0.132 A 
HETATM    9  S2  UNL     1      16.980  50.338  20.834  1.00  0.00    -0.058 SA
ENDROOT
BRANCH   1  10
HETATM   10  N5  UNL     1      15.494  52.673  20.088  1.00  0.00    -0.385 N 
ATOM     11  H5  UNL     1      14.665  52.184  20.426  1.00  0.00     0.159 HD
BRANCH  10  12
HETATM   12  C4  UNL     1      15.822  53.930  20.700  1.00  0.00     0.121 C 
BRANCH  12  13
HETATM   13  C3  UNL     1      16.518  53.732  22.044  1.00  0.00     0.040 C 
BRANCH  13  14
HETATM   14  C2  UNL     1      15.548  53.149  23.054  1.00  0.00     0.139 C 
BRANCH  14  15
HETATM   15  N4  UNL     1      16.008  53.523  24.375  1.00  0.00    -0.225 N 
HETATM   16  C1  UNL     1      15.091  53.648  25.453  1.00  0.00     0.685 C 
HETATM   17  N1  UNL     1      14.188  54.571  25.377  1.00  0.00    -0.234 N 
HETATM   18  N2  UNL     1      15.197  52.772  26.553  1.00  0.00    -0.139 N 
ATOM     19  H12 UNL     1      13.529  54.661  26.151  1.00  0.00     0.174 HD
ATOM     20  H11 UNL     1      14.111  55.205  24.582  1.00  0.00     0.174 HD
ATOM     21  H2  UNL     1      16.038  52.212  26.702  1.00  0.00     0.205 HD
ATOM     22  H4  UNL     1      17.000  53.699  24.533  1.00  0.00     0.177 HD
BRANCH  18  23
HETATM   23  N3  UNL     1      14.105  52.695  27.439  1.00  0.00    -0.331 N 
ATOM     24  H32 UNL     1      13.249  52.218  27.157  1.00  0.00     0.177 HD
ATOM     25  H31 UNL     1      14.206  53.129  28.356  1.00  0.00     0.177 HD
ENDBRANCH  18  23
ENDBRANCH  14  15
ENDBRANCH  13  14
ENDBRANCH  12  13
ENDBRANCH  10  12
ENDBRANCH   1  10
BRANCH   4  26
HETATM   26  N8  UNL     1      17.030  52.386  15.549  1.00  0.00    -0.335 N 
ATOM     27  H82 UNL     1      16.587  53.286  15.369  1.00  0.00     0.177 HD
ATOM     28  H81 UNL     1      17.484  51.832  14.823  1.00  0.00     0.177 HD
ENDBRANCH   4  26
BRANCH   5  29
HETATM   29  S1  UNL     1      18.690  50.035  15.806  1.00  0.00    -0.052 SA
BRANCH  29  30
HETATM   30  C8  UNL     1      20.094  49.145  16.410  1.00  0.00     0.010 A 
HETATM   31  C9  UNL     1      21.318  49.741  16.648  1.00  0.00     0.019 A 
HETATM   32  C10 UNL     1      22.333  48.931  17.122  1.00  0.00     0.003 A 
HETATM   33  C11 UNL     1      22.155  47.587  17.352  1.00  0.00     0.026 A 
HETATM   34  C12 UNL     1      20.930  46.981  17.116  1.00  0.00     0.047 A 
HETATM   35  N9  UNL     1      20.734  45.589  17.355  1.00  0.00    -0.102 NA
HETATM   36  C13 UNL     1      19.926  47.791  16.645  1.00  0.00     0.045 A 
ENDBRANCH  29  30
ENDBRANCH   5  29
TORSDOF 9
ENDMDL
