MODEL 1
REMARK VINA RESULT: -9.505490720      0.000      0.000
REMARK  9 active torsions:
REMARK  status: ('A' for Active; 'I' for Inactive)
REMARK    1  A    between atoms: N1_1  and  C1_4 
REMARK    2  A    between atoms: C3_9  and  C4_10 
REMARK    3  A    between atoms: C4_10  and  N4_11 
REMARK    4  A    between atoms: C4_10  and  C5_15 
REMARK       I    between atoms: C5_15  and  N5_17 
REMARK    5  A    between atoms: N5_17  and  C6_19 
REMARK    6  A    between atoms: C6_19  and  C7_20 
REMARK    7  A    between atoms: C7_20  and  C8_21 
REMARK    8  A    between atoms: C8_21  and  N6_22 
REMARK    9  A    between atoms: N6_22  and  C9_24 
ROOT
HETATM    1  C5  UNL     1      17.948  50.512  18.173  1.00  0.00     0.253 C 
HETATM    2  O1  UNL     1      18.130  49.604  18.999  1.00  0.00    -0.271 OA
HETATM    3  N5  UNL     1      17.033  51.552  18.388  1.00  0.00    -0.359 N 
ATOM      4  H5  UNL     1      16.994  52.240  17.635  1.00  0.00     0.162 HD
ENDROOT
BRANCH   3   5
HETATM    5  C6  UNL     1      16.156  51.815  19.463  1.00  0.00     0.124 C 
BRANCH   5   6
HETATM    6  C7  UNL     1      16.579  52.624  20.613  1.00  0.00     0.039 C 
BRANCH   6   7
HETATM    7  C8  UNL     1      15.890  53.915  20.820  1.00  0.00     0.121 C 
BRANCH   7   8
HETATM    8  N6  UNL     1      16.488  54.548  22.005  1.00  0.00    -0.390 N 
ATOM      9  H6  UNL     1      17.097  55.357  21.877  1.00  0.00     0.159 HD
BRANCH   8  10
HETATM   10  C9  UNL     1      16.252  54.083  23.295  1.00  0.00     0.031 A 
HETATM   11  C10 UNL     1      15.069  53.491  23.707  1.00  0.00     0.058 A 
HETATM   12  C11 UNL     1      14.822  53.008  24.949  1.00  0.00     0.078 A 
HETATM   13  N7  UNL     1      13.557  52.429  25.218  1.00  0.00    -0.100 NA
HETATM   14  C12 UNL     1      15.827  53.095  25.935  1.00  0.00     0.091 A 
HETATM   15  N8  UNL     1      15.738  52.675  27.171  1.00  0.00    -0.291 N 
HETATM   16  C13 UNL     1      17.014  53.674  25.567  1.00  0.00     0.055 A 
HETATM   17  N9  UNL     1      16.739  52.815  27.980  1.00  0.00    -0.269 N 
ATOM     18  H8  UNL     1      14.878  52.237  27.498  1.00  0.00     0.187 HD
HETATM   19  S1  UNL     1      17.902  53.569  27.021  1.00  0.00     0.004 SA
ATOM     20  H9  UNL     1      16.808  52.537  28.959  1.00  0.00     0.195 HD
HETATM   21  C14 UNL     1      17.228  54.163  24.264  1.00  0.00     0.052 A 
ENDBRANCH   8  10
ENDBRANCH   7   8
ENDBRANCH   6   7
ENDBRANCH   5   6
ENDBRANCH   3   5
BRANCH   1  22
HETATM   22  C4  UNL     1      18.738  50.454  16.930  1.00  0.00     0.318 C 
BRANCH  22  23
HETATM   23  C3  UNL     1      20.132  49.957  17.162  1.00  0.00     0.067 A 
HETATM   24  C2  UNL     1      21.187  50.383  17.887  1.00  0.00     0.134 A 
HETATM   25  N2  UNL     1      22.301  49.686  17.856  1.00  0.00    -0.325 N 
HETATM   26  N3  UNL     1      21.094  51.598  18.697  1.00  0.00    -0.081 NA
HETATM   27  C1  UNL     1      22.342  48.587  17.110  1.00  0.00     0.143 A 
ATOM     28  H2  UNL     1      23.116  49.982  18.392  1.00  0.00     0.169 HD
HETATM   29  S2  UNL     1      20.782  48.522  16.431  1.00  0.00    -0.053 SA
BRANCH  27  30
HETATM   30  N1  UNL     1      23.348  47.759  16.945  1.00  0.00    -0.380 N 
ATOM     31  H12 UNL     1      23.928  47.307  17.651  1.00  0.00     0.158 HD
ATOM     32  H11 UNL     1      23.739  47.412  16.069  1.00  0.00     0.158 HD
ENDBRANCH  27  30
ENDBRANCH  22  23
BRANCH  22  33
HETATM   33  N4  UNL     1      18.100  49.491  15.991  1.00  0.00    -0.062 N 
ATOM     34  H43 UNL     1      18.209  49.749  15.010  1.00  0.00     0.275 HD
ATOM     35  H42 UNL     1      18.583  48.594  15.940  1.00  0.00     0.275 HD
ATOM     36  H41 UNL     1      17.126  49.409  16.281  1.00  0.00     0.275 HD
ENDBRANCH  22  33
ENDBRANCH   1  22
TORSDOF 9
ENDMDL
MODEL 2
REMARK VINA RESULT: -9.444222352      1.055      1.347
REMARK  9 active torsions:
REMARK  status: ('A' for Active; 'I' for Inactive)
REMARK    1  A    between atoms: N1_1  and  C1_4 
REMARK    2  A    between atoms: C3_9  and  C4_10 
REMARK    3  A    between atoms: C4_10  and  N4_11 
REMARK    4  A    between atoms: C4_10  and  C5_15 
REMARK       I    between atoms: C5_15  and  N5_17 
REMARK    5  A    between atoms: N5_17  and  C6_19 
REMARK    6  A    between atoms: C6_19  and  C7_20 
REMARK    7  A    between atoms: C7_20  and  C8_21 
REMARK    8  A    between atoms: C8_21  and  N6_22 
REMARK    9  A    between atoms: N6_22  and  C9_24 
ROOT
HETATM    1  C5  UNL     1      18.060  50.458  18.003  1.00  0.00     0.253 C 
HETATM    2  O1  UNL     1      18.321  49.577  18.837  1.00  0.00    -0.271 OA
HETATM    3  N5  UNL     1      17.107  51.459  18.238  1.00  0.00    -0.359 N 
ATOM      4  H5  UNL     1      17.002  52.127  17.474  1.00  0.00     0.162 HD
ENDROOT
BRANCH   3   5
HETATM    5  C6  UNL     1      16.267  51.704  19.347  1.00  0.00     0.124 C 
BRANCH   5   6
HETATM    6  C7  UNL     1      16.702  52.555  20.461  1.00  0.00     0.039 C 
BRANCH   6   7
HETATM    7  C8  UNL     1      15.869  53.735  20.775  1.00  0.00     0.121 C 
BRANCH   7   8
HETATM    8  N6  UNL     1      16.463  54.394  21.949  1.00  0.00    -0.390 N 
ATOM      9  H6  UNL     1      17.079  55.194  21.804  1.00  0.00     0.159 HD
BRANCH   8  10
HETATM   10  C9  UNL     1      16.214  53.964  23.247  1.00  0.00     0.031 A 
HETATM   11  C10 UNL     1      15.041  53.350  23.655  1.00  0.00     0.058 A 
HETATM   12  C11 UNL     1      14.782  52.901  24.908  1.00  0.00     0.078 A 
HETATM   13  N7  UNL     1      13.529  52.292  25.170  1.00  0.00    -0.100 NA
HETATM   14  C12 UNL     1      15.763  53.049  25.910  1.00  0.00     0.091 A 
HETATM   15  N8  UNL     1      15.660  52.668  27.157  1.00  0.00    -0.291 N 
HETATM   16  C13 UNL     1      16.940  53.652  25.547  1.00  0.00     0.055 A 
HETATM   17  N9  UNL     1      16.640  52.864  27.981  1.00  0.00    -0.269 N 
ATOM     18  H8  UNL     1      14.807  52.215  27.481  1.00  0.00     0.187 HD
HETATM   19  S1  UNL     1      17.799  53.621  27.021  1.00  0.00     0.004 SA
ATOM     20  H9  UNL     1      16.696  52.620  28.970  1.00  0.00     0.195 HD
HETATM   21  C14 UNL     1      17.166  54.105  24.233  1.00  0.00     0.052 A 
ENDBRANCH   8  10
ENDBRANCH   7   8
ENDBRANCH   6   7
ENDBRANCH   5   6
ENDBRANCH   3   5
BRANCH   1  22
HETATM   22  C4  UNL     1      18.796  50.410  16.727  1.00  0.00     0.318 C 
BRANCH  22  23
HETATM   23  C3  UNL     1      20.019  49.547  16.805  1.00  0.00     0.067 A 
HETATM   24  C2  UNL     1      20.299  48.264  16.499  1.00  0.00     0.134 A 
HETATM   25  N2  UNL     1      21.517  47.814  16.709  1.00  0.00    -0.325 N 
HETATM   26  N3  UNL     1      19.269  47.387  15.941  1.00  0.00    -0.081 NA
HETATM   27  C1  UNL     1      22.422  48.644  17.213  1.00  0.00     0.143 A 
ATOM     28  H2  UNL     1      21.760  46.848  16.488  1.00  0.00     0.169 HD
HETATM   29  S2  UNL     1      21.554  50.096  17.403  1.00  0.00    -0.053 SA
BRANCH  27  30
HETATM   30  N1  UNL     1      23.682  48.394  17.494  1.00  0.00    -0.380 N 
ATOM     31  H12 UNL     1      24.161  47.495  17.539  1.00  0.00     0.158 HD
ATOM     32  H11 UNL     1      24.419  49.061  17.722  1.00  0.00     0.158 HD
ENDBRANCH  27  30
ENDBRANCH  22  23
BRANCH  22  33
HETATM   33  N4  UNL     1      17.923  49.806  15.683  1.00  0.00    -0.062 N 
ATOM     34  H43 UNL     1      18.437  49.481  14.864  1.00  0.00     0.275 HD
ATOM     35  H42 UNL     1      17.532  48.904  15.953  1.00  0.00     0.275 HD
ATOM     36  H41 UNL     1      17.213  50.504  15.463  1.00  0.00     0.275 HD
ENDBRANCH  22  33
ENDBRANCH   1  22
TORSDOF 9
ENDMDL
MODEL 3
REMARK VINA RESULT: -9.261368322      2.421      3.836
REMARK  9 active torsions:
REMARK  status: ('A' for Active; 'I' for Inactive)
REMARK    1  A    between atoms: N1_1  and  C1_4 
REMARK    2  A    between atoms: C3_9  and  C4_10 
REMARK    3  A    between atoms: C4_10  and  N4_11 
REMARK    4  A    between atoms: C4_10  and  C5_15 
REMARK       I    between atoms: C5_15  and  N5_17 
REMARK    5  A    between atoms: N5_17  and  C6_19 
REMARK    6  A    between atoms: C6_19  and  C7_20 
REMARK    7  A    between atoms: C7_20  and  C8_21 
REMARK    8  A    between atoms: C8_21  and  N6_22 
REMARK    9  A    between atoms: N6_22  and  C9_24 
ROOT
HETATM    1  C5  UNL     1      18.454  50.840  17.857  1.00  0.00     0.253 C 
HETATM    2  O1  UNL     1      19.531  51.298  18.269  1.00  0.00    -0.271 OA
HETATM    3  N5  UNL     1      17.422  50.451  18.721  1.00  0.00    -0.359 N 
ATOM      4  H5  UNL     1      16.585  50.105  18.249  1.00  0.00     0.162 HD
ENDROOT
BRANCH   3   5
HETATM    5  C6  UNL     1      17.337  50.453  20.131  1.00  0.00     0.124 C 
BRANCH   5   6
HETATM    6  C7  UNL     1      17.469  51.694  20.902  1.00  0.00     0.039 C 
BRANCH   6   7
HETATM    7  C8  UNL     1      16.451  52.742  20.678  1.00  0.00     0.121 C 
BRANCH   7   8
HETATM    8  N6  UNL     1      16.602  53.741  21.747  1.00  0.00    -0.390 N 
ATOM      9  H6  UNL     1      17.006  54.649  21.519  1.00  0.00     0.159 HD
BRANCH   8  10
HETATM   10  C9  UNL     1      16.214  53.489  23.058  1.00  0.00     0.031 A 
HETATM   11  C10 UNL     1      15.039  52.847  23.415  1.00  0.00     0.058 A 
HETATM   12  C11 UNL     1      14.648  52.569  24.683  1.00  0.00     0.078 A 
HETATM   13  N7  UNL     1      13.413  51.903  24.887  1.00  0.00    -0.100 NA
HETATM   14  C12 UNL     1      15.478  52.946  25.759  1.00  0.00     0.091 A 
HETATM   15  N8  UNL     1      15.238  52.747  27.029  1.00  0.00    -0.291 N 
HETATM   16  C13 UNL     1      16.651  53.584  25.448  1.00  0.00     0.055 A 
HETATM   17  N9  UNL     1      16.086  53.145  27.923  1.00  0.00    -0.269 N 
ATOM     18  H8  UNL     1      14.380  52.277  27.317  1.00  0.00     0.187 HD
HETATM   19  S1  UNL     1      17.311  53.845  27.001  1.00  0.00     0.004 SA
ATOM     20  H9  UNL     1      16.028  53.056  28.938  1.00  0.00     0.195 HD
HETATM   21  C14 UNL     1      17.018  53.854  24.116  1.00  0.00     0.052 A 
ENDBRANCH   8  10
ENDBRANCH   7   8
ENDBRANCH   6   7
ENDBRANCH   5   6
ENDBRANCH   3   5
BRANCH   1  22
HETATM   22  C4  UNL     1      18.297  50.711  16.397  1.00  0.00     0.318 C 
BRANCH  22  23
HETATM   23  C3  UNL     1      17.572  51.877  15.795  1.00  0.00     0.067 A 
HETATM   24  C2  UNL     1      17.643  52.538  14.621  1.00  0.00     0.134 A 
HETATM   25  N2  UNL     1      16.836  53.556  14.418  1.00  0.00    -0.325 N 
HETATM   26  N3  UNL     1      18.597  52.130  13.590  1.00  0.00    -0.081 NA
HETATM   27  C1  UNL     1      15.983  53.892  15.379  1.00  0.00     0.143 A 
ATOM     28  H2  UNL     1      16.865  54.077  13.542  1.00  0.00     0.169 HD
HETATM   29  S2  UNL     1      16.312  52.756  16.604  1.00  0.00    -0.053 SA
BRANCH  27  30
HETATM   30  N1  UNL     1      15.101  54.867  15.374  1.00  0.00    -0.380 N 
ATOM     31  H12 UNL     1      15.197  55.818  15.729  1.00  0.00     0.158 HD
ATOM     32  H11 UNL     1      14.148  54.850  15.010  1.00  0.00     0.158 HD
ENDBRANCH  27  30
ENDBRANCH  22  23
BRANCH  22  33
HETATM   33  N4  UNL     1      19.643  50.681  15.762  1.00  0.00    -0.062 N 
ATOM     34  H43 UNL     1      19.672  50.136  14.901  1.00  0.00     0.275 HD
ATOM     35  H42 UNL     1      19.920  51.575  15.356  1.00  0.00     0.275 HD
ATOM     36  H41 UNL     1      20.290  50.345  16.475  1.00  0.00     0.275 HD
ENDBRANCH  22  33
ENDBRANCH   1  22
TORSDOF 9
ENDMDL
MODEL 4
REMARK VINA RESULT: -9.047752345      4.134      6.173
REMARK  9 active torsions:
REMARK  status: ('A' for Active; 'I' for Inactive)
REMARK    1  A    between atoms: N1_1  and  C1_4 
REMARK    2  A    between atoms: C3_9  and  C4_10 
REMARK    3  A    between atoms: C4_10  and  N4_11 
REMARK    4  A    between atoms: C4_10  and  C5_15 
REMARK       I    between atoms: C5_15  and  N5_17 
REMARK    5  A    between atoms: N5_17  and  C6_19 
REMARK    6  A    between atoms: C6_19  and  C7_20 
REMARK    7  A    between atoms: C7_20  and  C8_21 
REMARK    8  A    between atoms: C8_21  and  N6_22 
REMARK    9  A    between atoms: N6_22  and  C9_24 
ROOT
HETATM    1  C5  UNL     1      18.540  50.471  18.674  1.00  0.00     0.253 C 
HETATM    2  O1  UNL     1      19.178  51.155  19.489  1.00  0.00    -0.271 OA
HETATM    3  N5  UNL     1      17.389  49.754  19.031  1.00  0.00    -0.359 N 
ATOM      4  H5  UNL     1      16.954  49.246  18.261  1.00  0.00     0.162 HD
ENDROOT
BRANCH   3   5
HETATM    5  C6  UNL     1      16.727  49.613  20.271  1.00  0.00     0.124 C 
BRANCH   5   6
HETATM    6  C7  UNL     1      16.307  50.784  21.050  1.00  0.00     0.039 C 
BRANCH   6   7
HETATM    7  C8  UNL     1      15.195  51.593  20.509  1.00  0.00     0.121 C 
BRANCH   7   8
HETATM    8  N6  UNL     1      15.744  52.907  20.140  1.00  0.00    -0.390 N 
ATOM      9  H6  UNL     1      16.234  53.453  20.849  1.00  0.00     0.159 HD
BRANCH   8  10
HETATM   10  C9  UNL     1      15.618  53.431  18.858  1.00  0.00     0.031 A 
HETATM   11  C10 UNL     1      14.973  54.622  18.561  1.00  0.00     0.058 A 
HETATM   12  C11 UNL     1      14.858  55.166  17.325  1.00  0.00     0.078 A 
HETATM   13  N7  UNL     1      14.166  56.394  17.181  1.00  0.00    -0.100 NA
HETATM   14  C12 UNL     1      15.428  54.498  16.221  1.00  0.00     0.091 A 
HETATM   15  N8  UNL     1      15.399  54.896  14.975  1.00  0.00    -0.291 N 
HETATM   16  C13 UNL     1      16.075  53.316  16.473  1.00  0.00     0.055 A 
HETATM   17  N9  UNL     1      15.963  54.187  14.051  1.00  0.00    -0.269 N 
ATOM     18  H8  UNL     1      14.930  55.768  14.731  1.00  0.00     0.187 HD
HETATM   19  S1  UNL     1      16.588  52.876  14.905  1.00  0.00     0.004 SA
ATOM     20  H9  UNL     1      16.018  54.375  13.050  1.00  0.00     0.195 HD
HETATM   21  C14 UNL     1      16.172  52.786  17.774  1.00  0.00     0.052 A 
ENDBRANCH   8  10
ENDBRANCH   7   8
ENDBRANCH   6   7
ENDBRANCH   5   6
ENDBRANCH   3   5
BRANCH   1  22
HETATM   22  C4  UNL     1      19.047  50.430  17.291  1.00  0.00     0.318 C 
BRANCH  22  23
HETATM   23  C3  UNL     1      20.269  49.573  17.156  1.00  0.00     0.067 A 
HETATM   24  C2  UNL     1      20.522  48.351  16.643  1.00  0.00     0.134 A 
HETATM   25  N2  UNL     1      21.750  47.883  16.699  1.00  0.00    -0.325 N 
HETATM   26  N3  UNL     1      19.453  47.561  16.033  1.00  0.00    -0.081 NA
HETATM   27  C1  UNL     1      22.692  48.633  17.259  1.00  0.00     0.143 A 
ATOM     28  H2  UNL     1      21.974  46.962  16.322  1.00  0.00     0.169 HD
HETATM   29  S2  UNL     1      21.844  50.036  17.722  1.00  0.00    -0.053 SA
BRANCH  27  30
HETATM   30  N1  UNL     1      23.966  48.352  17.413  1.00  0.00    -0.380 N 
ATOM     31  H12 UNL     1      24.489  47.545  17.073  1.00  0.00     0.158 HD
ATOM     32  H11 UNL     1      24.674  48.895  17.906  1.00  0.00     0.158 HD
ENDBRANCH  27  30
ENDBRANCH  22  23
BRANCH  22  33
HETATM   33  N4  UNL     1      18.012  49.826  16.408  1.00  0.00    -0.062 N 
ATOM     34  H43 UNL     1      17.144  50.362  16.378  1.00  0.00     0.275 HD
ATOM     35  H42 UNL     1      18.236  49.893  15.415  1.00  0.00     0.275 HD
ATOM     36  H41 UNL     1      17.883  48.867  16.730  1.00  0.00     0.275 HD
ENDBRANCH  22  33
ENDBRANCH   1  22
TORSDOF 9
ENDMDL
MODEL 5
REMARK VINA RESULT: -9.024806678      1.956      2.889
REMARK  9 active torsions:
REMARK  status: ('A' for Active; 'I' for Inactive)
REMARK    1  A    between atoms: N1_1  and  C1_4 
REMARK    2  A    between atoms: C3_9  and  C4_10 
REMARK    3  A    between atoms: C4_10  and  N4_11 
REMARK    4  A    between atoms: C4_10  and  C5_15 
REMARK       I    between atoms: C5_15  and  N5_17 
REMARK    5  A    between atoms: N5_17  and  C6_19 
REMARK    6  A    between atoms: C6_19  and  C7_20 
REMARK    7  A    between atoms: C7_20  and  C8_21 
REMARK    8  A    between atoms: C8_21  and  N6_22 
REMARK    9  A    between atoms: N6_22  and  C9_24 
ROOT
HETATM    1  C5  UNL     1      17.825  50.336  19.343  1.00  0.00     0.253 C 
HETATM    2  O1  UNL     1      16.813  49.617  19.358  1.00  0.00    -0.271 OA
HETATM    3  N5  UNL     1      18.018  51.382  20.255  1.00  0.00    -0.359 N 
ATOM      4  H5  UNL     1      18.900  51.883  20.139  1.00  0.00     0.162 HD
ENDROOT
BRANCH   3   5
HETATM    5  C6  UNL     1      17.207  51.864  21.306  1.00  0.00     0.124 C 
BRANCH   5   6
HETATM    6  C7  UNL     1      15.996  52.648  21.038  1.00  0.00     0.039 C 
BRANCH   6   7
HETATM    7  C8  UNL     1      16.078  54.110  21.241  1.00  0.00     0.121 C 
BRANCH   7   8
HETATM    8  N6  UNL     1      15.192  54.449  22.365  1.00  0.00    -0.390 N 
ATOM      9  H6  UNL     1      14.385  55.048  22.192  1.00  0.00     0.159 HD
BRANCH   8  10
HETATM   10  C9  UNL     1      15.418  53.982  23.655  1.00  0.00     0.031 A 
HETATM   11  C10 UNL     1      14.530  53.188  24.364  1.00  0.00     0.058 A 
HETATM   12  C11 UNL     1      14.735  52.700  25.612  1.00  0.00     0.078 A 
HETATM   13  N7  UNL     1      13.728  51.899  26.206  1.00  0.00    -0.100 NA
HETATM   14  C12 UNL     1      15.940  52.999  26.280  1.00  0.00     0.091 A 
HETATM   15  N8  UNL     1      16.280  52.603  27.480  1.00  0.00    -0.291 N 
HETATM   16  C13 UNL     1      16.846  53.782  25.612  1.00  0.00     0.055 A 
HETATM   17  N9  UNL     1      17.422  52.950  27.981  1.00  0.00    -0.269 N 
ATOM     18  H8  UNL     1      15.644  52.019  28.021  1.00  0.00     0.187 HD
HETATM   19  S1  UNL     1      18.108  53.884  26.758  1.00  0.00     0.004 SA
ATOM     20  H9  UNL     1      17.813  52.715  28.894  1.00  0.00     0.195 HD
HETATM   21  C14 UNL     1      16.592  54.269  24.316  1.00  0.00     0.052 A 
ENDBRANCH   8  10
ENDBRANCH   7   8
ENDBRANCH   6   7
ENDBRANCH   5   6
ENDBRANCH   3   5
BRANCH   1  22
HETATM   22  C4  UNL     1      18.832  50.049  18.307  1.00  0.00     0.318 C 
BRANCH  22  23
HETATM   23  C3  UNL     1      18.693  50.943  17.112  1.00  0.00     0.067 A 
HETATM   24  C2  UNL     1      19.499  51.299  16.090  1.00  0.00     0.134 A 
HETATM   25  N2  UNL     1      19.044  52.140  15.188  1.00  0.00    -0.325 N 
HETATM   26  N3  UNL     1      20.854  50.757  15.984  1.00  0.00    -0.081 NA
HETATM   27  C1  UNL     1      17.808  52.606  15.319  1.00  0.00     0.143 A 
ATOM     28  H2  UNL     1      19.629  52.429  14.404  1.00  0.00     0.169 HD
HETATM   29  S2  UNL     1      17.259  51.850  16.743  1.00  0.00    -0.053 SA
BRANCH  27  30
HETATM   30  N1  UNL     1      17.171  53.446  14.534  1.00  0.00    -0.380 N 
ATOM     31  H12 UNL     1      17.517  54.300  14.097  1.00  0.00     0.158 HD
ATOM     32  H11 UNL     1      16.204  53.398  14.216  1.00  0.00     0.158 HD
ENDBRANCH  27  30
ENDBRANCH  22  23
BRANCH  22  33
HETATM   33  N4  UNL     1      20.190  50.302  18.863  1.00  0.00    -0.062 N 
ATOM     34  H43 UNL     1      20.465  49.629  19.579  1.00  0.00     0.275 HD
ATOM     35  H42 UNL     1      20.942  50.101  18.204  1.00  0.00     0.275 HD
ATOM     36  H41 UNL     1      20.190  51.267  19.194  1.00  0.00     0.275 HD
ENDBRANCH  22  33
ENDBRANCH   1  22
TORSDOF 9
ENDMDL
