MODEL 1
REMARK VINA RESULT: -8.818518093      0.000      0.000
REMARK  8 active torsions:
REMARK  status: ('A' for Active; 'I' for Inactive)
REMARK    1  A    between atoms: C2_7  and  O1_8 
REMARK    2  A    between atoms: O1_8  and  C3_9 
REMARK    3  A    between atoms: C3_9  and  C4_10 
REMARK    4  A    between atoms: C4_10  and  C5_11 
REMARK    5  A    between atoms: C5_11  and  S1_12 
REMARK    6  A    between atoms: S1_12  and  C6_13 
REMARK    7  A    between atoms: C6_13  and  C7_14 
REMARK    8  A    between atoms: C10_21  and  N6_22 
ROOT
HETATM    1  S1  UNL     1      16.274  54.104  21.595  1.00  0.00    -0.164 SA
ENDROOT
BRANCH   1   2
HETATM    2  C5  UNL     1      16.275  52.807  20.384  1.00  0.00     0.076 C 
BRANCH   2   3
HETATM    3  C4  UNL     1      16.499  51.438  20.884  1.00  0.00     0.037 C 
BRANCH   3   4
HETATM    4  C3  UNL     1      17.508  50.575  20.238  1.00  0.00     0.179 C 
BRANCH   4   5
HETATM    5  O1  UNL     1      18.550  51.210  19.562  1.00  0.00    -0.322 OA
BRANCH   5   6
HETATM    6  C2  UNL     1      19.414  50.509  18.744  1.00  0.00     0.226 A 
HETATM    7  N2  UNL     1      19.043  49.593  17.836  1.00  0.00    -0.307 N 
HETATM    8  C1  UNL     1      19.901  48.923  17.053  1.00  0.00     0.130 A 
ATOM      9  H2  UNL     1      18.048  49.393  17.736  1.00  0.00     0.171 HD
HETATM   10  N1  UNL     1      19.443  48.049  16.198  1.00  0.00    -0.384 N 
HETATM   11  C15 UNL     1      21.263  49.155  17.146  1.00  0.00     0.131 A 
ATOM     12  H12 UNL     1      18.439  47.879  16.130  1.00  0.00     0.157 HD
ATOM     13  H11 UNL     1      20.095  47.540  15.603  1.00  0.00     0.157 HD
HETATM   14  C14 UNL     1      21.668  50.094  18.073  1.00  0.00     0.147 A 
HETATM   15  N10 UNL     1      22.174  48.445  16.315  1.00  0.00    -0.095 NA
HETATM   16  N8  UNL     1      20.766  50.732  18.830  1.00  0.00    -0.309 N 
HETATM   17  N9  UNL     1      23.058  50.328  18.167  1.00  0.00    -0.080 NA
ATOM     18  H8  UNL     1      21.100  51.418  19.506  1.00  0.00     0.170 HD
ENDBRANCH   5   6
ENDBRANCH   4   5
ENDBRANCH   3   4
ENDBRANCH   2   3
ENDBRANCH   1   2
BRANCH   1  19
HETATM   19  C6  UNL     1      16.825  53.554  23.212  1.00  0.00     0.119 C 
BRANCH  19  20
HETATM   20  C7  UNL     1      15.956  54.059  24.292  1.00  0.00     0.037 A 
HETATM   21  C8  UNL     1      14.774  53.433  24.589  1.00  0.00     0.142 A 
HETATM   22  N3  UNL     1      14.358  52.299  23.861  1.00  0.00    -0.081 NA
HETATM   23  N4  UNL     1      13.986  53.906  25.597  1.00  0.00    -0.178 N 
HETATM   24  C9  UNL     1      14.381  54.988  26.290  1.00  0.00     0.683 A 
ATOM     25  H4  UNL     1      13.105  53.443  25.822  1.00  0.00     0.185 HD
HETATM   26  N5  UNL     1      15.543  55.626  26.019  1.00  0.00    -0.168 N 
HETATM   27  N7  UNL     1      13.562  55.481  27.348  1.00  0.00    -0.226 N 
HETATM   28  C10 UNL     1      16.333  55.161  25.016  1.00  0.00     0.127 A 
HETATM   29  C11 UNL     1      15.860  56.765  26.817  1.00  0.00     0.151 C 
HETATM   30  C12 UNL     1      14.597  57.626  26.932  1.00  0.00     0.041 C 
HETATM   31  C13 UNL     1      13.530  56.885  27.711  1.00  0.00     0.139 C 
ATOM     32  H7  UNL     1      12.979  54.824  27.868  1.00  0.00     0.177 HD
BRANCH  28  33
HETATM   33  N6  UNL     1      17.426  55.720  24.723  1.00  0.00    -0.384 N 
ATOM     34  H62 UNL     1      18.164  55.221  24.225  1.00  0.00     0.157 HD
ATOM     35  H61 UNL     1      17.557  56.693  24.999  1.00  0.00     0.157 HD
ENDBRANCH  28  33
ENDBRANCH  19  20
ENDBRANCH   1  19
TORSDOF 8
ENDMDL
MODEL 2
REMARK VINA RESULT: -8.732418162      1.249      1.406
REMARK  8 active torsions:
REMARK  status: ('A' for Active; 'I' for Inactive)
REMARK    1  A    between atoms: C2_7  and  O1_8 
REMARK    2  A    between atoms: O1_8  and  C3_9 
REMARK    3  A    between atoms: C3_9  and  C4_10 
REMARK    4  A    between atoms: C4_10  and  C5_11 
REMARK    5  A    between atoms: C5_11  and  S1_12 
REMARK    6  A    between atoms: S1_12  and  C6_13 
REMARK    7  A    between atoms: C6_13  and  C7_14 
REMARK    8  A    between atoms: C10_21  and  N6_22 
ROOT
HETATM    1  S1  UNL     1      14.738  52.546  20.873  1.00  0.00    -0.164 SA
ENDROOT
BRANCH   1   2
HETATM    2  C5  UNL     1      15.781  53.057  19.532  1.00  0.00     0.076 C 
BRANCH   2   3
HETATM    3  C4  UNL     1      16.358  51.986  18.700  1.00  0.00     0.037 C 
BRANCH   3   4
HETATM    4  C3  UNL     1      17.231  50.967  19.316  1.00  0.00     0.179 C 
BRANCH   4   5
HETATM    5  O1  UNL     1      18.600  51.234  19.347  1.00  0.00    -0.322 OA
BRANCH   5   6
HETATM    6  C2  UNL     1      19.500  50.487  18.612  1.00  0.00     0.226 A 
HETATM    7  N2  UNL     1      19.172  49.500  17.765  1.00  0.00    -0.307 N 
HETATM    8  C1  UNL     1      20.064  48.788  17.063  1.00  0.00     0.130 A 
ATOM      9  H2  UNL     1      18.183  49.279  17.648  1.00  0.00     0.171 HD
HETATM   10  N1  UNL     1      19.646  47.845  16.262  1.00  0.00    -0.384 N 
HETATM   11  C15 UNL     1      21.420  49.046  17.183  1.00  0.00     0.131 A 
ATOM     12  H12 UNL     1      18.648  47.655  16.174  1.00  0.00     0.157 HD
ATOM     13  H11 UNL     1      20.325  47.303  15.728  1.00  0.00     0.157 HD
HETATM   14  C14 UNL     1      21.780  50.059  18.049  1.00  0.00     0.147 A 
HETATM   15  N10 UNL     1      22.367  48.291  16.438  1.00  0.00    -0.095 NA
HETATM   16  N8  UNL     1      20.845  50.737  18.726  1.00  0.00    -0.309 N 
HETATM   17  N9  UNL     1      23.163  50.321  18.170  1.00  0.00    -0.080 NA
ATOM     18  H8  UNL     1      21.148  51.478  19.359  1.00  0.00     0.170 HD
ENDBRANCH   5   6
ENDBRANCH   4   5
ENDBRANCH   3   4
ENDBRANCH   2   3
ENDBRANCH   1   2
BRANCH   1  19
HETATM   19  C6  UNL     1      15.635  52.312  22.410  1.00  0.00     0.119 C 
BRANCH  19  20
HETATM   20  C7  UNL     1      15.292  53.339  23.411  1.00  0.00     0.037 A 
HETATM   21  C8  UNL     1      14.386  53.074  24.404  1.00  0.00     0.142 A 
HETATM   22  N3  UNL     1      13.754  51.816  24.482  1.00  0.00    -0.081 NA
HETATM   23  N4  UNL     1      14.086  54.031  25.328  1.00  0.00    -0.178 N 
HETATM   24  C9  UNL     1      14.688  55.231  25.253  1.00  0.00     0.683 A 
ATOM     25  H4  UNL     1      13.413  53.838  26.069  1.00  0.00     0.185 HD
HETATM   26  N5  UNL     1      15.586  55.521  24.283  1.00  0.00    -0.168 N 
HETATM   27  N7  UNL     1      14.381  56.232  26.221  1.00  0.00    -0.226 N 
HETATM   28  C10 UNL     1      15.890  54.573  23.359  1.00  0.00     0.127 A 
HETATM   29  C11 UNL     1      16.159  56.827  24.299  1.00  0.00     0.151 C 
HETATM   30  C12 UNL     1      15.029  57.835  24.531  1.00  0.00     0.041 C 
HETATM   31  C13 UNL     1      14.439  57.648  25.914  1.00  0.00     0.139 C 
ATOM     32  H7  UNL     1      14.112  55.942  27.161  1.00  0.00     0.177 HD
BRANCH  28  33
HETATM   33  N6  UNL     1      16.721  54.792  22.435  1.00  0.00    -0.384 N 
ATOM     34  H62 UNL     1      17.131  54.031  21.894  1.00  0.00     0.157 HD
ATOM     35  H61 UNL     1      16.976  55.760  22.239  1.00  0.00     0.157 HD
ENDBRANCH  28  33
ENDBRANCH  19  20
ENDBRANCH   1  19
TORSDOF 8
ENDMDL
MODEL 3
REMARK VINA RESULT: -8.658075903      1.607      2.271
REMARK  8 active torsions:
REMARK  status: ('A' for Active; 'I' for Inactive)
REMARK    1  A    between atoms: C2_7  and  O1_8 
REMARK    2  A    between atoms: O1_8  and  C3_9 
REMARK    3  A    between atoms: C3_9  and  C4_10 
REMARK    4  A    between atoms: C4_10  and  C5_11 
REMARK    5  A    between atoms: C5_11  and  S1_12 
REMARK    6  A    between atoms: S1_12  and  C6_13 
REMARK    7  A    between atoms: C6_13  and  C7_14 
REMARK    8  A    between atoms: C10_21  and  N6_22 
ROOT
HETATM    1  S1  UNL     1      16.347  53.223  22.032  1.00  0.00    -0.164 SA
ENDROOT
BRANCH   1   2
HETATM    2  C5  UNL     1      15.594  51.820  21.248  1.00  0.00     0.076 C 
BRANCH   2   3
HETATM    3  C4  UNL     1      16.504  50.766  20.766  1.00  0.00     0.037 C 
BRANCH   3   4
HETATM    4  C3  UNL     1      17.167  50.909  19.455  1.00  0.00     0.179 C 
BRANCH   4   5
HETATM    5  O1  UNL     1      18.531  51.204  19.460  1.00  0.00    -0.322 OA
BRANCH   5   6
HETATM    6  C2  UNL     1      19.428  50.486  18.693  1.00  0.00     0.226 A 
HETATM    7  N2  UNL     1      19.097  49.528  17.815  1.00  0.00    -0.307 N 
HETATM    8  C1  UNL     1      19.987  48.844  17.082  1.00  0.00     0.130 A 
ATOM      9  H2  UNL     1      18.109  49.306  17.697  1.00  0.00     0.171 HD
HETATM   10  N1  UNL     1      19.567  47.927  16.252  1.00  0.00    -0.384 N 
HETATM   11  C15 UNL     1      21.343  49.104  17.200  1.00  0.00     0.131 A 
ATOM     12  H12 UNL     1      18.569  47.736  16.165  1.00  0.00     0.157 HD
ATOM     13  H11 UNL     1      20.244  47.407  15.694  1.00  0.00     0.157 HD
HETATM   14  C14 UNL     1      21.706  50.087  18.098  1.00  0.00     0.147 A 
HETATM   15  N10 UNL     1      22.287  48.379  16.422  1.00  0.00    -0.095 NA
HETATM   16  N8  UNL     1      20.773  50.738  18.805  1.00  0.00    -0.309 N 
HETATM   17  N9  UNL     1      23.088  50.351  18.217  1.00  0.00    -0.080 NA
ATOM     18  H8  UNL     1      21.078  51.457  19.461  1.00  0.00     0.170 HD
ENDBRANCH   5   6
ENDBRANCH   4   5
ENDBRANCH   3   4
ENDBRANCH   2   3
ENDBRANCH   1   2
BRANCH   1  19
HETATM   19  C6  UNL     1      15.787  53.466  23.720  1.00  0.00     0.119 C 
BRANCH  19  20
HETATM   20  C7  UNL     1      16.105  54.819  24.217  1.00  0.00     0.037 A 
HETATM   21  C8  UNL     1      17.301  55.075  24.833  1.00  0.00     0.142 A 
HETATM   22  N3  UNL     1      18.250  54.048  25.016  1.00  0.00    -0.081 NA
HETATM   23  N4  UNL     1      17.584  56.333  25.277  1.00  0.00    -0.178 N 
HETATM   24  C9  UNL     1      16.680  57.312  25.104  1.00  0.00     0.683 A 
ATOM     25  H4  UNL     1      18.474  56.528  25.737  1.00  0.00     0.185 HD
HETATM   26  N5  UNL     1      15.490  57.088  24.499  1.00  0.00    -0.168 N 
HETATM   27  N7  UNL     1      16.975  58.630  25.563  1.00  0.00    -0.226 N 
HETATM   28  C10 UNL     1      15.201  55.838  24.054  1.00  0.00     0.127 A 
HETATM   29  C11 UNL     1      14.607  58.201  24.372  1.00  0.00     0.151 C 
HETATM   30  C12 UNL     1      14.582  58.938  25.715  1.00  0.00     0.041 C 
HETATM   31  C13 UNL     1      15.940  59.546  26.002  1.00  0.00     0.139 C 
ATOM     32  H7  UNL     1      17.947  58.938  25.582  1.00  0.00     0.177 HD
BRANCH  28  33
HETATM   33  N6  UNL     1      14.106  55.576  23.483  1.00  0.00    -0.384 N 
ATOM     34  H62 UNL     1      13.585  54.725  23.693  1.00  0.00     0.157 HD
ATOM     35  H61 UNL     1      13.750  56.244  22.799  1.00  0.00     0.157 HD
ENDBRANCH  28  33
ENDBRANCH  19  20
ENDBRANCH   1  19
TORSDOF 8
ENDMDL
MODEL 4
REMARK VINA RESULT: -8.590360195      0.299      1.583
REMARK  8 active torsions:
REMARK  status: ('A' for Active; 'I' for Inactive)
REMARK    1  A    between atoms: C2_7  and  O1_8 
REMARK    2  A    between atoms: O1_8  and  C3_9 
REMARK    3  A    between atoms: C3_9  and  C4_10 
REMARK    4  A    between atoms: C4_10  and  C5_11 
REMARK    5  A    between atoms: C5_11  and  S1_12 
REMARK    6  A    between atoms: S1_12  and  C6_13 
REMARK    7  A    between atoms: C6_13  and  C7_14 
REMARK    8  A    between atoms: C10_21  and  N6_22 
ROOT
HETATM    1  S1  UNL     1      16.275  54.094  21.585  1.00  0.00    -0.164 SA
ENDROOT
BRANCH   1   2
HETATM    2  C5  UNL     1      15.967  52.767  20.448  1.00  0.00     0.076 C 
BRANCH   2   3
HETATM    3  C4  UNL     1      16.280  51.407  20.922  1.00  0.00     0.037 C 
BRANCH   3   4
HETATM    4  C3  UNL     1      17.528  50.747  20.490  1.00  0.00     0.179 C 
BRANCH   4   5
HETATM    5  O1  UNL     1      18.277  51.386  19.502  1.00  0.00    -0.322 OA
BRANCH   5   6
HETATM    6  C2  UNL     1      19.153  50.688  18.694  1.00  0.00     0.226 A 
HETATM    7  N2  UNL     1      20.490  50.724  18.796  1.00  0.00    -0.307 N 
HETATM    8  C1  UNL     1      21.321  50.038  17.998  1.00  0.00     0.130 A 
ATOM      9  H2  UNL     1      20.900  51.309  19.524  1.00  0.00     0.171 HD
HETATM   10  N1  UNL     1      22.611  50.138  18.176  1.00  0.00    -0.384 N 
HETATM   11  C15 UNL     1      20.821  49.226  16.994  1.00  0.00     0.131 A 
ATOM     12  H12 UNL     1      22.980  50.736  18.916  1.00  0.00     0.157 HD
ATOM     13  H11 UNL     1      23.243  49.616  17.570  1.00  0.00     0.157 HD
HETATM   14  C14 UNL     1      19.447  49.173  16.871  1.00  0.00     0.147 A 
HETATM   15  N10 UNL     1      21.702  48.498  16.148  1.00  0.00    -0.095 NA
HETATM   16  N8  UNL     1      18.664  49.882  17.695  1.00  0.00    -0.309 N 
HETATM   17  N9  UNL     1      18.937  48.346  15.846  1.00  0.00    -0.080 NA
ATOM     18  H8  UNL     1      17.654  49.820  17.575  1.00  0.00     0.170 HD
ENDBRANCH   5   6
ENDBRANCH   4   5
ENDBRANCH   3   4
ENDBRANCH   2   3
ENDBRANCH   1   2
BRANCH   1  19
HETATM   19  C6  UNL     1      16.807  53.524  23.202  1.00  0.00     0.119 C 
BRANCH  19  20
HETATM   20  C7  UNL     1      15.948  54.047  24.281  1.00  0.00     0.037 A 
HETATM   21  C8  UNL     1      14.762  53.435  24.590  1.00  0.00     0.142 A 
HETATM   22  N3  UNL     1      14.332  52.299  23.874  1.00  0.00    -0.081 NA
HETATM   23  N4  UNL     1      13.983  53.925  25.596  1.00  0.00    -0.178 N 
HETATM   24  C9  UNL     1      14.392  55.009  26.278  1.00  0.00     0.683 A 
ATOM     25  H4  UNL     1      13.099  53.472  25.830  1.00  0.00     0.185 HD
HETATM   26  N5  UNL     1      15.559  55.634  25.995  1.00  0.00    -0.168 N 
HETATM   27  N7  UNL     1      13.583  55.520  27.336  1.00  0.00    -0.226 N 
HETATM   28  C10 UNL     1      16.339  55.152  24.993  1.00  0.00     0.127 A 
HETATM   29  C11 UNL     1      15.890  56.776  26.781  1.00  0.00     0.151 C 
HETATM   30  C12 UNL     1      14.636  57.650  26.895  1.00  0.00     0.041 C 
HETATM   31  C13 UNL     1      13.566  56.927  27.685  1.00  0.00     0.139 C 
ATOM     32  H7  UNL     1      12.996  54.873  27.864  1.00  0.00     0.177 HD
BRANCH  28  33
HETATM   33  N6  UNL     1      17.436  55.698  24.690  1.00  0.00    -0.384 N 
ATOM     34  H62 UNL     1      18.150  55.201  24.156  1.00  0.00     0.157 HD
ATOM     35  H61 UNL     1      17.595  56.658  24.993  1.00  0.00     0.157 HD
ENDBRANCH  28  33
ENDBRANCH  19  20
ENDBRANCH   1  19
TORSDOF 8
ENDMDL
MODEL 5
REMARK VINA RESULT: -8.548996018      1.233      2.088
REMARK  8 active torsions:
REMARK  status: ('A' for Active; 'I' for Inactive)
REMARK    1  A    between atoms: C2_7  and  O1_8 
REMARK    2  A    between atoms: O1_8  and  C3_9 
REMARK    3  A    between atoms: C3_9  and  C4_10 
REMARK    4  A    between atoms: C4_10  and  C5_11 
REMARK    5  A    between atoms: C5_11  and  S1_12 
REMARK    6  A    between atoms: S1_12  and  C6_13 
REMARK    7  A    between atoms: C6_13  and  C7_14 
REMARK    8  A    between atoms: C10_21  and  N6_22 
ROOT
HETATM    1  S1  UNL     1      14.785  52.557  20.917  1.00  0.00    -0.164 SA
ENDROOT
BRANCH   1   2
HETATM    2  C5  UNL     1      15.875  53.059  19.610  1.00  0.00     0.076 C 
BRANCH   2   3
HETATM    3  C4  UNL     1      16.324  52.003  18.684  1.00  0.00     0.037 C 
BRANCH   3   4
HETATM    4  C3  UNL     1      17.218  50.933  19.166  1.00  0.00     0.179 C 
BRANCH   4   5
HETATM    5  O1  UNL     1      18.578  51.233  19.262  1.00  0.00    -0.322 OA
BRANCH   5   6
HETATM    6  C2  UNL     1      19.528  50.511  18.567  1.00  0.00     0.226 A 
HETATM    7  N2  UNL     1      20.855  50.670  18.686  1.00  0.00    -0.307 N 
HETATM    8  C1  UNL     1      21.759  49.957  18.000  1.00  0.00     0.130 A 
ATOM      9  H2  UNL     1      21.196  51.377  19.338  1.00  0.00     0.171 HD
HETATM   10  N1  UNL     1      23.032  50.186  18.185  1.00  0.00    -0.384 N 
HETATM   11  C15 UNL     1      21.353  48.984  17.102  1.00  0.00     0.131 A 
ATOM     12  H12 UNL     1      23.331  50.902  18.846  1.00  0.00     0.157 HD
ATOM     13  H11 UNL     1      23.720  49.643  17.663  1.00  0.00     0.157 HD
HETATM   14  C14 UNL     1      19.991  48.803  16.964  1.00  0.00     0.147 A 
HETATM   15  N10 UNL     1      22.312  48.228  16.375  1.00  0.00    -0.095 NA
HETATM   16  N8  UNL     1      19.133  49.546  17.675  1.00  0.00    -0.309 N 
HETATM   17  N9  UNL     1      19.578  47.811  16.048  1.00  0.00    -0.080 NA
ATOM     18  H8  UNL     1      18.134  49.386  17.546  1.00  0.00     0.170 HD
ENDBRANCH   5   6
ENDBRANCH   4   5
ENDBRANCH   3   4
ENDBRANCH   2   3
ENDBRANCH   1   2
BRANCH   1  19
HETATM   19  C6  UNL     1      15.632  52.307  22.479  1.00  0.00     0.119 C 
BRANCH  19  20
HETATM   20  C7  UNL     1      15.281  53.343  23.469  1.00  0.00     0.037 A 
HETATM   21  C8  UNL     1      14.353  53.093  24.445  1.00  0.00     0.142 A 
HETATM   22  N3  UNL     1      13.705  51.843  24.517  1.00  0.00    -0.081 NA
HETATM   23  N4  UNL     1      14.046  54.058  25.358  1.00  0.00    -0.178 N 
HETATM   24  C9  UNL     1      14.663  55.250  25.289  1.00  0.00     0.683 A 
ATOM     25  H4  UNL     1      13.356  53.876  26.087  1.00  0.00     0.185 HD
HETATM   26  N5  UNL     1      15.584  55.526  24.336  1.00  0.00    -0.168 N 
HETATM   27  N7  UNL     1      14.349  56.259  26.247  1.00  0.00    -0.226 N 
HETATM   28  C10 UNL     1      15.894  54.569  23.423  1.00  0.00     0.127 A 
HETATM   29  C11 UNL     1      16.171  56.825  24.358  1.00  0.00     0.151 C 
HETATM   30  C12 UNL     1      15.048  57.847  24.563  1.00  0.00     0.041 C 
HETATM   31  C13 UNL     1      14.429  57.673  25.935  1.00  0.00     0.139 C 
ATOM     32  H7  UNL     1      14.058  55.977  27.183  1.00  0.00     0.177 HD
BRANCH  28  33
HETATM   33  N6  UNL     1      16.745  54.775  22.514  1.00  0.00    -0.384 N 
ATOM     34  H62 UNL     1      16.986  55.719  22.212  1.00  0.00     0.157 HD
ATOM     35  H61 UNL     1      17.193  53.966  22.084  1.00  0.00     0.157 HD
ENDBRANCH  28  33
ENDBRANCH  19  20
ENDBRANCH   1  19
TORSDOF 8
ENDMDL
