MODEL 1
REMARK VINA RESULT: -8.791312133      0.000      0.000
REMARK  8 active torsions:
REMARK  status: ('A' for Active; 'I' for Inactive)
REMARK       I    between atoms: N1_1  and  C1_4 
REMARK       I    between atoms: C1_4  and  N3_6 
REMARK    1  A    between atoms: N3_6  and  N4_8 
REMARK    2  A    between atoms: N4_8  and  C2_9 
REMARK    3  A    between atoms: C4_15  and  N7_16 
REMARK    4  A    between atoms: C6_21  and  N8_22 
REMARK    5  A    between atoms: N8_22  and  C7_24 
REMARK    6  A    between atoms: C7_24  and  C8_25 
REMARK    7  A    between atoms: C8_25  and  N9_26 
REMARK    8  A    between atoms: C9_30  and  C10_31 
ROOT
HETATM    1  C2  UNL     1      16.104  51.945  15.966  1.00  0.00     0.224 A 
HETATM    2  N5  UNL     1      15.578  52.336  17.142  1.00  0.00    -0.313 N 
ATOM      3  H5  UNL     1      14.972  53.156  17.129  1.00  0.00     0.170 HD
HETATM    4  C3  UNL     1      15.784  51.733  18.351  1.00  0.00     0.129 A 
HETATM    5  N6  UNL     1      15.283  52.090  19.525  1.00  0.00    -0.317 N 
ATOM      6  H6  UNL     1      14.668  52.900  19.593  1.00  0.00     0.169 HD
HETATM    7  C4  UNL     1      15.579  51.403  20.597  1.00  0.00     0.218 A 
HETATM    8  S1  UNL     1      16.607  50.183  19.984  1.00  0.00    -0.042 SA
HETATM    9  C5  UNL     1      16.599  50.637  18.338  1.00  0.00     0.080 A 
HETATM   10  C6  UNL     1      17.180  50.177  17.142  1.00  0.00     0.071 A 
HETATM   11  C9  UNL     1      16.948  50.814  15.942  1.00  0.00     0.129 A 
ENDROOT
BRANCH   1  12
HETATM   12  N4  UNL     1      15.808  52.611  14.958  1.00  0.00    -0.303 NA
BRANCH  12  13
HETATM   13  N3  UNL     1      15.508  53.291  13.949  1.00  0.00    -0.205 N 
HETATM   14  C1  UNL     1      14.162  53.474  13.476  1.00  0.00     0.211 C 
HETATM   15  N1  UNL     1      13.834  53.332  12.247  1.00  0.00    -0.372 N 
HETATM   16  N2  UNL     1      13.175  53.827  14.421  1.00  0.00    -0.062 NA
ATOM     17  H12 UNL     1      12.879  53.463  11.912  1.00  0.00     0.158 HD
ATOM     18  H11 UNL     1      14.547  53.077  11.564  1.00  0.00     0.158 HD
ATOM     19  H3  UNL     1      16.263  53.741  13.432  1.00  0.00     0.204 HD
ENDBRANCH  12  13
ENDBRANCH   1  12
BRANCH  11  20
HETATM   20  C10 UNL     1      17.499  50.403  14.687  1.00  0.00     0.216 C 
HETATM   21  O3  UNL     1      17.429  49.239  14.256  1.00  0.00    -0.644 OA
HETATM   22  O4  UNL     1      18.159  51.307  13.867  1.00  0.00    -0.644 OA
ENDBRANCH  11  20
BRANCH  10  23
HETATM   23  N8  UNL     1      17.997  49.040  17.272  1.00  0.00    -0.386 N 
ATOM     24  H8  UNL     1      17.570  48.127  17.114  1.00  0.00     0.159 HD
BRANCH  23  25
HETATM   25  C7  UNL     1      19.403  49.077  17.616  1.00  0.00     0.147 C 
BRANCH  25  26
HETATM   26  C8  UNL     1      20.190  48.137  16.672  1.00  0.00     0.249 C 
BRANCH  26  27
HETATM   27  N9  UNL     1      19.293  47.312  15.909  1.00  0.00    -0.078 N 
ATOM     28  H93 UNL     1      19.773  46.848  15.137  1.00  0.00     0.274 HD
ATOM     29  H92 UNL     1      19.005  46.484  16.430  1.00  0.00     0.274 HD
ATOM     30  H91 UNL     1      18.491  47.852  15.584  1.00  0.00     0.274 HD
ENDBRANCH  26  27
ENDBRANCH  25  26
ENDBRANCH  23  25
ENDBRANCH  10  23
BRANCH   7  31
HETATM   31  N7  UNL     1      15.133  51.643  21.940  1.00  0.00    -0.090 N 
HETATM   32  O1  UNL     1      14.163  51.005  22.353  1.00  0.00    -0.530 OA
HETATM   33  O2  UNL     1      15.775  52.546  22.705  1.00  0.00    -0.530 OA
ENDBRANCH   7  31
TORSDOF 8
ENDMDL
MODEL 2
REMARK VINA RESULT: -8.678271727      1.760      5.014
REMARK  8 active torsions:
REMARK  status: ('A' for Active; 'I' for Inactive)
REMARK       I    between atoms: N1_1  and  C1_4 
REMARK       I    between atoms: C1_4  and  N3_6 
REMARK    1  A    between atoms: N3_6  and  N4_8 
REMARK    2  A    between atoms: N4_8  and  C2_9 
REMARK    3  A    between atoms: C4_15  and  N7_16 
REMARK    4  A    between atoms: C6_21  and  N8_22 
REMARK    5  A    between atoms: N8_22  and  C7_24 
REMARK    6  A    between atoms: C7_24  and  C8_25 
REMARK    7  A    between atoms: C8_25  and  N9_26 
REMARK    8  A    between atoms: C9_30  and  C10_31 
ROOT
HETATM    1  C2  UNL     1      18.340  49.284  17.648  1.00  0.00     0.224 A 
HETATM    2  N5  UNL     1      18.001  49.543  18.924  1.00  0.00    -0.313 N 
ATOM      3  H5  UNL     1      18.567  49.109  19.652  1.00  0.00     0.170 HD
HETATM    4  C3  UNL     1      16.966  50.337  19.332  1.00  0.00     0.129 A 
HETATM    5  N6  UNL     1      16.604  50.614  20.577  1.00  0.00    -0.317 N 
ATOM      6  H6  UNL     1      17.122  50.216  21.360  1.00  0.00     0.169 HD
HETATM    7  C4  UNL     1      15.582  51.398  20.801  1.00  0.00     0.218 A 
HETATM    8  S1  UNL     1      15.066  51.795  19.221  1.00  0.00    -0.042 SA
HETATM    9  C5  UNL     1      16.225  50.907  18.336  1.00  0.00     0.080 A 
HETATM   10  C6  UNL     1      16.527  50.676  16.982  1.00  0.00     0.071 A 
HETATM   11  C9  UNL     1      17.581  49.868  16.611  1.00  0.00     0.129 A 
ENDROOT
BRANCH   1  12
HETATM   12  N4  UNL     1      19.317  48.538  17.456  1.00  0.00    -0.303 NA
BRANCH  12  13
HETATM   13  N3  UNL     1      20.301  47.789  17.251  1.00  0.00    -0.205 N 
HETATM   14  C1  UNL     1      20.200  46.464  16.702  1.00  0.00     0.211 C 
HETATM   15  N1  UNL     1      20.801  45.455  17.211  1.00  0.00    -0.372 N 
HETATM   16  N2  UNL     1      19.402  46.287  15.551  1.00  0.00    -0.062 NA
ATOM     17  H12 UNL     1      20.729  44.515  16.822  1.00  0.00     0.158 HD
ATOM     18  H11 UNL     1      21.378  45.583  18.043  1.00  0.00     0.158 HD
ATOM     19  H3  UNL     1      21.228  48.141  17.489  1.00  0.00     0.204 HD
ENDBRANCH  12  13
ENDBRANCH   1  12
BRANCH  11  20
HETATM   20  C10 UNL     1      17.951  49.590  15.257  1.00  0.00     0.216 C 
HETATM   21  O3  UNL     1      17.319  48.817  14.518  1.00  0.00    -0.644 OA
HETATM   22  O4  UNL     1      19.067  50.187  14.686  1.00  0.00    -0.644 OA
ENDBRANCH  11  20
BRANCH  10  23
HETATM   23  N8  UNL     1      15.685  51.325  16.061  1.00  0.00    -0.386 N 
ATOM     24  H8  UNL     1      14.926  50.784  15.647  1.00  0.00     0.159 HD
BRANCH  23  25
HETATM   25  C7  UNL     1      15.824  52.709  15.660  1.00  0.00     0.147 C 
BRANCH  25  26
HETATM   26  C8  UNL     1      16.219  52.777  14.165  1.00  0.00     0.249 C 
BRANCH  26  27
HETATM   27  N9  UNL     1      17.649  52.822  14.016  1.00  0.00    -0.078 N 
ATOM     28  H93 UNL     1      17.946  53.636  13.479  1.00  0.00     0.274 HD
ATOM     29  H92 UNL     1      18.113  53.041  14.897  1.00  0.00     0.274 HD
ATOM     30  H91 UNL     1      17.998  51.955  13.610  1.00  0.00     0.274 HD
ENDBRANCH  26  27
ENDBRANCH  25  26
ENDBRANCH  23  25
ENDBRANCH  10  23
BRANCH   7  31
HETATM   31  N7  UNL     1      15.052  51.802  22.072  1.00  0.00    -0.090 N 
HETATM   32  O1  UNL     1      14.221  51.071  22.614  1.00  0.00    -0.530 OA
HETATM   33  O2  UNL     1      15.469  52.953  22.633  1.00  0.00    -0.530 OA
ENDBRANCH   7  31
TORSDOF 8
ENDMDL
MODEL 3
REMARK VINA RESULT: -8.178523341      1.590      5.221
REMARK  8 active torsions:
REMARK  status: ('A' for Active; 'I' for Inactive)
REMARK       I    between atoms: N1_1  and  C1_4 
REMARK       I    between atoms: C1_4  and  N3_6 
REMARK    1  A    between atoms: N3_6  and  N4_8 
REMARK    2  A    between atoms: N4_8  and  C2_9 
REMARK    3  A    between atoms: C4_15  and  N7_16 
REMARK    4  A    between atoms: C6_21  and  N8_22 
REMARK    5  A    between atoms: N8_22  and  C7_24 
REMARK    6  A    between atoms: C7_24  and  C8_25 
REMARK    7  A    between atoms: C8_25  and  N9_26 
REMARK    8  A    between atoms: C9_30  and  C10_31 
ROOT
HETATM    1  C2  UNL     1      18.314  49.269  17.764  1.00  0.00     0.224 A 
HETATM    2  N5  UNL     1      17.976  49.571  19.031  1.00  0.00    -0.313 N 
ATOM      3  H5  UNL     1      18.539  49.155  19.773  1.00  0.00     0.170 HD
HETATM    4  C3  UNL     1      16.947  50.384  19.414  1.00  0.00     0.129 A 
HETATM    5  N6  UNL     1      16.586  50.702  20.650  1.00  0.00    -0.317 N 
ATOM      6  H6  UNL     1      17.102  50.325  21.445  1.00  0.00     0.169 HD
HETATM    7  C4  UNL     1      15.570  51.499  20.849  1.00  0.00     0.218 A 
HETATM    8  S1  UNL     1      15.057  51.850  19.258  1.00  0.00    -0.042 SA
HETATM    9  C5  UNL     1      16.209  50.928  18.401  1.00  0.00     0.080 A 
HETATM   10  C6  UNL     1      16.510  50.652  17.054  1.00  0.00     0.071 A 
HETATM   11  C9  UNL     1      17.558  49.825  16.709  1.00  0.00     0.129 A 
ENDROOT
BRANCH   1  12
HETATM   12  N4  UNL     1      19.285  48.511  17.596  1.00  0.00    -0.303 NA
BRANCH  12  13
HETATM   13  N3  UNL     1      20.265  47.746  17.438  1.00  0.00    -0.205 N 
HETATM   14  C1  UNL     1      21.587  48.197  17.092  1.00  0.00     0.211 C 
HETATM   15  N1  UNL     1      22.283  47.656  16.164  1.00  0.00    -0.372 N 
HETATM   16  N2  UNL     1      22.124  49.281  17.819  1.00  0.00    -0.062 NA
ATOM     17  H12 UNL     1      23.220  47.975  15.919  1.00  0.00     0.158 HD
ATOM     18  H11 UNL     1      21.895  46.872  15.639  1.00  0.00     0.158 HD
ATOM     19  H3  UNL     1      20.117  46.745  17.562  1.00  0.00     0.204 HD
ENDBRANCH  12  13
ENDBRANCH   1  12
BRANCH  11  20
HETATM   20  C10 UNL     1      17.927  49.503  15.364  1.00  0.00     0.216 C 
HETATM   21  O3  UNL     1      18.196  50.359  14.504  1.00  0.00    -0.644 OA
HETATM   22  O4  UNL     1      18.002  48.183  14.942  1.00  0.00    -0.644 OA
ENDBRANCH  11  20
BRANCH  10  23
HETATM   23  N8  UNL     1      15.673  51.277  16.114  1.00  0.00    -0.386 N 
ATOM     24  H8  UNL     1      14.945  50.714  15.675  1.00  0.00     0.159 HD
BRANCH  23  25
HETATM   25  C7  UNL     1      15.774  52.669  15.725  1.00  0.00     0.147 C 
BRANCH  25  26
HETATM   26  C8  UNL     1      14.781  52.958  14.575  1.00  0.00     0.249 C 
BRANCH  26  27
HETATM   27  N9  UNL     1      15.405  53.746  13.546  1.00  0.00    -0.078 N 
ATOM     28  H93 UNL     1      15.255  54.744  13.693  1.00  0.00     0.274 HD
ATOM     29  H92 UNL     1      16.422  53.730  13.623  1.00  0.00     0.274 HD
ATOM     30  H91 UNL     1      15.092  53.449  12.622  1.00  0.00     0.274 HD
ENDBRANCH  26  27
ENDBRANCH  25  26
ENDBRANCH  23  25
ENDBRANCH  10  23
BRANCH   7  31
HETATM   31  N7  UNL     1      15.043  51.946  22.107  1.00  0.00    -0.090 N 
HETATM   32  O1  UNL     1      14.257  51.208  22.703  1.00  0.00    -0.530 OA
HETATM   33  O2  UNL     1      15.414  53.144  22.598  1.00  0.00    -0.530 OA
ENDBRANCH   7  31
TORSDOF 8
ENDMDL
MODEL 4
REMARK VINA RESULT: -7.114289636      2.630      6.682
REMARK  8 active torsions:
REMARK  status: ('A' for Active; 'I' for Inactive)
REMARK       I    between atoms: N1_1  and  C1_4 
REMARK       I    between atoms: C1_4  and  N3_6 
REMARK    1  A    between atoms: N3_6  and  N4_8 
REMARK    2  A    between atoms: N4_8  and  C2_9 
REMARK    3  A    between atoms: C4_15  and  N7_16 
REMARK    4  A    between atoms: C6_21  and  N8_22 
REMARK    5  A    between atoms: N8_22  and  C7_24 
REMARK    6  A    between atoms: C7_24  and  C8_25 
REMARK    7  A    between atoms: C8_25  and  N9_26 
REMARK    8  A    between atoms: C9_30  and  C10_31 
ROOT
HETATM    1  C2  UNL     1      17.050  50.536  19.598  1.00  0.00     0.224 A 
HETATM    2  N5  UNL     1      18.226  49.897  19.454  1.00  0.00    -0.313 N 
ATOM      3  H5  UNL     1      18.731  49.658  20.308  1.00  0.00     0.170 HD
HETATM    4  C3  UNL     1      18.804  49.540  18.269  1.00  0.00     0.129 A 
HETATM    5  N6  UNL     1      19.957  48.912  18.090  1.00  0.00    -0.317 N 
ATOM      6  H6  UNL     1      20.520  48.640  18.896  1.00  0.00     0.169 HD
HETATM    7  C4  UNL     1      20.374  48.641  16.882  1.00  0.00     0.218 A 
HETATM    8  S1  UNL     1      19.122  49.276  15.907  1.00  0.00    -0.042 SA
HETATM    9  C5  UNL     1      18.105  49.871  17.142  1.00  0.00     0.080 A 
HETATM   10  C6  UNL     1      16.870  50.540  17.224  1.00  0.00     0.071 A 
HETATM   11  C9  UNL     1      16.320  50.883  18.441  1.00  0.00     0.129 A 
ENDROOT
BRANCH   1  12
HETATM   12  N4  UNL     1      16.670  50.782  20.756  1.00  0.00    -0.303 NA
BRANCH  12  13
HETATM   13  N3  UNL     1      16.299  51.032  21.927  1.00  0.00    -0.205 N 
HETATM   14  C1  UNL     1      15.459  52.145  22.281  1.00  0.00     0.211 C 
HETATM   15  N1  UNL     1      15.723  52.929  23.259  1.00  0.00    -0.372 N 
HETATM   16  N2  UNL     1      14.299  52.366  21.509  1.00  0.00    -0.062 NA
ATOM     17  H12 UNL     1      15.128  53.717  23.510  1.00  0.00     0.158 HD
ATOM     18  H11 UNL     1      16.562  52.769  23.817  1.00  0.00     0.158 HD
ATOM     19  H3  UNL     1      16.611  50.411  22.673  1.00  0.00     0.204 HD
ENDBRANCH  12  13
ENDBRANCH   1  12
BRANCH  11  20
HETATM   20  C10 UNL     1      15.068  51.558  18.602  1.00  0.00     0.216 C 
HETATM   21  O3  UNL     1      14.888  52.749  18.299  1.00  0.00    -0.644 OA
HETATM   22  O4  UNL     1      13.964  50.897  19.122  1.00  0.00    -0.644 OA
ENDBRANCH  11  20
BRANCH  10  23
HETATM   23  N8  UNL     1      16.257  50.819  15.989  1.00  0.00    -0.386 N 
ATOM     24  H8  UNL     1      15.592  50.139  15.623  1.00  0.00     0.159 HD
BRANCH  23  25
HETATM   25  C7  UNL     1      16.509  52.008  15.202  1.00  0.00     0.147 C 
BRANCH  25  26
HETATM   26  C8  UNL     1      15.165  52.697  14.864  1.00  0.00     0.249 C 
BRANCH  26  27
HETATM   27  N9  UNL     1      15.025  53.929  15.592  1.00  0.00    -0.078 N 
ATOM     28  H93 UNL     1      15.248  53.810  16.580  1.00  0.00     0.274 HD
ATOM     29  H92 UNL     1      15.757  54.597  15.349  1.00  0.00     0.274 HD
ATOM     30  H91 UNL     1      14.095  54.325  15.461  1.00  0.00     0.274 HD
ENDBRANCH  26  27
ENDBRANCH  25  26
ENDBRANCH  23  25
ENDBRANCH  10  23
BRANCH   7  31
HETATM   31  N7  UNL     1      21.587  47.974  16.504  1.00  0.00    -0.090 N 
HETATM   32  O1  UNL     1      21.598  47.343  15.445  1.00  0.00    -0.530 OA
HETATM   33  O2  UNL     1      22.668  48.052  17.303  1.00  0.00    -0.530 OA
ENDBRANCH   7  31
TORSDOF 8
ENDMDL
MODEL 5
REMARK VINA RESULT: -7.008805087      1.703      5.197
REMARK  8 active torsions:
REMARK  status: ('A' for Active; 'I' for Inactive)
REMARK       I    between atoms: N1_1  and  C1_4 
REMARK       I    between atoms: C1_4  and  N3_6 
REMARK    1  A    between atoms: N3_6  and  N4_8 
REMARK    2  A    between atoms: N4_8  and  C2_9 
REMARK    3  A    between atoms: C4_15  and  N7_16 
REMARK    4  A    between atoms: C6_21  and  N8_22 
REMARK    5  A    between atoms: N8_22  and  C7_24 
REMARK    6  A    between atoms: C7_24  and  C8_25 
REMARK    7  A    between atoms: C8_25  and  N9_26 
REMARK    8  A    between atoms: C9_30  and  C10_31 
ROOT
HETATM    1  C2  UNL     1      18.838  49.735  17.848  1.00  0.00     0.224 A 
HETATM    2  N5  UNL     1      18.472  50.011  19.113  1.00  0.00    -0.313 N 
ATOM      3  H5  UNL     1      19.153  49.809  19.846  1.00  0.00     0.170 HD
HETATM    4  C3  UNL     1      17.274  50.536  19.505  1.00  0.00     0.129 A 
HETATM    5  N6  UNL     1      16.881  50.820  20.739  1.00  0.00    -0.317 N 
ATOM      6  H6  UNL     1      17.506  50.647  21.525  1.00  0.00     0.169 HD
HETATM    7  C4  UNL     1      15.693  51.323  20.947  1.00  0.00     0.218 A 
HETATM    8  S1  UNL     1      15.051  51.424  19.367  1.00  0.00    -0.042 SA
HETATM    9  C5  UNL     1      16.382  50.797  18.502  1.00  0.00     0.080 A 
HETATM   10  C6  UNL     1      16.702  50.531  17.158  1.00  0.00     0.071 A 
HETATM   11  C9  UNL     1      17.924  50.000  16.804  1.00  0.00     0.129 A 
ENDROOT
BRANCH   1  12
HETATM   12  N4  UNL     1      19.973  49.260  17.670  1.00  0.00    -0.303 NA
BRANCH  12  13
HETATM   13  N3  UNL     1      21.122  48.790  17.497  1.00  0.00    -0.205 N 
HETATM   14  C1  UNL     1      21.393  47.582  16.764  1.00  0.00     0.211 C 
HETATM   15  N1  UNL     1      22.165  46.662  17.207  1.00  0.00    -0.372 N 
HETATM   16  N2  UNL     1      20.775  47.424  15.505  1.00  0.00    -0.062 NA
ATOM     17  H12 UNL     1      22.357  45.806  16.687  1.00  0.00     0.158 HD
ATOM     18  H11 UNL     1      22.612  46.776  18.117  1.00  0.00     0.158 HD
ATOM     19  H3  UNL     1      21.912  49.293  17.901  1.00  0.00     0.204 HD
ENDBRANCH  12  13
ENDBRANCH   1  12
BRANCH  11  20
HETATM   20  C10 UNL     1      18.322  49.708  15.461  1.00  0.00     0.216 C 
HETATM   21  O3  UNL     1      19.121  50.407  14.815  1.00  0.00    -0.644 OA
HETATM   22  O4  UNL     1      17.820  48.600  14.793  1.00  0.00    -0.644 OA
ENDBRANCH  11  20
BRANCH  10  23
HETATM   23  N8  UNL     1      15.695  50.848  16.229  1.00  0.00    -0.386 N 
ATOM     24  H8  UNL     1      14.833  50.305  16.259  1.00  0.00     0.159 HD
BRANCH  23  25
HETATM   25  C7  UNL     1      15.801  51.893  15.232  1.00  0.00     0.147 C 
BRANCH  25  26
HETATM   26  C8  UNL     1      16.029  53.254  15.934  1.00  0.00     0.249 C 
BRANCH  26  27
HETATM   27  N9  UNL     1      14.809  54.014  15.983  1.00  0.00    -0.078 N 
ATOM     28  H93 UNL     1      14.699  54.603  15.158  1.00  0.00     0.274 HD
ATOM     29  H92 UNL     1      13.989  53.421  15.859  1.00  0.00     0.274 HD
ATOM     30  H91 UNL     1      14.755  54.557  16.844  1.00  0.00     0.274 HD
ENDBRANCH  26  27
ENDBRANCH  25  26
ENDBRANCH  23  25
ENDBRANCH  10  23
BRANCH   7  31
HETATM   31  N7  UNL     1      15.106  51.687  22.205  1.00  0.00    -0.090 N 
HETATM   32  O1  UNL     1      14.118  51.058  22.588  1.00  0.00    -0.530 OA
HETATM   33  O2  UNL     1      15.640  52.692  22.925  1.00  0.00    -0.530 OA
ENDBRANCH   7  31
TORSDOF 8
ENDMDL
