MODEL 1
REMARK VINA RESULT: -8.793695863      0.000      0.000
REMARK  8 active torsions:
REMARK  status: ('A' for Active; 'I' for Inactive)
REMARK    1  A    between atoms: C1_4  and  N2_5 
REMARK    2  A    between atoms: C1_4  and  S1_17 
REMARK    3  A    between atoms: N2_5  and  N3_7 
REMARK    4  A    between atoms: C2_9  and  N4_10 
REMARK    5  A    between atoms: S1_17  and  S2_18 
REMARK    6  A    between atoms: S2_18  and  N8_19 
REMARK    7  A    between atoms: C4_21  and  C5_22 
REMARK    8  A    between atoms: C4_21  and  C6_25 
ROOT
HETATM    1  N1  UNL     1      17.592  48.037  14.748  1.00  0.00    -0.378 N 
ATOM      2  H11 UNL     1      17.966  47.803  13.829  1.00  0.00     0.158 HD
ATOM      3  H12 UNL     1      17.193  47.281  15.305  1.00  0.00     0.158 HD
HETATM    4  C1  UNL     1      17.608  49.225  15.212  1.00  0.00     0.165 C 
ENDROOT
BRANCH   4   5
HETATM    5  N2  UNL     1      17.079  49.556  16.513  1.00  0.00    -0.279 N 
ATOM      6  H2  UNL     1      16.077  49.438  16.666  1.00  0.00     0.189 HD
BRANCH   5   7
HETATM    7  N3  UNL     1      17.828  50.013  17.538  1.00  0.00    -0.292 N 
HETATM    8  C2  UNL     1      18.959  49.746  17.997  1.00  0.00     0.225 C 
ATOM      9  H3  UNL     1      17.361  50.753  18.062  1.00  0.00     0.187 HD
BRANCH   8  10
HETATM   10  N4  UNL     1      19.895  48.802  17.555  1.00  0.00    -0.184 N 
HETATM   11  N5  UNL     1      19.583  47.458  17.160  1.00  0.00     0.004 NA
HETATM   12  N6  UNL     1      20.371  47.253  16.029  1.00  0.00    -0.004 NA
HETATM   13  N7  UNL     1      21.550  47.926  16.308  1.00  0.00    -0.236 N 
HETATM   14  C3  UNL     1      21.292  48.871  17.362  1.00  0.00     0.357 C 
ATOM     15  H7  UNL     1      22.447  47.778  15.846  1.00  0.00     0.188 HD
HETATM   16  O1  UNL     1      22.139  49.577  17.954  1.00  0.00    -0.244 OA
ENDBRANCH   8  10
ENDBRANCH   5   7
ENDBRANCH   4   5
BRANCH   4  17
HETATM   17  S1  UNL     1      18.301  50.539  14.244  1.00  0.00     0.002 SA
BRANCH  17  18
HETATM   18  S2  UNL     1      17.626  52.442  14.881  1.00  0.00     0.028 SA
BRANCH  18  19
HETATM   19  N8  UNL     1      16.129  52.910  14.100  1.00  0.00    -0.313 N 
HETATM   20  C4  UNL     1      15.061  53.108  14.791  1.00  0.00     0.150 C 
ATOM     21  H8  UNL     1      16.104  53.027  13.087  1.00  0.00     0.175 HD
BRANCH  20  22
HETATM   22  C5  UNL     1      15.002  52.968  16.213  1.00  0.00     0.230 C 
HETATM   23  O2  UNL     1      15.257  51.836  16.731  1.00  0.00    -0.643 OA
HETATM   24  O3  UNL     1      14.686  53.975  17.080  1.00  0.00    -0.643 OA
ENDBRANCH  20  22
BRANCH  20  25
HETATM   25  C6  UNL     1      13.879  53.495  14.016  1.00  0.00     0.109 A 
HETATM   26  C7  UNL     1      13.713  53.553  12.655  1.00  0.00     0.041 A 
HETATM   27  C8  UNL     1      12.414  53.976  12.411  1.00  0.00     0.027 A 
HETATM   28  C9  UNL     1      11.832  54.162  13.637  1.00  0.00     0.142 A 
HETATM   29  O4  UNL     1      12.719  53.870  14.537  1.00  0.00    -0.320 OA
ENDBRANCH  20  25
ENDBRANCH  18  19
ENDBRANCH  17  18
ENDBRANCH   4  17
TORSDOF 8
ENDMDL
MODEL 2
REMARK VINA RESULT: -8.525466211      4.420      7.130
REMARK  8 active torsions:
REMARK  status: ('A' for Active; 'I' for Inactive)
REMARK    1  A    between atoms: C1_4  and  N2_5 
REMARK    2  A    between atoms: C1_4  and  S1_17 
REMARK    3  A    between atoms: N2_5  and  N3_7 
REMARK    4  A    between atoms: C2_9  and  N4_10 
REMARK    5  A    between atoms: S1_17  and  S2_18 
REMARK    6  A    between atoms: S2_18  and  N8_19 
REMARK    7  A    between atoms: C4_21  and  C5_22 
REMARK    8  A    between atoms: C4_21  and  C6_25 
ROOT
HETATM    1  N1  UNL     1      17.500  49.097  16.315  1.00  0.00    -0.378 N 
ATOM      2  H11 UNL     1      17.130  48.296  16.826  1.00  0.00     0.158 HD
ATOM      3  H12 UNL     1      17.354  49.126  15.306  1.00  0.00     0.158 HD
HETATM    4  C1  UNL     1      18.129  50.046  16.892  1.00  0.00     0.165 C 
ENDROOT
BRANCH   4   5
HETATM    5  N2  UNL     1      18.653  51.179  16.169  1.00  0.00    -0.279 N 
ATOM      6  H2  UNL     1      19.316  51.788  16.649  1.00  0.00     0.189 HD
BRANCH   5   7
HETATM    7  N3  UNL     1      18.318  51.482  14.897  1.00  0.00    -0.292 N 
HETATM    8  C2  UNL     1      17.319  51.984  14.340  1.00  0.00     0.225 C 
ATOM      9  H3  UNL     1      19.056  51.246  14.234  1.00  0.00     0.187 HD
BRANCH   8  10
HETATM   10  N4  UNL     1      16.119  52.433  14.906  1.00  0.00    -0.184 N 
HETATM   11  N5  UNL     1      15.617  52.035  16.189  1.00  0.00     0.004 NA
HETATM   12  N6  UNL     1      15.126  53.219  16.735  1.00  0.00    -0.004 NA
HETATM   13  N7  UNL     1      14.580  53.893  15.654  1.00  0.00    -0.236 N 
HETATM   14  C3  UNL     1      15.136  53.337  14.449  1.00  0.00     0.357 C 
ATOM     15  H7  UNL     1      13.901  54.652  15.703  1.00  0.00     0.188 HD
HETATM   16  O1  UNL     1      14.798  53.613  13.276  1.00  0.00    -0.244 OA
ENDBRANCH   8  10
ENDBRANCH   5   7
ENDBRANCH   4   5
BRANCH   4  17
HETATM   17  S1  UNL     1      18.382  49.996  18.646  1.00  0.00     0.002 SA
BRANCH  17  18
HETATM   18  S2  UNL     1      16.624  49.444  19.691  1.00  0.00     0.028 SA
BRANCH  18  19
HETATM   19  N8  UNL     1      16.317  50.484  21.066  1.00  0.00    -0.313 N 
HETATM   20  C4  UNL     1      15.167  51.042  21.224  1.00  0.00     0.150 C 
ATOM     21  H8  UNL     1      17.056  50.649  21.749  1.00  0.00     0.175 HD
BRANCH  20  22
HETATM   22  C5  UNL     1      14.073  50.869  20.320  1.00  0.00     0.230 C 
HETATM   23  O2  UNL     1      13.615  51.883  19.706  1.00  0.00    -0.643 OA
HETATM   24  O3  UNL     1      13.465  49.674  20.056  1.00  0.00    -0.643 OA
ENDBRANCH  20  22
BRANCH  20  25
HETATM   25  C6  UNL     1      15.042  51.887  22.415  1.00  0.00     0.109 A 
HETATM   26  C7  UNL     1      15.700  53.049  22.729  1.00  0.00     0.041 A 
HETATM   27  C8  UNL     1      15.235  53.471  23.967  1.00  0.00     0.027 A 
HETATM   28  C9  UNL     1      14.305  52.546  24.365  1.00  0.00     0.142 A 
HETATM   29  O4  UNL     1      14.227  51.647  23.434  1.00  0.00    -0.320 OA
ENDBRANCH  20  25
ENDBRANCH  18  19
ENDBRANCH  17  18
ENDBRANCH   4  17
TORSDOF 8
ENDMDL
MODEL 3
REMARK VINA RESULT: -8.137687766      2.475      3.939
REMARK  8 active torsions:
REMARK  status: ('A' for Active; 'I' for Inactive)
REMARK    1  A    between atoms: C1_4  and  N2_5 
REMARK    2  A    between atoms: C1_4  and  S1_17 
REMARK    3  A    between atoms: N2_5  and  N3_7 
REMARK    4  A    between atoms: C2_9  and  N4_10 
REMARK    5  A    between atoms: S1_17  and  S2_18 
REMARK    6  A    between atoms: S2_18  and  N8_19 
REMARK    7  A    between atoms: C4_21  and  C5_22 
REMARK    8  A    between atoms: C4_21  and  C6_25 
ROOT
HETATM    1  N1  UNL     1      19.388  49.240  16.514  1.00  0.00    -0.378 N 
ATOM      2  H11 UNL     1      20.111  49.206  15.795  1.00  0.00     0.158 HD
ATOM      3  H12 UNL     1      19.631  48.911  17.449  1.00  0.00     0.158 HD
HETATM    4  C1  UNL     1      18.210  49.674  16.282  1.00  0.00     0.165 C 
ENDROOT
BRANCH   4   5
HETATM    5  N2  UNL     1      17.188  49.722  17.298  1.00  0.00    -0.279 N 
ATOM      6  H2  UNL     1      16.261  50.052  17.030  1.00  0.00     0.189 HD
BRANCH   5   7
HETATM    7  N3  UNL     1      17.384  49.356  18.582  1.00  0.00    -0.292 N 
HETATM    8  C2  UNL     1      16.860  49.650  19.678  1.00  0.00     0.225 C 
ATOM      9  H3  UNL     1      18.139  48.678  18.682  1.00  0.00     0.187 HD
BRANCH   8  10
HETATM   10  N4  UNL     1      15.806  50.533  19.948  1.00  0.00    -0.184 N 
HETATM   11  N5  UNL     1      14.714  50.804  19.058  1.00  0.00     0.004 NA
HETATM   12  N6  UNL     1      13.603  50.841  19.899  1.00  0.00    -0.004 NA
HETATM   13  N7  UNL     1      14.072  51.437  21.059  1.00  0.00    -0.236 N 
HETATM   14  C3  UNL     1      15.507  51.335  21.070  1.00  0.00     0.357 C 
ATOM     15  H7  UNL     1      13.499  51.873  21.781  1.00  0.00     0.188 HD
HETATM   16  O1  UNL     1      16.284  51.857  21.900  1.00  0.00    -0.244 OA
ENDBRANCH   8  10
ENDBRANCH   5   7
ENDBRANCH   4   5
BRANCH   4  17
HETATM   17  S1  UNL     1      17.788  50.245  14.658  1.00  0.00     0.002 SA
BRANCH  17  18
HETATM   18  S2  UNL     1      17.617  52.354  14.572  1.00  0.00     0.028 SA
BRANCH  18  19
HETATM   19  N8  UNL     1      16.099  52.869  13.868  1.00  0.00    -0.313 N 
HETATM   20  C4  UNL     1      15.057  53.043  14.605  1.00  0.00     0.150 C 
ATOM     21  H8  UNL     1      16.039  53.032  12.863  1.00  0.00     0.175 HD
BRANCH  20  22
HETATM   22  C5  UNL     1      15.047  52.839  16.020  1.00  0.00     0.230 C 
HETATM   23  O2  UNL     1      15.161  51.657  16.472  1.00  0.00    -0.643 OA
HETATM   24  O3  UNL     1      14.921  53.834  16.948  1.00  0.00    -0.643 OA
ENDBRANCH  20  22
BRANCH  20  25
HETATM   25  C6  UNL     1      13.852  53.474  13.890  1.00  0.00     0.109 A 
HETATM   26  C7  UNL     1      13.629  53.567  12.540  1.00  0.00     0.041 A 
HETATM   27  C8  UNL     1      12.331  54.025  12.362  1.00  0.00     0.027 A 
HETATM   28  C9  UNL     1      11.806  54.195  13.616  1.00  0.00     0.142 A 
HETATM   29  O4  UNL     1      12.724  53.863  14.470  1.00  0.00    -0.320 OA
ENDBRANCH  20  25
ENDBRANCH  18  19
ENDBRANCH  17  18
ENDBRANCH   4  17
TORSDOF 8
ENDMDL
MODEL 4
REMARK VINA RESULT: -8.107525558      4.391      5.967
REMARK  8 active torsions:
REMARK  status: ('A' for Active; 'I' for Inactive)
REMARK    1  A    between atoms: C1_4  and  N2_5 
REMARK    2  A    between atoms: C1_4  and  S1_17 
REMARK    3  A    between atoms: N2_5  and  N3_7 
REMARK    4  A    between atoms: C2_9  and  N4_10 
REMARK    5  A    between atoms: S1_17  and  S2_18 
REMARK    6  A    between atoms: S2_18  and  N8_19 
REMARK    7  A    between atoms: C4_21  and  C5_22 
REMARK    8  A    between atoms: C4_21  and  C6_25 
ROOT
HETATM    1  N1  UNL     1      17.396  49.135  15.853  1.00  0.00    -0.378 N 
ATOM      2  H11 UNL     1      16.421  48.849  15.760  1.00  0.00     0.158 HD
ATOM      3  H12 UNL     1      18.066  48.767  15.177  1.00  0.00     0.158 HD
HETATM    4  C1  UNL     1      17.794  49.923  16.775  1.00  0.00     0.165 C 
ENDROOT
BRANCH   4   5
HETATM    5  N2  UNL     1      19.173  50.327  16.907  1.00  0.00    -0.279 N 
ATOM      6  H2  UNL     1      19.648  50.684  16.078  1.00  0.00     0.189 HD
BRANCH   5   7
HETATM    7  N3  UNL     1      19.870  50.261  18.060  1.00  0.00    -0.292 N 
HETATM    8  C2  UNL     1      20.969  49.778  18.404  1.00  0.00     0.225 C 
ATOM      9  H3  UNL     1      19.384  50.713  18.835  1.00  0.00     0.187 HD
BRANCH   8  10
HETATM   10  N4  UNL     1      21.916  49.089  17.635  1.00  0.00    -0.184 N 
HETATM   11  N5  UNL     1      23.333  49.308  17.688  1.00  0.00     0.004 NA
HETATM   12  N6  UNL     1      23.869  48.022  17.638  1.00  0.00    -0.004 NA
HETATM   13  N7  UNL     1      23.031  47.336  16.773  1.00  0.00    -0.236 N 
HETATM   14  C3  UNL     1      21.791  48.059  16.678  1.00  0.00     0.357 C 
ATOM     15  H7  UNL     1      23.255  46.468  16.286  1.00  0.00     0.188 HD
HETATM   16  O1  UNL     1      20.838  47.806  15.907  1.00  0.00    -0.244 OA
ENDBRANCH   8  10
ENDBRANCH   5   7
ENDBRANCH   4   5
BRANCH   4  17
HETATM   17  S1  UNL     1      16.630  50.561  17.950  1.00  0.00     0.002 SA
BRANCH  17  18
HETATM   18  S2  UNL     1      16.711  49.526  19.796  1.00  0.00     0.028 SA
BRANCH  18  19
HETATM   19  N8  UNL     1      16.340  50.565  21.156  1.00  0.00    -0.313 N 
HETATM   20  C4  UNL     1      15.168  51.082  21.288  1.00  0.00     0.150 C 
ATOM     21  H8  UNL     1      17.060  50.762  21.851  1.00  0.00     0.175 HD
BRANCH  20  22
HETATM   22  C5  UNL     1      14.098  50.861  20.365  1.00  0.00     0.230 C 
HETATM   23  O2  UNL     1      13.621  51.851  19.727  1.00  0.00    -0.643 OA
HETATM   24  O3  UNL     1      13.533  49.644  20.108  1.00  0.00    -0.643 OA
ENDBRANCH  20  22
BRANCH  20  25
HETATM   25  C6  UNL     1      14.990  51.931  22.469  1.00  0.00     0.109 A 
HETATM   26  C7  UNL     1      15.596  53.121  22.783  1.00  0.00     0.041 A 
HETATM   27  C8  UNL     1      15.094  53.534  24.009  1.00  0.00     0.027 A 
HETATM   28  C9  UNL     1      14.196  52.577  24.401  1.00  0.00     0.142 A 
HETATM   29  O4  UNL     1      14.169  51.667  23.477  1.00  0.00    -0.320 OA
ENDBRANCH  20  25
ENDBRANCH  18  19
ENDBRANCH  17  18
ENDBRANCH   4  17
TORSDOF 8
ENDMDL
MODEL 5
REMARK VINA RESULT: -8.098656252      5.879      7.506
REMARK  8 active torsions:
REMARK  status: ('A' for Active; 'I' for Inactive)
REMARK    1  A    between atoms: C1_4  and  N2_5 
REMARK    2  A    between atoms: C1_4  and  S1_17 
REMARK    3  A    between atoms: N2_5  and  N3_7 
REMARK    4  A    between atoms: C2_9  and  N4_10 
REMARK    5  A    between atoms: S1_17  and  S2_18 
REMARK    6  A    between atoms: S2_18  and  N8_19 
REMARK    7  A    between atoms: C4_21  and  C5_22 
REMARK    8  A    between atoms: C4_21  and  C6_25 
ROOT
HETATM    1  N1  UNL     1      14.239  51.470  20.230  1.00  0.00    -0.378 N 
ATOM      2  H11 UNL     1      13.902  50.823  19.517  1.00  0.00     0.158 HD
ATOM      3  H12 UNL     1      13.711  52.329  20.382  1.00  0.00     0.158 HD
HETATM    4  C1  UNL     1      15.285  51.239  20.924  1.00  0.00     0.165 C 
ENDROOT
BRANCH   4   5
HETATM    5  N2  UNL     1      15.763  52.153  21.933  1.00  0.00    -0.279 N 
ATOM      6  H2  UNL     1      16.713  52.028  22.281  1.00  0.00     0.189 HD
BRANCH   5   7
HETATM    7  N3  UNL     1      15.028  53.163  22.444  1.00  0.00    -0.292 N 
HETATM    8  C2  UNL     1      14.533  53.422  23.561  1.00  0.00     0.225 C 
ATOM      9  H3  UNL     1      14.829  53.886  21.753  1.00  0.00     0.187 HD
BRANCH   8  10
HETATM   10  N4  UNL     1      14.588  52.681  24.749  1.00  0.00    -0.184 N 
HETATM   11  N5  UNL     1      15.649  52.753  25.713  1.00  0.00     0.004 NA
HETATM   12  N6  UNL     1      14.986  52.737  26.938  1.00  0.00    -0.004 NA
HETATM   13  N7  UNL     1      13.922  51.871  26.739  1.00  0.00    -0.236 N 
HETATM   14  C3  UNL     1      13.704  51.742  25.323  1.00  0.00     0.357 C 
ATOM     15  H7  UNL     1      13.385  51.405  27.470  1.00  0.00     0.188 HD
HETATM   16  O1  UNL     1      12.905  50.961  24.760  1.00  0.00    -0.244 OA
ENDBRANCH   8  10
ENDBRANCH   5   7
ENDBRANCH   4   5
BRANCH   4  17
HETATM   17  S1  UNL     1      16.204  49.746  20.660  1.00  0.00     0.002 SA
BRANCH  17  18
HETATM   18  S2  UNL     1      17.243  49.764  18.814  1.00  0.00     0.028 SA
BRANCH  18  19
HETATM   19  N8  UNL     1      16.511  50.850  17.652  1.00  0.00    -0.313 N 
HETATM   20  C4  UNL     1      16.880  50.839  16.418  1.00  0.00     0.150 C 
ATOM     21  H8  UNL     1      15.784  51.498  17.955  1.00  0.00     0.175 HD
BRANCH  20  22
HETATM   22  C5  UNL     1      17.889  49.966  15.903  1.00  0.00     0.230 C 
HETATM   23  O2  UNL     1      17.555  48.806  15.507  1.00  0.00    -0.643 OA
HETATM   24  O3  UNL     1      19.213  50.286  15.798  1.00  0.00    -0.643 OA
ENDBRANCH  20  22
BRANCH  20  25
HETATM   25  C6  UNL     1      16.187  51.797  15.551  1.00  0.00     0.109 A 
HETATM   26  C7  UNL     1      16.627  52.405  14.403  1.00  0.00     0.041 A 
HETATM   27  C8  UNL     1      15.606  53.227  13.949  1.00  0.00     0.027 A 
HETATM   28  C9  UNL     1      14.575  53.091  14.841  1.00  0.00     0.142 A 
HETATM   29  O4  UNL     1      14.958  52.252  15.753  1.00  0.00    -0.320 OA
ENDBRANCH  20  25
ENDBRANCH  18  19
ENDBRANCH  17  18
ENDBRANCH   4  17
TORSDOF 8
ENDMDL
