MODEL 1
REMARK VINA RESULT: -8.952883126      0.000      0.000
REMARK  10 active torsions:
REMARK  status: ('A' for Active; 'I' for Inactive)
REMARK    1  A    between atoms: N1_1  and  C1_4 
REMARK    2  A    between atoms: C3_10  and  N4_11 
REMARK    3  A    between atoms: N4_11  and  N5_13 
REMARK    4  A    between atoms: N6_16  and  C4_17 
REMARK    5  A    between atoms: C4_17  and  C5_18 
REMARK    6  A    between atoms: C5_18  and  N7_19 
REMARK    7  A    between atoms: C5_18  and  N8_23 
REMARK    8  A    between atoms: C8_29  and  N9_30 
REMARK    9  A    between atoms: N9_30  and  C9_32 
REMARK   10  A    between atoms: C9_32  and  C10_33 
ROOT
HETATM    1  C1  UNL     1      16.890  50.323  20.005  1.00  0.00     0.127 A 
HETATM    2  N2  UNL     1      17.679  49.811  19.032  1.00  0.00    -0.325 N 
ATOM      3  H2  UNL     1      18.463  49.199  19.262  1.00  0.00     0.169 HD
HETATM    4  C2  UNL     1      17.401  50.131  17.741  1.00  0.00     0.150 A 
HETATM    5  N3  UNL     1      17.988  49.780  16.568  1.00  0.00    -0.173 N 
ATOM      6  H3  UNL     1      18.801  49.172  16.475  1.00  0.00     0.186 HD
HETATM    7  C3  UNL     1      17.333  50.357  15.553  1.00  0.00     0.701 A 
HETATM    8  N6  UNL     1      16.327  51.074  16.100  1.00  0.00    -0.174 N 
HETATM    9  C6  UNL     1      16.336  50.958  17.448  1.00  0.00     0.098 A 
HETATM   10  C7  UNL     1      15.529  51.480  18.450  1.00  0.00     0.067 A 
HETATM   11  C8  UNL     1      15.834  51.139  19.755  1.00  0.00     0.074 A 
ENDROOT
BRANCH  11  12
HETATM   12  N9  UNL     1      14.994  51.687  20.756  1.00  0.00    -0.381 N 
ATOM     13  H9  UNL     1      14.253  52.328  20.473  1.00  0.00     0.160 HD
BRANCH  12  14
HETATM   14  C9  UNL     1      15.139  51.378  22.157  1.00  0.00     0.178 C 
BRANCH  14  15
HETATM   15  C10 UNL     1      14.930  52.592  22.987  1.00  0.00     0.044 A 
HETATM   16  C11 UNL     1      14.461  52.578  24.283  1.00  0.00     0.124 A 
HETATM   17  N10 UNL     1      14.381  53.832  24.764  1.00  0.00    -0.317 N 
HETATM   18  C12 UNL     1      13.999  54.375  25.933  1.00  0.00     0.098 A 
HETATM   19  C16 UNL     1      14.805  54.631  23.752  1.00  0.00     0.111 A 
HETATM   20  C13 UNL     1      14.047  55.743  26.081  1.00  0.00     0.018 A 
HETATM   21  C14 UNL     1      14.479  56.574  25.057  1.00  0.00     0.005 A 
HETATM   22  C15 UNL     1      14.864  55.993  23.869  1.00  0.00     0.049 A 
HETATM   23  N11 UNL     1      15.134  53.869  22.683  1.00  0.00    -0.343 N 
ATOM     24  H11 UNL     1      15.483  54.218  21.790  1.00  0.00     0.167 HD
ENDBRANCH  14  15
ENDBRANCH  12  14
ENDBRANCH  11  12
BRANCH   1  25
HETATM   25  N1  UNL     1      17.202  49.986  21.202  1.00  0.00    -0.384 N 
ATOM     26  H12 UNL     1      17.900  49.266  21.385  1.00  0.00     0.157 HD
ATOM     27  H11 UNL     1      16.707  50.485  21.942  1.00  0.00     0.157 HD
ENDBRANCH   1  25
BRANCH   8  28
HETATM   28  C4  UNL     1      15.342  51.862  15.370  1.00  0.00     0.210 C 
BRANCH  28  29
HETATM   29  C5  UNL     1      15.734  53.311  15.238  1.00  0.00     0.396 C 
BRANCH  29  30
HETATM   30  N7  UNL     1      14.902  54.144  16.036  1.00  0.00    -0.049 N 
ATOM     31  H73 UNL     1      13.931  54.112  15.725  1.00  0.00     0.276 HD
ATOM     32  H72 UNL     1      14.779  53.763  16.974  1.00  0.00     0.276 HD
ATOM     33  H71 UNL     1      15.255  55.101  16.063  1.00  0.00     0.276 HD
ENDBRANCH  29  30
BRANCH  29  34
HETATM   34  N8  UNL     1      15.597  53.726  13.848  1.00  0.00    -0.049 N 
ATOM     35  H83 UNL     1      16.467  54.099  13.469  1.00  0.00     0.276 HD
ATOM     36  H82 UNL     1      15.491  52.932  13.217  1.00  0.00     0.276 HD
ATOM     37  H81 UNL     1      14.826  54.389  13.766  1.00  0.00     0.276 HD
ENDBRANCH  29  34
ENDBRANCH  28  29
ENDBRANCH   8  28
BRANCH   7  38
HETATM   38  N4  UNL     1      17.581  50.271  14.274  1.00  0.00    -0.138 N 
ATOM     39  H4  UNL     1      17.179  49.520  13.714  1.00  0.00     0.205 HD
BRANCH  38  40
HETATM   40  N5  UNL     1      18.406  51.226  13.696  1.00  0.00    -0.331 N 
ATOM     41  H52 UNL     1      19.361  51.343  14.034  1.00  0.00     0.177 HD
ATOM     42  H51 UNL     1      18.031  51.795  12.938  1.00  0.00     0.177 HD
ENDBRANCH  38  40
ENDBRANCH   7  38
TORSDOF 10
ENDMDL
MODEL 2
REMARK VINA RESULT: -8.348052215      0.519      1.102
REMARK  10 active torsions:
REMARK  status: ('A' for Active; 'I' for Inactive)
REMARK    1  A    between atoms: N1_1  and  C1_4 
REMARK    2  A    between atoms: C3_10  and  N4_11 
REMARK    3  A    between atoms: N4_11  and  N5_13 
REMARK    4  A    between atoms: N6_16  and  C4_17 
REMARK    5  A    between atoms: C4_17  and  C5_18 
REMARK    6  A    between atoms: C5_18  and  N7_19 
REMARK    7  A    between atoms: C5_18  and  N8_23 
REMARK    8  A    between atoms: C8_29  and  N9_30 
REMARK    9  A    between atoms: N9_30  and  C9_32 
REMARK   10  A    between atoms: C9_32  and  C10_33 
ROOT
HETATM    1  C1  UNL     1      16.883  50.349  19.952  1.00  0.00     0.127 A 
HETATM    2  N2  UNL     1      17.657  49.838  18.967  1.00  0.00    -0.325 N 
ATOM      3  H2  UNL     1      18.438  49.219  19.183  1.00  0.00     0.169 HD
HETATM    4  C2  UNL     1      17.367  50.169  17.681  1.00  0.00     0.150 A 
HETATM    5  N3  UNL     1      17.938  49.822  16.499  1.00  0.00    -0.173 N 
ATOM      6  H3  UNL     1      18.746  49.208  16.393  1.00  0.00     0.186 HD
HETATM    7  C3  UNL     1      17.277  50.411  15.495  1.00  0.00     0.701 A 
HETATM    8  N6  UNL     1      16.283  51.132  16.058  1.00  0.00    -0.174 N 
HETATM    9  C6  UNL     1      16.306  51.006  17.405  1.00  0.00     0.098 A 
HETATM   10  C7  UNL     1      15.514  51.529  18.420  1.00  0.00     0.067 A 
HETATM   11  C8  UNL     1      15.830  51.176  19.719  1.00  0.00     0.074 A 
ENDROOT
BRANCH  11  12
HETATM   12  N9  UNL     1      15.006  51.724  20.733  1.00  0.00    -0.381 N 
ATOM     13  H9  UNL     1      14.361  52.474  20.485  1.00  0.00     0.160 HD
BRANCH  12  14
HETATM   14  C9  UNL     1      15.036  51.268  22.100  1.00  0.00     0.178 C 
BRANCH  14  15
HETATM   15  C10 UNL     1      14.814  52.399  23.037  1.00  0.00     0.044 A 
HETATM   16  C11 UNL     1      15.140  53.710  22.766  1.00  0.00     0.124 A 
HETATM   17  N10 UNL     1      14.816  54.496  23.810  1.00  0.00    -0.317 N 
HETATM   18  C12 UNL     1      14.915  55.811  24.070  1.00  0.00     0.098 A 
HETATM   19  C16 UNL     1      14.285  53.660  24.736  1.00  0.00     0.111 A 
HETATM   20  C13 UNL     1      14.470  56.287  25.283  1.00  0.00     0.018 A 
HETATM   21  C14 UNL     1      13.923  55.445  26.241  1.00  0.00     0.005 A 
HETATM   22  C15 UNL     1      13.834  54.102  25.950  1.00  0.00     0.049 A 
HETATM   23  N11 UNL     1      14.288  52.393  24.258  1.00  0.00    -0.343 N 
ATOM     24  H11 UNL     1      13.944  51.570  24.752  1.00  0.00     0.167 HD
ENDBRANCH  14  15
ENDBRANCH  12  14
ENDBRANCH  11  12
BRANCH   1  25
HETATM   25  N1  UNL     1      17.205  50.002  21.143  1.00  0.00    -0.384 N 
ATOM     26  H12 UNL     1      16.593  50.196  21.935  1.00  0.00     0.157 HD
ATOM     27  H11 UNL     1      18.102  49.525  21.233  1.00  0.00     0.157 HD
ENDBRANCH   1  25
BRANCH   8  28
HETATM   28  C4  UNL     1      15.296  51.933  15.344  1.00  0.00     0.210 C 
BRANCH  28  29
HETATM   29  C5  UNL     1      15.683  53.386  15.246  1.00  0.00     0.396 C 
BRANCH  29  30
HETATM   30  N7  UNL     1      14.899  54.188  16.122  1.00  0.00    -0.049 N 
ATOM     31  H73 UNL     1      14.104  53.669  16.494  1.00  0.00     0.276 HD
ATOM     32  H72 UNL     1      15.388  54.373  16.998  1.00  0.00     0.276 HD
ATOM     33  H71 UNL     1      14.604  55.052  15.667  1.00  0.00     0.276 HD
ENDBRANCH  29  30
BRANCH  29  34
HETATM   34  N8  UNL     1      15.467  53.855  13.884  1.00  0.00    -0.049 N 
ATOM     35  H83 UNL     1      15.756  53.166  13.189  1.00  0.00     0.276 HD
ATOM     36  H82 UNL     1      14.477  53.899  13.643  1.00  0.00     0.276 HD
ATOM     37  H81 UNL     1      15.935  54.751  13.754  1.00  0.00     0.276 HD
ENDBRANCH  29  34
ENDBRANCH  28  29
ENDBRANCH   8  28
BRANCH   7  38
HETATM   38  N4  UNL     1      17.510  50.331  14.213  1.00  0.00    -0.138 N 
ATOM     39  H4  UNL     1      17.086  49.594  13.650  1.00  0.00     0.205 HD
BRANCH  38  40
HETATM   40  N5  UNL     1      18.349  51.275  13.636  1.00  0.00    -0.331 N 
ATOM     41  H52 UNL     1      18.167  51.603  12.688  1.00  0.00     0.177 HD
ATOM     42  H51 UNL     1      19.137  51.621  14.182  1.00  0.00     0.177 HD
ENDBRANCH  38  40
ENDBRANCH   7  38
TORSDOF 10
ENDMDL
MODEL 3
REMARK VINA RESULT: -8.339415833      1.441      1.649
REMARK  10 active torsions:
REMARK  status: ('A' for Active; 'I' for Inactive)
REMARK    1  A    between atoms: N1_1  and  C1_4 
REMARK    2  A    between atoms: C3_10  and  N4_11 
REMARK    3  A    between atoms: N4_11  and  N5_13 
REMARK    4  A    between atoms: N6_16  and  C4_17 
REMARK    5  A    between atoms: C4_17  and  C5_18 
REMARK    6  A    between atoms: C5_18  and  N7_19 
REMARK    7  A    between atoms: C5_18  and  N8_23 
REMARK    8  A    between atoms: C8_29  and  N9_30 
REMARK    9  A    between atoms: N9_30  and  C9_32 
REMARK   10  A    between atoms: C9_32  and  C10_33 
ROOT
HETATM    1  C1  UNL     1      16.935  50.153  20.172  1.00  0.00     0.127 A 
HETATM    2  N2  UNL     1      17.714  49.703  19.161  1.00  0.00    -0.325 N 
ATOM      3  H2  UNL     1      18.513  49.096  19.346  1.00  0.00     0.169 HD
HETATM    4  C2  UNL     1      17.406  50.080  17.892  1.00  0.00     0.150 A 
HETATM    5  N3  UNL     1      17.977  49.797  16.693  1.00  0.00    -0.173 N 
ATOM      6  H3  UNL     1      18.799  49.209  16.556  1.00  0.00     0.186 HD
HETATM    7  C3  UNL     1      17.293  50.409  15.719  1.00  0.00     0.701 A 
HETATM    8  N6  UNL     1      16.285  51.081  16.317  1.00  0.00    -0.174 N 
HETATM    9  C6  UNL     1      16.322  50.900  17.658  1.00  0.00     0.098 A 
HETATM   10  C7  UNL     1      15.524  51.359  18.699  1.00  0.00     0.067 A 
HETATM   11  C8  UNL     1      15.859  50.961  19.980  1.00  0.00     0.074 A 
ENDROOT
BRANCH  11  12
HETATM   12  N9  UNL     1      15.029  51.445  21.021  1.00  0.00    -0.381 N 
ATOM     13  H9  UNL     1      14.329  50.817  21.417  1.00  0.00     0.160 HD
BRANCH  12  14
HETATM   14  C9  UNL     1      15.129  52.783  21.548  1.00  0.00     0.178 C 
BRANCH  14  15
HETATM   15  C10 UNL     1      15.253  52.758  23.028  1.00  0.00     0.044 A 
HETATM   16  C11 UNL     1      14.210  52.512  23.893  1.00  0.00     0.124 A 
HETATM   17  N10 UNL     1      14.640  52.558  25.168  1.00  0.00    -0.317 N 
HETATM   18  C12 UNL     1      14.059  52.397  26.369  1.00  0.00     0.098 A 
HETATM   19  C16 UNL     1      15.965  52.836  25.088  1.00  0.00     0.111 A 
HETATM   20  C13 UNL     1      14.828  52.518  27.505  1.00  0.00     0.018 A 
HETATM   21  C14 UNL     1      16.185  52.801  27.440  1.00  0.00     0.005 A 
HETATM   22  C15 UNL     1      16.756  52.962  26.198  1.00  0.00     0.049 A 
HETATM   23  N11 UNL     1      16.325  52.955  23.788  1.00  0.00    -0.343 N 
ATOM     24  H11 UNL     1      17.264  53.161  23.448  1.00  0.00     0.167 HD
ENDBRANCH  14  15
ENDBRANCH  12  14
ENDBRANCH  11  12
BRANCH   1  25
HETATM   25  N1  UNL     1      17.275  49.765  21.345  1.00  0.00    -0.384 N 
ATOM     26  H12 UNL     1      17.112  48.807  21.654  1.00  0.00     0.157 HD
ATOM     27  H11 UNL     1      17.712  50.475  21.933  1.00  0.00     0.157 HD
ENDBRANCH   1  25
BRANCH   8  28
HETATM   28  C4  UNL     1      15.273  51.884  15.644  1.00  0.00     0.210 C 
BRANCH  28  29
HETATM   29  C5  UNL     1      15.705  53.313  15.434  1.00  0.00     0.396 C 
BRANCH  29  30
HETATM   30  N7  UNL     1      14.831  54.219  16.096  1.00  0.00    -0.049 N 
ATOM     31  H73 UNL     1      15.159  55.181  16.019  1.00  0.00     0.276 HD
ATOM     32  H72 UNL     1      13.945  54.316  15.598  1.00  0.00     0.276 HD
ATOM     33  H71 UNL     1      14.687  53.948  17.069  1.00  0.00     0.276 HD
ENDBRANCH  29  30
BRANCH  29  34
HETATM   34  N8  UNL     1      15.688  53.620  14.010  1.00  0.00    -0.049 N 
ATOM     35  H83 UNL     1      15.077  54.407  13.793  1.00  0.00     0.276 HD
ATOM     36  H82 UNL     1      16.568  54.026  13.692  1.00  0.00     0.276 HD
ATOM     37  H81 UNL     1      15.438  52.782  13.485  1.00  0.00     0.276 HD
ENDBRANCH  29  34
ENDBRANCH  28  29
ENDBRANCH   8  28
BRANCH   7  38
HETATM   38  N4  UNL     1      17.519  50.389  14.433  1.00  0.00    -0.138 N 
ATOM     39  H4  UNL     1      16.978  49.782  13.818  1.00  0.00     0.205 HD
BRANCH  38  40
HETATM   40  N5  UNL     1      18.512  51.215  13.925  1.00  0.00    -0.331 N 
ATOM     41  H52 UNL     1      19.249  51.560  14.539  1.00  0.00     0.177 HD
ATOM     42  H51 UNL     1      18.479  51.459  12.935  1.00  0.00     0.177 HD
ENDBRANCH  38  40
ENDBRANCH   7  38
TORSDOF 10
ENDMDL
MODEL 4
REMARK VINA RESULT: -8.218748979      2.639      9.279
REMARK  10 active torsions:
REMARK  status: ('A' for Active; 'I' for Inactive)
REMARK    1  A    between atoms: N1_1  and  C1_4 
REMARK    2  A    between atoms: C3_10  and  N4_11 
REMARK    3  A    between atoms: N4_11  and  N5_13 
REMARK    4  A    between atoms: N6_16  and  C4_17 
REMARK    5  A    between atoms: C4_17  and  C5_18 
REMARK    6  A    between atoms: C5_18  and  N7_19 
REMARK    7  A    between atoms: C5_18  and  N8_23 
REMARK    8  A    between atoms: C8_29  and  N9_30 
REMARK    9  A    between atoms: N9_30  and  C9_32 
REMARK   10  A    between atoms: C9_32  and  C10_33 
ROOT
HETATM    1  C1  UNL     1      13.914  52.832  25.062  1.00  0.00     0.127 A 
HETATM    2  N2  UNL     1      13.441  53.583  26.084  1.00  0.00    -0.325 N 
ATOM      3  H2  UNL     1      12.777  53.195  26.755  1.00  0.00     0.169 HD
HETATM    4  C2  UNL     1      13.873  54.867  26.195  1.00  0.00     0.150 A 
HETATM    5  N3  UNL     1      13.596  55.848  27.092  1.00  0.00    -0.173 N 
ATOM      6  H3  UNL     1      12.961  55.759  27.885  1.00  0.00     0.186 HD
HETATM    7  C3  UNL     1      14.284  56.950  26.773  1.00  0.00     0.701 A 
HETATM    8  N6  UNL     1      14.999  56.652  25.666  1.00  0.00    -0.174 N 
HETATM    9  C6  UNL     1      14.772  55.375  25.280  1.00  0.00     0.098 A 
HETATM   10  C7  UNL     1      15.255  54.600  24.234  1.00  0.00     0.067 A 
HETATM   11  C8  UNL     1      14.800  53.298  24.143  1.00  0.00     0.074 A 
ENDROOT
BRANCH  11  12
HETATM   12  N9  UNL     1      15.309  52.532  23.066  1.00  0.00    -0.381 N 
ATOM     13  H9  UNL     1      16.305  52.590  22.854  1.00  0.00     0.160 HD
BRANCH  12  14
HETATM   14  C9  UNL     1      14.483  51.672  22.255  1.00  0.00     0.178 C 
BRANCH  14  15
HETATM   15  C10 UNL     1      15.164  51.340  20.978  1.00  0.00     0.044 A 
HETATM   16  C11 UNL     1      16.233  50.477  20.866  1.00  0.00     0.124 A 
HETATM   17  N10 UNL     1      16.626  50.384  19.582  1.00  0.00    -0.317 N 
HETATM   18  C12 UNL     1      17.588  49.707  18.934  1.00  0.00     0.098 A 
HETATM   19  C16 UNL     1      15.790  51.202  18.893  1.00  0.00     0.111 A 
HETATM   20  C13 UNL     1      17.707  49.856  17.570  1.00  0.00     0.018 A 
HETATM   21  C14 UNL     1      16.861  50.687  16.850  1.00  0.00     0.005 A 
HETATM   22  C15 UNL     1      15.884  51.371  17.538  1.00  0.00     0.049 A 
HETATM   23  N11 UNL     1      14.910  51.774  19.748  1.00  0.00    -0.343 N 
ATOM     24  H11 UNL     1      14.173  52.430  19.490  1.00  0.00     0.167 HD
ENDBRANCH  14  15
ENDBRANCH  12  14
ENDBRANCH  11  12
BRANCH   1  25
HETATM   25  N1  UNL     1      13.471  51.631  25.009  1.00  0.00    -0.384 N 
ATOM     26  H12 UNL     1      14.096  50.831  25.098  1.00  0.00     0.157 HD
ATOM     27  H11 UNL     1      12.463  51.540  24.875  1.00  0.00     0.157 HD
ENDBRANCH   1  25
BRANCH   8  28
HETATM   28  C4  UNL     1      15.909  57.551  24.966  1.00  0.00     0.210 C 
BRANCH  28  29
HETATM   29  C5  UNL     1      15.192  58.522  24.064  1.00  0.00     0.396 C 
BRANCH  29  30
HETATM   30  N7  UNL     1      15.253  58.104  22.706  1.00  0.00    -0.049 N 
ATOM     31  H73 UNL     1      15.767  58.771  22.130  1.00  0.00     0.276 HD
ATOM     32  H72 UNL     1      15.864  57.294  22.590  1.00  0.00     0.276 HD
ATOM     33  H71 UNL     1      14.321  57.927  22.331  1.00  0.00     0.276 HD
ENDBRANCH  29  30
BRANCH  29  34
HETATM   34  N8  UNL     1      15.820  59.833  24.166  1.00  0.00    -0.049 N 
ATOM     35  H83 UNL     1      16.574  59.953  23.490  1.00  0.00     0.276 HD
ATOM     36  H82 UNL     1      15.208  60.580  23.837  1.00  0.00     0.276 HD
ATOM     37  H81 UNL     1      16.134  59.985  25.124  1.00  0.00     0.276 HD
ENDBRANCH  29  34
ENDBRANCH  28  29
ENDBRANCH   8  28
BRANCH   7  38
HETATM   38  N4  UNL     1      14.295  58.104  27.382  1.00  0.00    -0.138 N 
ATOM     39  H4  UNL     1      13.456  58.683  27.420  1.00  0.00     0.205 HD
BRANCH  38  40
HETATM   40  N5  UNL     1      15.477  58.525  27.978  1.00  0.00    -0.331 N 
ATOM     41  H52 UNL     1      16.357  58.073  27.734  1.00  0.00     0.177 HD
ATOM     42  H51 UNL     1      15.434  59.286  28.655  1.00  0.00     0.177 HD
ENDBRANCH  38  40
ENDBRANCH   7  38
TORSDOF 10
ENDMDL
MODEL 5
REMARK VINA RESULT: -7.983028192      2.504      9.300
REMARK  10 active torsions:
REMARK  status: ('A' for Active; 'I' for Inactive)
REMARK    1  A    between atoms: N1_1  and  C1_4 
REMARK    2  A    between atoms: C3_10  and  N4_11 
REMARK    3  A    between atoms: N4_11  and  N5_13 
REMARK    4  A    between atoms: N6_16  and  C4_17 
REMARK    5  A    between atoms: C4_17  and  C5_18 
REMARK    6  A    between atoms: C5_18  and  N7_19 
REMARK    7  A    between atoms: C5_18  and  N8_23 
REMARK    8  A    between atoms: C8_29  and  N9_30 
REMARK    9  A    between atoms: N9_30  and  C9_32 
REMARK   10  A    between atoms: C9_32  and  C10_33 
ROOT
HETATM    1  C1  UNL     1      13.938  52.784  24.995  1.00  0.00     0.127 A 
HETATM    2  N2  UNL     1      13.441  53.548  25.995  1.00  0.00    -0.325 N 
ATOM      3  H2  UNL     1      12.763  53.169  26.656  1.00  0.00     0.169 HD
HETATM    4  C2  UNL     1      13.868  54.835  26.098  1.00  0.00     0.150 A 
HETATM    5  N3  UNL     1      13.569  55.828  26.974  1.00  0.00    -0.173 N 
ATOM      6  H3  UNL     1      12.917  55.748  27.754  1.00  0.00     0.186 HD
HETATM    7  C3  UNL     1      14.263  56.927  26.655  1.00  0.00     0.701 A 
HETATM    8  N6  UNL     1      15.003  56.615  25.569  1.00  0.00    -0.174 N 
HETATM    9  C6  UNL     1      14.786  55.332  25.196  1.00  0.00     0.098 A 
HETATM   10  C7  UNL     1      15.294  54.544  24.171  1.00  0.00     0.067 A 
HETATM   11  C8  UNL     1      14.844  53.239  24.089  1.00  0.00     0.074 A 
ENDROOT
BRANCH  11  12
HETATM   12  N9  UNL     1      15.378  52.458  23.034  1.00  0.00    -0.381 N 
ATOM     13  H9  UNL     1      16.390  52.447  22.901  1.00  0.00     0.160 HD
BRANCH  12  14
HETATM   14  C9  UNL     1      14.558  51.680  22.141  1.00  0.00     0.178 C 
BRANCH  14  15
HETATM   15  C10 UNL     1      15.335  51.256  20.948  1.00  0.00     0.044 A 
HETATM   16  C11 UNL     1      15.025  51.606  19.652  1.00  0.00     0.124 A 
HETATM   17  N10 UNL     1      15.915  51.069  18.798  1.00  0.00    -0.317 N 
HETATM   18  C12 UNL     1      16.078  51.090  17.463  1.00  0.00     0.098 A 
HETATM   19  C16 UNL     1      16.785  50.378  19.576  1.00  0.00     0.111 A 
HETATM   20  C13 UNL     1      17.135  50.404  16.909  1.00  0.00     0.018 A 
HETATM   21  C14 UNL     1      18.035  49.693  17.691  1.00  0.00     0.005 A 
HETATM   22  C15 UNL     1      17.845  49.687  19.054  1.00  0.00     0.049 A 
HETATM   23  N11 UNL     1      16.425  50.499  20.875  1.00  0.00    -0.343 N 
ATOM     24  H11 UNL     1      16.909  50.078  21.668  1.00  0.00     0.167 HD
ENDBRANCH  14  15
ENDBRANCH  12  14
ENDBRANCH  11  12
BRANCH   1  25
HETATM   25  N1  UNL     1      13.499  51.581  24.949  1.00  0.00    -0.384 N 
ATOM     26  H12 UNL     1      14.076  50.819  24.594  1.00  0.00     0.157 HD
ATOM     27  H11 UNL     1      12.546  51.449  25.290  1.00  0.00     0.157 HD
ENDBRANCH   1  25
BRANCH   8  28
HETATM   28  C4  UNL     1      15.927  57.506  24.877  1.00  0.00     0.210 C 
BRANCH  28  29
HETATM   29  C5  UNL     1      15.223  58.530  24.025  1.00  0.00     0.396 C 
BRANCH  29  30
HETATM   30  N7  UNL     1      15.307  58.198  22.644  1.00  0.00    -0.049 N 
ATOM     31  H73 UNL     1      15.875  57.364  22.493  1.00  0.00     0.276 HD
ATOM     32  H72 UNL     1      14.418  57.848  22.288  1.00  0.00     0.276 HD
ATOM     33  H71 UNL     1      15.647  58.987  22.095  1.00  0.00     0.276 HD
ENDBRANCH  29  30
BRANCH  29  34
HETATM   34  N8  UNL     1      15.845  59.833  24.219  1.00  0.00    -0.049 N 
ATOM     35  H83 UNL     1      16.825  59.838  23.937  1.00  0.00     0.276 HD
ATOM     36  H82 UNL     1      15.499  60.528  23.559  1.00  0.00     0.276 HD
ATOM     37  H81 UNL     1      15.722  60.127  25.188  1.00  0.00     0.276 HD
ENDBRANCH  29  34
ENDBRANCH  28  29
ENDBRANCH   8  28
BRANCH   7  38
HETATM   38  N4  UNL     1      14.258  58.089  27.248  1.00  0.00    -0.138 N 
ATOM     39  H4  UNL     1      13.451  58.709  27.176  1.00  0.00     0.205 HD
BRANCH  38  40
HETATM   40  N5  UNL     1      15.378  58.462  27.978  1.00  0.00    -0.331 N 
ATOM     41  H52 UNL     1      16.303  58.408  27.553  1.00  0.00     0.177 HD
ATOM     42  H51 UNL     1      15.246  58.785  28.937  1.00  0.00     0.177 HD
ENDBRANCH  38  40
ENDBRANCH   7  38
TORSDOF 10
ENDMDL
