MODEL 1
REMARK VINA RESULT: -7.940615276      0.000      0.000
REMARK  8 active torsions:
REMARK  status: ('A' for Active; 'I' for Inactive)
REMARK    1  A    between atoms: N1_1  and  C1_4 
REMARK    2  A    between atoms: C4_14  and  S1_15 
REMARK    3  A    between atoms: S1_15  and  C5_16 
REMARK    4  A    between atoms: C5_16  and  C6_17 
REMARK    5  A    between atoms: C6_17  and  C7_18 
REMARK    6  A    between atoms: C7_18  and  N5_19 
REMARK    7  A    between atoms: N6_23  and  N7_24 
REMARK       I    between atoms: N7_24  and  C8_26 
REMARK    8  A    between atoms: C8_26  and  C9_28 
ROOT
HETATM    1  C1  UNL     1      15.221  51.801  20.795  1.00  0.00     0.679 A 
HETATM    2  N2  UNL     1      15.977  50.899  21.424  1.00  0.00    -0.175 N 
ATOM      3  H2  UNL     1      15.990  50.826  22.441  1.00  0.00     0.186 HD
HETATM    4  C2  UNL     1      16.713  50.098  20.655  1.00  0.00     0.145 A 
HETATM    5  N3  UNL     1      17.481  49.186  21.194  1.00  0.00    -0.383 N 
ATOM      6  H31 UNL     1      18.045  48.572  20.606  1.00  0.00     0.157 HD
ATOM      7  H32 UNL     1      17.490  49.119  22.212  1.00  0.00     0.157 HD
HETATM    8  C3  UNL     1      16.701  50.188  19.275  1.00  0.00     0.126 A 
HETATM    9  N4  UNL     1      17.361  49.518  18.322  1.00  0.00    -0.329 N 
ATOM     10  H4  UNL     1      18.024  48.760  18.485  1.00  0.00     0.168 HD
HETATM   11  C4  UNL     1      17.020  49.992  17.136  1.00  0.00     0.168 A 
HETATM   12  N6  UNL     1      16.099  51.012  17.302  1.00  0.00    -0.211 N 
HETATM   13  C12 UNL     1      15.914  51.124  18.638  1.00  0.00     0.175 A 
HETATM   14  N10 UNL     1      15.188  51.914  19.432  1.00  0.00    -0.172 N 
ATOM     15  H10 UNL     1      14.592  52.625  19.009  1.00  0.00     0.186 HD
ENDROOT
BRANCH  12  16
HETATM   16  N7  UNL     1      15.602  51.719  16.262  1.00  0.00    -0.254 N 
HETATM   17  C8  UNL     1      15.073  52.985  16.096  1.00  0.00     0.289 C 
HETATM   18  O1  UNL     1      14.885  53.872  16.942  1.00  0.00    -0.264 OA
ATOM     19  H7  UNL     1      15.624  51.191  15.389  1.00  0.00     0.191 HD
BRANCH  17  20
HETATM   20  C9  UNL     1      14.660  53.345  14.678  1.00  0.00     0.128 A 
HETATM   21  C10 UNL     1      13.449  53.055  14.109  1.00  0.00     0.092 A 
HETATM   22  C11 UNL     1      13.480  53.557  12.803  1.00  0.00     0.182 A 
HETATM   23  N8  UNL     1      12.430  53.476  11.853  1.00  0.00    -0.072 NA
HETATM   24  O2  UNL     1      14.665  54.107  12.654  1.00  0.00    -0.222 OA
HETATM   25  N9  UNL     1      15.374  53.986  13.760  1.00  0.00    -0.254 N 
ATOM     26  H9  UNL     1      16.325  54.331  13.890  1.00  0.00     0.195 HD
ENDBRANCH  17  20
ENDBRANCH  12  16
BRANCH  11  27
HETATM   27  S1  UNL     1      17.632  49.409  15.569  1.00  0.00    -0.092 SA
BRANCH  27  28
HETATM   28  C5  UNL     1      19.308  48.789  15.761  1.00  0.00     0.084 C 
BRANCH  28  29
HETATM   29  C6  UNL     1      20.221  49.822  16.399  1.00  0.00     0.038 C 
BRANCH  29  30
HETATM   30  C7  UNL     1      20.861  49.179  17.610  1.00  0.00     0.230 C 
BRANCH  30  31
HETATM   31  N5  UNL     1      20.730  50.083  18.731  1.00  0.00    -0.079 N 
ATOM     32  H53 UNL     1      20.396  51.005  18.454  1.00  0.00     0.274 HD
ATOM     33  H52 UNL     1      19.955  49.834  19.347  1.00  0.00     0.274 HD
ATOM     34  H51 UNL     1      21.623  50.120  19.222  1.00  0.00     0.274 HD
ENDBRANCH  30  31
ENDBRANCH  29  30
ENDBRANCH  28  29
ENDBRANCH  27  28
ENDBRANCH  11  27
BRANCH   1  35
HETATM   35  N1  UNL     1      14.469  52.626  21.459  1.00  0.00    -0.234 N 
ATOM     36  H12 UNL     1      13.477  52.392  21.511  1.00  0.00     0.174 HD
ATOM     37  H11 UNL     1      14.860  53.458  21.898  1.00  0.00     0.174 HD
ENDBRANCH   1  35
TORSDOF 8
ENDMDL
MODEL 2
REMARK VINA RESULT: -7.886364515      2.993      6.914
REMARK  8 active torsions:
REMARK  status: ('A' for Active; 'I' for Inactive)
REMARK    1  A    between atoms: N1_1  and  C1_4 
REMARK    2  A    between atoms: C4_14  and  S1_15 
REMARK    3  A    between atoms: S1_15  and  C5_16 
REMARK    4  A    between atoms: C5_16  and  C6_17 
REMARK    5  A    between atoms: C6_17  and  C7_18 
REMARK    6  A    between atoms: C7_18  and  N5_19 
REMARK    7  A    between atoms: N6_23  and  N7_24 
REMARK       I    between atoms: N7_24  and  C8_26 
REMARK    8  A    between atoms: C8_26  and  C9_28 
ROOT
HETATM    1  C1  UNL     1      15.364  53.157  14.373  1.00  0.00     0.679 A 
HETATM    2  N2  UNL     1      14.693  54.036  15.122  1.00  0.00    -0.175 N 
ATOM      3  H2  UNL     1      14.231  54.847  14.711  1.00  0.00     0.186 HD
HETATM    4  C2  UNL     1      14.658  53.798  16.431  1.00  0.00     0.145 A 
HETATM    5  N3  UNL     1      14.021  54.611  17.235  1.00  0.00    -0.383 N 
ATOM      6  H31 UNL     1      13.993  54.430  18.238  1.00  0.00     0.157 HD
ATOM      7  H32 UNL     1      13.562  55.421  16.818  1.00  0.00     0.157 HD
HETATM    8  C3  UNL     1      15.281  52.700  16.997  1.00  0.00     0.126 A 
HETATM    9  N4  UNL     1      15.394  52.281  18.264  1.00  0.00    -0.329 N 
ATOM     10  H4  UNL     1      14.989  52.745  19.077  1.00  0.00     0.168 HD
HETATM   11  C4  UNL     1      16.113  51.172  18.296  1.00  0.00     0.168 A 
HETATM   12  N6  UNL     1      16.491  50.838  17.008  1.00  0.00    -0.211 N 
HETATM   13  C12 UNL     1      15.968  51.800  16.212  1.00  0.00     0.175 A 
HETATM   14  N10 UNL     1      15.989  52.063  14.903  1.00  0.00    -0.172 N 
ATOM     15  H10 UNL     1      16.488  51.428  14.281  1.00  0.00     0.186 HD
ENDROOT
BRANCH  12  16
HETATM   16  N7  UNL     1      17.277  49.771  16.735  1.00  0.00    -0.254 N 
HETATM   17  C8  UNL     1      18.320  49.514  15.865  1.00  0.00     0.289 C 
HETATM   18  O1  UNL     1      18.838  50.261  15.021  1.00  0.00    -0.264 OA
ATOM     19  H7  UNL     1      17.044  48.962  17.310  1.00  0.00     0.191 HD
BRANCH  17  20
HETATM   20  C9  UNL     1      18.918  48.120  15.949  1.00  0.00     0.128 A 
HETATM   21  C10 UNL     1      19.943  47.748  16.777  1.00  0.00     0.092 A 
HETATM   22  C11 UNL     1      20.187  46.390  16.542  1.00  0.00     0.182 A 
HETATM   23  N8  UNL     1      21.169  45.595  17.186  1.00  0.00    -0.072 NA
HETATM   24  O2  UNL     1      19.327  46.022  15.617  1.00  0.00    -0.222 OA
HETATM   25  N9  UNL     1      18.570  47.041  15.257  1.00  0.00    -0.254 N 
ATOM     26  H9  UNL     1      17.831  47.006  14.556  1.00  0.00     0.195 HD
ENDBRANCH  17  20
ENDBRANCH  12  16
BRANCH  11  27
HETATM   27  S1  UNL     1      16.524  50.243  19.759  1.00  0.00    -0.092 SA
BRANCH  27  28
HETATM   28  C5  UNL     1      15.437  50.717  21.109  1.00  0.00     0.084 C 
BRANCH  28  29
HETATM   29  C6  UNL     1      15.778  52.096  21.649  1.00  0.00     0.038 C 
BRANCH  29  30
HETATM   30  C7  UNL     1      14.950  52.314  22.897  1.00  0.00     0.230 C 
BRANCH  30  31
HETATM   31  N5  UNL     1      14.730  53.735  23.057  1.00  0.00    -0.079 N 
ATOM     32  H53 UNL     1      15.178  54.286  22.326  1.00  0.00     0.274 HD
ATOM     33  H52 UNL     1      13.765  54.006  22.863  1.00  0.00     0.274 HD
ATOM     34  H51 UNL     1      15.032  54.005  23.993  1.00  0.00     0.274 HD
ENDBRANCH  30  31
ENDBRANCH  29  30
ENDBRANCH  28  29
ENDBRANCH  27  28
ENDBRANCH  11  27
BRANCH   1  35
HETATM   35  N1  UNL     1      15.454  53.304  13.086  1.00  0.00    -0.234 N 
ATOM     36  H12 UNL     1      14.914  54.067  12.679  1.00  0.00     0.174 HD
ATOM     37  H11 UNL     1      16.036  52.682  12.524  1.00  0.00     0.174 HD
ENDBRANCH   1  35
TORSDOF 8
ENDMDL
MODEL 3
REMARK VINA RESULT: -7.640143008      3.761      7.742
REMARK  8 active torsions:
REMARK  status: ('A' for Active; 'I' for Inactive)
REMARK    1  A    between atoms: N1_1  and  C1_4 
REMARK    2  A    between atoms: C4_14  and  S1_15 
REMARK    3  A    between atoms: S1_15  and  C5_16 
REMARK    4  A    between atoms: C5_16  and  C6_17 
REMARK    5  A    between atoms: C6_17  and  C7_18 
REMARK    6  A    between atoms: C7_18  and  N5_19 
REMARK    7  A    between atoms: N6_23  and  N7_24 
REMARK       I    between atoms: N7_24  and  C8_26 
REMARK    8  A    between atoms: C8_26  and  C9_28 
ROOT
HETATM    1  C1  UNL     1      17.664  51.735  13.719  1.00  0.00     0.679 A 
HETATM    2  N2  UNL     1      16.745  52.621  14.111  1.00  0.00    -0.175 N 
ATOM      3  H2  UNL     1      16.420  53.364  13.494  1.00  0.00     0.186 HD
HETATM    4  C2  UNL     1      16.275  52.483  15.349  1.00  0.00     0.145 A 
HETATM    5  N3  UNL     1      15.372  53.310  15.810  1.00  0.00    -0.383 N 
ATOM      6  H31 UNL     1      15.012  53.205  16.758  1.00  0.00     0.157 HD
ATOM      7  H32 UNL     1      15.052  54.052  15.188  1.00  0.00     0.157 HD
HETATM    8  C3  UNL     1      16.710  51.477  16.194  1.00  0.00     0.126 A 
HETATM    9  N4  UNL     1      16.401  51.166  17.460  1.00  0.00    -0.329 N 
ATOM     10  H4  UNL     1      15.726  51.663  18.041  1.00  0.00     0.168 HD
HETATM   11  C4  UNL     1      17.108  50.115  17.837  1.00  0.00     0.168 A 
HETATM   12  N6  UNL     1      17.915  49.709  16.789  1.00  0.00    -0.211 N 
HETATM   13  C12 UNL     1      17.658  50.569  15.776  1.00  0.00     0.175 A 
HETATM   14  N10 UNL     1      18.113  50.730  14.531  1.00  0.00    -0.172 N 
ATOM     15  H10 UNL     1      18.818  50.085  14.176  1.00  0.00     0.186 HD
ENDROOT
BRANCH  12  16
HETATM   16  N7  UNL     1      18.787  48.681  16.899  1.00  0.00    -0.254 N 
HETATM   17  C8  UNL     1      19.115  47.582  16.128  1.00  0.00     0.289 C 
HETATM   18  O1  UNL     1      18.636  47.215  15.044  1.00  0.00    -0.264 OA
ATOM     19  H7  UNL     1      19.334  48.728  17.759  1.00  0.00     0.191 HD
BRANCH  17  20
HETATM   20  C9  UNL     1      20.217  46.694  16.682  1.00  0.00     0.128 A 
HETATM   21  C10 UNL     1      20.059  45.394  17.082  1.00  0.00     0.092 A 
HETATM   22  C11 UNL     1      21.309  44.946  17.523  1.00  0.00     0.182 A 
HETATM   23  N8  UNL     1      21.603  43.654  18.026  1.00  0.00    -0.072 NA
HETATM   24  O2  UNL     1      22.131  45.962  17.372  1.00  0.00    -0.222 OA
HETATM   25  N9  UNL     1      21.493  47.005  16.875  1.00  0.00    -0.254 N 
ATOM     26  H9  UNL     1      21.915  47.910  16.669  1.00  0.00     0.195 HD
ENDBRANCH  17  20
ENDBRANCH  12  16
BRANCH  11  27
HETATM   27  S1  UNL     1      17.032  49.332  19.435  1.00  0.00    -0.092 SA
BRANCH  27  28
HETATM   28  C5  UNL     1      15.693  50.044  20.400  1.00  0.00     0.084 C 
BRANCH  28  29
HETATM   29  C6  UNL     1      16.094  51.368  21.028  1.00  0.00     0.038 C 
BRANCH  29  30
HETATM   30  C7  UNL     1      14.979  51.786  21.962  1.00  0.00     0.230 C 
BRANCH  30  31
HETATM   31  N5  UNL     1      15.277  53.107  22.469  1.00  0.00    -0.079 N 
ATOM     32  H53 UNL     1      15.032  53.845  21.809  1.00  0.00     0.274 HD
ATOM     33  H52 UNL     1      14.654  53.386  23.227  1.00  0.00     0.274 HD
ATOM     34  H51 UNL     1      16.260  53.135  22.741  1.00  0.00     0.274 HD
ENDBRANCH  30  31
ENDBRANCH  29  30
ENDBRANCH  28  29
ENDBRANCH  27  28
ENDBRANCH  11  27
BRANCH   1  35
HETATM   35  N1  UNL     1      18.181  51.787  12.529  1.00  0.00    -0.234 N 
ATOM     36  H12 UNL     1      18.504  50.903  12.136  1.00  0.00     0.174 HD
ATOM     37  H11 UNL     1      18.256  52.671  12.026  1.00  0.00     0.174 HD
ENDBRANCH   1  35
TORSDOF 8
ENDMDL
MODEL 4
REMARK VINA RESULT: -6.999260733      2.826      6.211
REMARK  8 active torsions:
REMARK  status: ('A' for Active; 'I' for Inactive)
REMARK    1  A    between atoms: N1_1  and  C1_4 
REMARK    2  A    between atoms: C4_14  and  S1_15 
REMARK    3  A    between atoms: S1_15  and  C5_16 
REMARK    4  A    between atoms: C5_16  and  C6_17 
REMARK    5  A    between atoms: C6_17  and  C7_18 
REMARK    6  A    between atoms: C7_18  and  N5_19 
REMARK    7  A    between atoms: N6_23  and  N7_24 
REMARK       I    between atoms: N7_24  and  C8_26 
REMARK    8  A    between atoms: C8_26  and  C9_28 
ROOT
HETATM    1  C1  UNL     1      15.733  52.972  14.284  1.00  0.00     0.679 A 
HETATM    2  N2  UNL     1      16.598  52.594  13.340  1.00  0.00    -0.175 N 
ATOM      3  H2  UNL     1      16.522  52.929  12.379  1.00  0.00     0.186 HD
HETATM    4  C2  UNL     1      17.564  51.759  13.715  1.00  0.00     0.145 A 
HETATM    5  N3  UNL     1      18.453  51.342  12.849  1.00  0.00    -0.383 N 
ATOM      6  H31 UNL     1      19.193  50.703  13.137  1.00  0.00     0.157 HD
ATOM      7  H32 UNL     1      18.371  51.681  11.891  1.00  0.00     0.157 HD
HETATM    8  C3  UNL     1      17.676  51.300  15.016  1.00  0.00     0.126 A 
HETATM    9  N4  UNL     1      18.534  50.456  15.604  1.00  0.00    -0.329 N 
ATOM     10  H4  UNL     1      19.316  49.993  15.140  1.00  0.00     0.168 HD
HETATM   11  C4  UNL     1      18.210  50.319  16.878  1.00  0.00     0.168 A 
HETATM   12  N6  UNL     1      17.099  51.097  17.150  1.00  0.00    -0.211 N 
HETATM   13  C12 UNL     1      16.778  51.698  15.981  1.00  0.00     0.175 A 
HETATM   14  N10 UNL     1      15.818  52.534  15.578  1.00  0.00    -0.172 N 
ATOM     15  H10 UNL     1      15.127  52.856  16.254  1.00  0.00     0.186 HD
ENDROOT
BRANCH  12  16
HETATM   16  N7  UNL     1      16.510  51.121  18.368  1.00  0.00    -0.254 N 
HETATM   17  C8  UNL     1      16.170  50.174  19.315  1.00  0.00     0.289 C 
HETATM   18  O1  UNL     1      16.316  48.943  19.279  1.00  0.00    -0.264 OA
ATOM     19  H7  UNL     1      16.256  52.066  18.656  1.00  0.00     0.191 HD
BRANCH  17  20
HETATM   20  C9  UNL     1      15.523  50.712  20.581  1.00  0.00     0.128 A 
HETATM   21  C10 UNL     1      16.024  51.723  21.357  1.00  0.00     0.092 A 
HETATM   22  C11 UNL     1      15.131  51.906  22.418  1.00  0.00     0.182 A 
HETATM   23  N8  UNL     1      15.261  52.854  23.464  1.00  0.00    -0.072 NA
HETATM   24  O2  UNL     1      14.169  51.028  22.237  1.00  0.00    -0.222 OA
HETATM   25  N9  UNL     1      14.392  50.314  21.150  1.00  0.00    -0.254 N 
ATOM     26  H9  UNL     1      13.788  49.570  20.801  1.00  0.00     0.195 HD
ENDBRANCH  17  20
ENDBRANCH  12  16
BRANCH  11  27
HETATM   27  S1  UNL     1      19.068  49.304  18.064  1.00  0.00    -0.092 SA
BRANCH  27  28
HETATM   28  C5  UNL     1      20.632  50.071  18.504  1.00  0.00     0.084 C 
BRANCH  28  29
HETATM   29  C6  UNL     1      21.806  49.392  17.817  1.00  0.00     0.038 C 
BRANCH  29  30
HETATM   30  C7  UNL     1      21.256  48.229  17.021  1.00  0.00     0.230 C 
BRANCH  30  31
HETATM   31  N5  UNL     1      22.346  47.329  16.714  1.00  0.00    -0.079 N 
ATOM     32  H53 UNL     1      22.688  47.439  15.760  1.00  0.00     0.274 HD
ATOM     33  H52 UNL     1      23.208  47.577  17.200  1.00  0.00     0.274 HD
ATOM     34  H51 UNL     1      22.043  46.375  16.914  1.00  0.00     0.274 HD
ENDBRANCH  30  31
ENDBRANCH  29  30
ENDBRANCH  28  29
ENDBRANCH  27  28
ENDBRANCH  11  27
BRANCH   1  35
HETATM   35  N1  UNL     1      14.757  53.784  14.014  1.00  0.00    -0.234 N 
ATOM     36  H12 UNL     1      14.258  53.616  13.141  1.00  0.00     0.174 HD
ATOM     37  H11 UNL     1      14.513  54.544  14.649  1.00  0.00     0.174 HD
ENDBRANCH   1  35
TORSDOF 8
ENDMDL
MODEL 5
REMARK VINA RESULT: -6.899680185      0.998      1.647
REMARK  8 active torsions:
REMARK  status: ('A' for Active; 'I' for Inactive)
REMARK    1  A    between atoms: N1_1  and  C1_4 
REMARK    2  A    between atoms: C4_14  and  S1_15 
REMARK    3  A    between atoms: S1_15  and  C5_16 
REMARK    4  A    between atoms: C5_16  and  C6_17 
REMARK    5  A    between atoms: C6_17  and  C7_18 
REMARK    6  A    between atoms: C7_18  and  N5_19 
REMARK    7  A    between atoms: N6_23  and  N7_24 
REMARK       I    between atoms: N7_24  and  C8_26 
REMARK    8  A    between atoms: C8_26  and  C9_28 
ROOT
HETATM    1  C1  UNL     1      15.261  51.924  20.851  1.00  0.00     0.679 A 
HETATM    2  N2  UNL     1      15.988  50.997  21.478  1.00  0.00    -0.175 N 
ATOM      3  H2  UNL     1      16.029  50.946  22.496  1.00  0.00     0.186 HD
HETATM    4  C2  UNL     1      16.657  50.142  20.707  1.00  0.00     0.145 A 
HETATM    5  N3  UNL     1      17.393  49.202  21.244  1.00  0.00    -0.383 N 
ATOM      6  H31 UNL     1      17.906  48.547  20.654  1.00  0.00     0.157 HD
ATOM      7  H32 UNL     1      17.429  49.157  22.262  1.00  0.00     0.157 HD
HETATM    8  C3  UNL     1      16.608  50.203  19.325  1.00  0.00     0.126 A 
HETATM    9  N4  UNL     1      17.203  49.479  18.369  1.00  0.00    -0.329 N 
ATOM     10  H4  UNL     1      17.830  48.691  18.531  1.00  0.00     0.168 HD
HETATM   11  C4  UNL     1      16.851  49.945  17.183  1.00  0.00     0.168 A 
HETATM   12  N6  UNL     1      15.991  51.015  17.353  1.00  0.00    -0.211 N 
HETATM   13  C12 UNL     1      15.853  51.165  18.691  1.00  0.00     0.175 A 
HETATM   14  N10 UNL     1      15.193  52.010  19.487  1.00  0.00    -0.172 N 
ATOM     15  H10 UNL     1      14.622  52.742  19.065  1.00  0.00     0.186 HD
ENDROOT
BRANCH  12  16
HETATM   16  N7  UNL     1      15.500  51.725  16.311  1.00  0.00    -0.254 N 
HETATM   17  C8  UNL     1      14.981  52.995  16.143  1.00  0.00     0.289 C 
HETATM   18  O1  UNL     1      14.800  53.885  16.988  1.00  0.00    -0.264 OA
ATOM     19  H7  UNL     1      15.518  51.196  15.439  1.00  0.00     0.191 HD
BRANCH  17  20
HETATM   20  C9  UNL     1      14.572  53.357  14.725  1.00  0.00     0.128 A 
HETATM   21  C10 UNL     1      13.353  53.090  14.161  1.00  0.00     0.092 A 
HETATM   22  C11 UNL     1      13.390  53.585  12.853  1.00  0.00     0.182 A 
HETATM   23  N8  UNL     1      12.336  53.521  11.906  1.00  0.00    -0.072 NA
HETATM   24  O2  UNL     1      14.587  54.108  12.697  1.00  0.00    -0.222 OA
HETATM   25  N9  UNL     1      15.297  53.977  13.802  1.00  0.00    -0.254 N 
ATOM     26  H9  UNL     1      16.255  54.303  13.927  1.00  0.00     0.195 HD
ENDBRANCH  17  20
ENDBRANCH  12  16
BRANCH  11  27
HETATM   27  S1  UNL     1      17.384  49.297  15.612  1.00  0.00    -0.092 SA
BRANCH  27  28
HETATM   28  C5  UNL     1      19.146  49.582  15.401  1.00  0.00     0.084 C 
BRANCH  28  29
HETATM   29  C6  UNL     1      19.426  50.939  14.776  1.00  0.00     0.038 C 
BRANCH  29  30
HETATM   30  C7  UNL     1      18.286  51.249  13.831  1.00  0.00     0.230 C 
BRANCH  30  31
HETATM   31  N5  UNL     1      17.934  52.644  13.981  1.00  0.00    -0.079 N 
ATOM     32  H53 UNL     1      18.202  53.204  13.172  1.00  0.00     0.274 HD
ATOM     33  H52 UNL     1      16.928  52.802  13.931  1.00  0.00     0.274 HD
ATOM     34  H51 UNL     1      18.343  52.989  14.849  1.00  0.00     0.274 HD
ENDBRANCH  30  31
ENDBRANCH  29  30
ENDBRANCH  28  29
ENDBRANCH  27  28
ENDBRANCH  11  27
BRANCH   1  35
HETATM   35  N1  UNL     1      14.574  52.802  21.517  1.00  0.00    -0.234 N 
ATOM     36  H12 UNL     1      14.115  53.529  20.968  1.00  0.00     0.174 HD
ATOM     37  H11 UNL     1      14.505  52.756  22.533  1.00  0.00     0.174 HD
ENDBRANCH   1  35
TORSDOF 8
ENDMDL
