MODEL 1
REMARK VINA RESULT: -9.262067447      0.000      0.000
REMARK  8 active torsions:
REMARK  status: ('A' for Active; 'I' for Inactive)
REMARK    1  A    between atoms: C3_4  and  N2_5 
REMARK    2  A    between atoms: C4_10  and  C5_11 
REMARK       I    between atoms: C5_11  and  N4_13 
REMARK    3  A    between atoms: N4_13  and  N5_15 
REMARK    4  A    between atoms: N5_15  and  C6_17 
REMARK    5  A    between atoms: C8_19  and  N6_20 
REMARK    6  A    between atoms: N6_20  and  C9_22 
REMARK    7  A    between atoms: C9_22  and  C10_26 
REMARK    8  A    between atoms: C12_30  and  N8_31 
ROOT
HETATM    1  C6  UNL     1      15.809  51.052  19.797  1.00  0.00     0.123 A 
HETATM    2  C7  UNL     1      16.805  50.127  19.599  1.00  0.00     0.079 A 
HETATM    3  C8  UNL     1      17.340  49.905  18.337  1.00  0.00     0.041 A 
HETATM    4  C11 UNL     1      16.834  50.645  17.303  1.00  0.00     0.077 A 
HETATM    5  C12 UNL     1      15.821  51.584  17.502  1.00  0.00     0.102 A 
HETATM    6  N9  UNL     1      15.352  51.745  18.749  1.00  0.00    -0.328 N 
ATOM      7  H9  UNL     1      14.612  52.429  18.906  1.00  0.00     0.169 HD
ENDROOT
BRANCH   1   8
HETATM    8  N5  UNL     1      15.320  51.213  21.119  1.00  0.00    -0.282 N 
ATOM      9  H5  UNL     1      14.800  50.465  21.579  1.00  0.00     0.188 HD
BRANCH   8  10
HETATM   10  N4  UNL     1      15.569  52.419  21.774  1.00  0.00    -0.262 N 
HETATM   11  C5  UNL     1      14.915  52.650  23.022  1.00  0.00     0.304 C 
HETATM   12  O3  UNL     1      14.159  51.764  23.455  1.00  0.00    -0.263 OA
ATOM     13  H4  UNL     1      16.199  53.114  21.375  1.00  0.00     0.190 HD
BRANCH  11  14
HETATM   14  C4  UNL     1      15.166  53.902  23.719  1.00  0.00     0.179 A 
HETATM   15  N1  UNL     1      15.828  54.112  24.854  1.00  0.00    -0.339 N 
HETATM   16  C1  UNL     1      16.486  53.151  25.722  1.00  0.00     0.157 C 
HETATM   17  C2  UNL     1      15.834  55.455  25.166  1.00  0.00     0.147 A 
HETATM   18  C3  UNL     1      15.146  56.080  24.177  1.00  0.00     0.191 A 
HETATM   19  N3  UNL     1      14.750  55.139  23.316  1.00  0.00    -0.318 N 
ATOM     20  H3  UNL     1      14.210  55.320  22.470  1.00  0.00     0.169 HD
BRANCH  18  21
HETATM   21  N2  UNL     1      14.859  57.480  24.018  1.00  0.00    -0.096 N 
HETATM   22  O1  UNL     1      14.068  58.032  24.792  1.00  0.00    -0.530 OA
HETATM   23  O2  UNL     1      15.498  58.126  22.989  1.00  0.00    -0.530 OA
ENDBRANCH  18  21
ENDBRANCH  11  14
ENDBRANCH   8  10
ENDBRANCH   1   8
BRANCH   3  24
HETATM   24  N6  UNL     1      18.371  48.942  18.148  1.00  0.00    -0.337 N 
ATOM     25  H6  UNL     1      18.181  47.956  18.329  1.00  0.00     0.167 HD
BRANCH  24  26
HETATM   26  C9  UNL     1      19.657  49.338  17.712  1.00  0.00     0.177 C 
HETATM   27  N7  UNL     1      20.478  49.822  18.557  1.00  0.00    -0.380 N 
ATOM     28  H72 UNL     1      20.199  49.917  19.534  1.00  0.00     0.158 HD
ATOM     29  H71 UNL     1      21.405  50.109  18.242  1.00  0.00     0.158 HD
BRANCH  26  30
HETATM   30  C10 UNL     1      20.055  49.203  16.320  1.00  0.00     0.244 C 
HETATM   31  O4  UNL     1      20.108  50.175  15.546  1.00  0.00    -0.642 OA
HETATM   32  O5  UNL     1      20.398  47.951  15.799  1.00  0.00    -0.642 OA
ENDBRANCH  26  30
ENDBRANCH  24  26
ENDBRANCH   3  24
BRANCH   5  33
HETATM   33  N8  UNL     1      15.364  52.264  16.517  1.00  0.00    -0.385 N 
ATOM     34  H82 UNL     1      15.976  52.637  15.791  1.00  0.00     0.157 HD
ATOM     35  H81 UNL     1      14.364  52.449  16.436  1.00  0.00     0.157 HD
ENDBRANCH   5  33
TORSDOF 8
ENDMDL
MODEL 2
REMARK VINA RESULT: -8.978125232      1.087      1.153
REMARK  8 active torsions:
REMARK  status: ('A' for Active; 'I' for Inactive)
REMARK    1  A    between atoms: C3_4  and  N2_5 
REMARK    2  A    between atoms: C4_10  and  C5_11 
REMARK       I    between atoms: C5_11  and  N4_13 
REMARK    3  A    between atoms: N4_13  and  N5_15 
REMARK    4  A    between atoms: N5_15  and  C6_17 
REMARK    5  A    between atoms: C8_19  and  N6_20 
REMARK    6  A    between atoms: N6_20  and  C9_22 
REMARK    7  A    between atoms: C9_22  and  C10_26 
REMARK    8  A    between atoms: C12_30  and  N8_31 
ROOT
HETATM    1  C6  UNL     1      15.827  50.967  19.689  1.00  0.00     0.123 A 
HETATM    2  C7  UNL     1      16.816  50.034  19.493  1.00  0.00     0.079 A 
HETATM    3  C8  UNL     1      17.374  49.830  18.239  1.00  0.00     0.041 A 
HETATM    4  C11 UNL     1      16.898  50.596  17.209  1.00  0.00     0.077 A 
HETATM    5  C12 UNL     1      15.892  51.543  17.406  1.00  0.00     0.102 A 
HETATM    6  N9  UNL     1      15.400  51.685  18.646  1.00  0.00    -0.328 N 
ATOM      7  H9  UNL     1      14.665  52.375  18.801  1.00  0.00     0.169 HD
ENDROOT
BRANCH   1   8
HETATM    8  N5  UNL     1      15.313  51.108  21.004  1.00  0.00    -0.282 N 
ATOM      9  H5  UNL     1      14.790  50.351  21.446  1.00  0.00     0.188 HD
BRANCH   8  10
HETATM   10  N4  UNL     1      15.541  52.308  21.678  1.00  0.00    -0.262 N 
HETATM   11  C5  UNL     1      14.891  52.504  22.934  1.00  0.00     0.304 C 
HETATM   12  O3  UNL     1      14.156  51.594  23.356  1.00  0.00    -0.263 OA
ATOM     13  H4  UNL     1      16.153  53.023  21.286  1.00  0.00     0.190 HD
BRANCH  11  14
HETATM   14  C4  UNL     1      15.119  53.749  23.650  1.00  0.00     0.179 A 
HETATM   15  N1  UNL     1      15.700  53.942  24.832  1.00  0.00    -0.339 N 
HETATM   16  C1  UNL     1      16.267  52.965  25.744  1.00  0.00     0.157 C 
HETATM   17  C2  UNL     1      15.715  55.285  25.147  1.00  0.00     0.147 A 
HETATM   18  C3  UNL     1      15.117  55.927  24.110  1.00  0.00     0.191 A 
HETATM   19  N3  UNL     1      14.764  54.996  23.220  1.00  0.00    -0.318 N 
ATOM     20  H3  UNL     1      14.293  55.190  22.336  1.00  0.00     0.169 HD
BRANCH  18  21
HETATM   21  N2  UNL     1      14.877  57.333  23.933  1.00  0.00    -0.096 N 
HETATM   22  O1  UNL     1      14.148  57.932  24.733  1.00  0.00    -0.530 OA
HETATM   23  O2  UNL     1      15.489  57.931  22.860  1.00  0.00    -0.530 OA
ENDBRANCH  18  21
ENDBRANCH  11  14
ENDBRANCH   8  10
ENDBRANCH   1   8
BRANCH   3  24
HETATM   24  N6  UNL     1      18.398  48.858  18.052  1.00  0.00    -0.337 N 
ATOM     25  H6  UNL     1      18.241  47.895  18.350  1.00  0.00     0.167 HD
BRANCH  24  26
HETATM   26  C9  UNL     1      19.631  49.215  17.458  1.00  0.00     0.177 C 
HETATM   27  N7  UNL     1      19.852  48.894  16.245  1.00  0.00    -0.380 N 
ATOM     28  H72 UNL     1      19.139  48.388  15.720  1.00  0.00     0.158 HD
ATOM     29  H71 UNL     1      20.742  49.151  15.816  1.00  0.00     0.158 HD
BRANCH  26  30
HETATM   30  C10 UNL     1      20.647  49.937  18.206  1.00  0.00     0.244 C 
HETATM   31  O4  UNL     1      20.366  50.867  18.983  1.00  0.00    -0.642 OA
HETATM   32  O5  UNL     1      21.998  49.602  18.072  1.00  0.00    -0.642 OA
ENDBRANCH  26  30
ENDBRANCH  24  26
ENDBRANCH   3  24
BRANCH   5  33
HETATM   33  N8  UNL     1      15.463  52.247  16.425  1.00  0.00    -0.385 N 
ATOM     34  H82 UNL     1      14.498  52.575  16.380  1.00  0.00     0.157 HD
ATOM     35  H81 UNL     1      16.087  52.498  15.657  1.00  0.00     0.157 HD
ENDBRANCH   5  33
TORSDOF 8
ENDMDL
MODEL 3
REMARK VINA RESULT: -8.711621404      1.628      1.898
REMARK  8 active torsions:
REMARK  status: ('A' for Active; 'I' for Inactive)
REMARK    1  A    between atoms: C3_4  and  N2_5 
REMARK    2  A    between atoms: C4_10  and  C5_11 
REMARK       I    between atoms: C5_11  and  N4_13 
REMARK    3  A    between atoms: N4_13  and  N5_15 
REMARK    4  A    between atoms: N5_15  and  C6_17 
REMARK    5  A    between atoms: C8_19  and  N6_20 
REMARK    6  A    between atoms: N6_20  and  C9_22 
REMARK    7  A    between atoms: C9_22  and  C10_26 
REMARK    8  A    between atoms: C12_30  and  N8_31 
ROOT
HETATM    1  C6  UNL     1      15.709  51.525  18.693  1.00  0.00     0.123 A 
HETATM    2  C7  UNL     1      16.375  50.633  17.888  1.00  0.00     0.079 A 
HETATM    3  C8  UNL     1      16.547  50.877  16.532  1.00  0.00     0.041 A 
HETATM    4  C11 UNL     1      16.026  52.041  16.034  1.00  0.00     0.077 A 
HETATM    5  C12 UNL     1      15.348  52.948  16.850  1.00  0.00     0.102 A 
HETATM    6  N9  UNL     1      15.220  52.645  18.151  1.00  0.00    -0.328 N 
ATOM      7  H9  UNL     1      14.726  53.301  18.757  1.00  0.00     0.169 HD
ENDROOT
BRANCH   1   8
HETATM    8  N5  UNL     1      15.579  51.195  20.067  1.00  0.00    -0.282 N 
ATOM      9  H5  UNL     1      15.502  50.222  20.366  1.00  0.00     0.188 HD
BRANCH   8  10
HETATM   10  N4  UNL     1      15.559  52.233  20.998  1.00  0.00    -0.262 N 
HETATM   11  C5  UNL     1      14.821  52.036  22.205  1.00  0.00     0.304 C 
HETATM   12  O3  UNL     1      14.236  50.950  22.357  1.00  0.00    -0.263 OA
ATOM     13  H4  UNL     1      16.056  53.105  20.823  1.00  0.00     0.190 HD
BRANCH  11  14
HETATM   14  C4  UNL     1      14.792  53.108  23.186  1.00  0.00     0.179 A 
HETATM   15  N1  UNL     1      14.354  53.082  24.443  1.00  0.00    -0.339 N 
HETATM   16  C1  UNL     1      13.779  51.978  25.190  1.00  0.00     0.157 C 
HETATM   17  C2  UNL     1      14.509  54.320  25.032  1.00  0.00     0.147 A 
HETATM   18  C3  UNL     1      15.062  55.125  24.089  1.00  0.00     0.191 A 
HETATM   19  N3  UNL     1      15.227  54.387  22.988  1.00  0.00    -0.318 N 
ATOM     20  H3  UNL     1      15.625  54.733  22.115  1.00  0.00     0.169 HD
BRANCH  18  21
HETATM   21  N2  UNL     1      15.431  56.511  24.185  1.00  0.00    -0.096 N 
HETATM   22  O1  UNL     1      15.152  57.281  23.258  1.00  0.00    -0.530 OA
HETATM   23  O2  UNL     1      16.085  56.897  25.329  1.00  0.00    -0.530 OA
ENDBRANCH  18  21
ENDBRANCH  11  14
ENDBRANCH   8  10
ENDBRANCH   1   8
BRANCH   3  24
HETATM   24  N6  UNL     1      17.239  49.942  15.711  1.00  0.00    -0.337 N 
ATOM     25  H6  UNL     1      16.710  49.313  15.107  1.00  0.00     0.167 HD
BRANCH  24  26
HETATM   26  C9  UNL     1      18.652  49.877  15.725  1.00  0.00     0.177 C 
HETATM   27  N7  UNL     1      19.323  50.844  15.236  1.00  0.00    -0.380 N 
ATOM     28  H72 UNL     1      18.835  51.649  14.844  1.00  0.00     0.158 HD
ATOM     29  H71 UNL     1      20.342  50.797  15.246  1.00  0.00     0.158 HD
BRANCH  26  30
HETATM   30  C10 UNL     1      19.348  48.730  16.285  1.00  0.00     0.244 C 
HETATM   31  O4  UNL     1      20.231  48.117  15.659  1.00  0.00    -0.642 OA
HETATM   32  O5  UNL     1      19.041  48.273  17.570  1.00  0.00    -0.642 OA
ENDBRANCH  26  30
ENDBRANCH  24  26
ENDBRANCH   3  24
BRANCH   5  33
HETATM   33  N8  UNL     1      14.869  54.030  16.359  1.00  0.00    -0.385 N 
ATOM     34  H82 UNL     1      15.470  54.805  16.079  1.00  0.00     0.157 HD
ATOM     35  H81 UNL     1      13.862  54.140  16.235  1.00  0.00     0.157 HD
ENDBRANCH   5  33
TORSDOF 8
ENDMDL
MODEL 4
REMARK VINA RESULT: -8.697177851      2.372      3.399
REMARK  8 active torsions:
REMARK  status: ('A' for Active; 'I' for Inactive)
REMARK    1  A    between atoms: C3_4  and  N2_5 
REMARK    2  A    between atoms: C4_10  and  C5_11 
REMARK       I    between atoms: C5_11  and  N4_13 
REMARK    3  A    between atoms: N4_13  and  N5_15 
REMARK    4  A    between atoms: N5_15  and  C6_17 
REMARK    5  A    between atoms: C8_19  and  N6_20 
REMARK    6  A    between atoms: N6_20  and  C9_22 
REMARK    7  A    between atoms: C9_22  and  C10_26 
REMARK    8  A    between atoms: C12_30  and  N8_31 
ROOT
HETATM    1  C6  UNL     1      16.235  50.773  19.850  1.00  0.00     0.123 A 
HETATM    2  C7  UNL     1      15.694  51.061  18.621  1.00  0.00     0.079 A 
HETATM    3  C8  UNL     1      16.401  50.825  17.450  1.00  0.00     0.041 A 
HETATM    4  C11 UNL     1      17.657  50.294  17.573  1.00  0.00     0.077 A 
HETATM    5  C12 UNL     1      18.209  50.002  18.820  1.00  0.00     0.102 A 
HETATM    6  N9  UNL     1      17.467  50.257  19.909  1.00  0.00    -0.328 N 
ATOM      7  H9  UNL     1      17.861  50.048  20.826  1.00  0.00     0.169 HD
ENDROOT
BRANCH   1   8
HETATM    8  N5  UNL     1      15.442  51.048  20.994  1.00  0.00    -0.282 N 
ATOM      9  H5  UNL     1      14.735  50.384  21.312  1.00  0.00     0.188 HD
BRANCH   8  10
HETATM   10  N4  UNL     1      15.653  52.248  21.673  1.00  0.00    -0.262 N 
HETATM   11  C5  UNL     1      14.943  52.460  22.893  1.00  0.00     0.304 C 
HETATM   12  O3  UNL     1      14.175  51.564  23.282  1.00  0.00    -0.263 OA
ATOM     13  H4  UNL     1      16.295  52.952  21.309  1.00  0.00     0.190 HD
BRANCH  11  14
HETATM   14  C4  UNL     1      15.153  53.706  23.614  1.00  0.00     0.179 A 
HETATM   15  N1  UNL     1      15.722  53.901  24.801  1.00  0.00    -0.339 N 
HETATM   16  C1  UNL     1      16.290  52.928  25.717  1.00  0.00     0.157 C 
HETATM   17  C2  UNL     1      15.721  55.244  25.120  1.00  0.00     0.147 A 
HETATM   18  C3  UNL     1      15.128  55.882  24.079  1.00  0.00     0.191 A 
HETATM   19  N3  UNL     1      14.791  54.950  23.184  1.00  0.00    -0.318 N 
ATOM     20  H3  UNL     1      14.326  55.142  22.296  1.00  0.00     0.169 HD
BRANCH  18  21
HETATM   21  N2  UNL     1      14.876  57.287  23.903  1.00  0.00    -0.096 N 
HETATM   22  O1  UNL     1      14.105  57.870  24.675  1.00  0.00    -0.530 OA
HETATM   23  O2  UNL     1      15.525  57.902  22.862  1.00  0.00    -0.530 OA
ENDBRANCH  18  21
ENDBRANCH  11  14
ENDBRANCH   8  10
ENDBRANCH   1   8
BRANCH   3  24
HETATM   24  N6  UNL     1      15.826  51.129  16.183  1.00  0.00    -0.337 N 
ATOM     25  H6  UNL     1      15.371  50.391  15.645  1.00  0.00     0.167 HD
BRANCH  24  26
HETATM   26  C9  UNL     1      15.879  52.444  15.664  1.00  0.00     0.177 C 
HETATM   27  N7  UNL     1      16.915  52.818  15.025  1.00  0.00    -0.380 N 
ATOM     28  H72 UNL     1      17.690  52.167  14.896  1.00  0.00     0.158 HD
ATOM     29  H71 UNL     1      16.954  53.767  14.651  1.00  0.00     0.158 HD
BRANCH  26  30
HETATM   30  C10 UNL     1      14.775  53.372  15.848  1.00  0.00     0.244 C 
HETATM   31  O4  UNL     1      13.918  53.570  14.968  1.00  0.00    -0.642 OA
HETATM   32  O5  UNL     1      14.639  54.084  17.044  1.00  0.00    -0.642 OA
ENDBRANCH  26  30
ENDBRANCH  24  26
ENDBRANCH   3  24
BRANCH   5  33
HETATM   33  N8  UNL     1      19.387  49.507  18.908  1.00  0.00    -0.385 N 
ATOM     34  H82 UNL     1      20.008  49.448  18.100  1.00  0.00     0.157 HD
ATOM     35  H81 UNL     1      19.735  49.155  19.800  1.00  0.00     0.157 HD
ENDBRANCH   5  33
TORSDOF 8
ENDMDL
MODEL 5
REMARK VINA RESULT: -8.665612422      1.609      9.330
REMARK  8 active torsions:
REMARK  status: ('A' for Active; 'I' for Inactive)
REMARK    1  A    between atoms: C3_4  and  N2_5 
REMARK    2  A    between atoms: C4_10  and  C5_11 
REMARK       I    between atoms: C5_11  and  N4_13 
REMARK    3  A    between atoms: N4_13  and  N5_15 
REMARK    4  A    between atoms: N5_15  and  C6_17 
REMARK    5  A    between atoms: C8_19  and  N6_20 
REMARK    6  A    between atoms: N6_20  and  C9_22 
REMARK    7  A    between atoms: C9_22  and  C10_26 
REMARK    8  A    between atoms: C12_30  and  N8_31 
ROOT
HETATM    1  C6  UNL     1      15.153  53.029  23.143  1.00  0.00     0.123 A 
HETATM    2  C7  UNL     1      14.554  54.260  23.026  1.00  0.00     0.079 A 
HETATM    3  C8  UNL     1      14.807  55.273  23.940  1.00  0.00     0.041 A 
HETATM    4  C11 UNL     1      15.678  54.995  24.959  1.00  0.00     0.077 A 
HETATM    5  C12 UNL     1      16.288  53.745  25.080  1.00  0.00     0.102 A 
HETATM    6  N9  UNL     1      15.995  52.814  24.159  1.00  0.00    -0.328 N 
ATOM      7  H9  UNL     1      16.435  51.897  24.238  1.00  0.00     0.169 HD
ENDROOT
BRANCH   1   8
HETATM    8  N5  UNL     1      14.836  52.052  22.165  1.00  0.00    -0.282 N 
ATOM      9  H5  UNL     1      13.954  51.540  22.204  1.00  0.00     0.188 HD
BRANCH   8  10
HETATM   10  N4  UNL     1      15.759  51.809  21.148  1.00  0.00    -0.262 N 
HETATM   11  C5  UNL     1      15.484  50.748  20.233  1.00  0.00     0.304 C 
HETATM   12  O3  UNL     1      14.436  50.099  20.395  1.00  0.00    -0.263 OA
ATOM     13  H4  UNL     1      16.605  52.372  21.061  1.00  0.00     0.190 HD
BRANCH  11  14
HETATM   14  C4  UNL     1      16.436  50.482  19.166  1.00  0.00     0.179 A 
HETATM   15  N1  UNL     1      16.406  50.883  17.897  1.00  0.00    -0.339 N 
HETATM   16  C1  UNL     1      15.413  51.693  17.215  1.00  0.00     0.157 C 
HETATM   17  C2  UNL     1      17.509  50.410  17.218  1.00  0.00     0.147 A 
HETATM   18  C3  UNL     1      18.234  49.695  18.117  1.00  0.00     0.191 A 
HETATM   19  N3  UNL     1      17.580  49.746  19.280  1.00  0.00    -0.318 N 
ATOM     20  H3  UNL     1      17.894  49.295  20.140  1.00  0.00     0.169 HD
BRANCH  18  21
HETATM   21  N2  UNL     1      19.474  48.994  17.927  1.00  0.00    -0.096 N 
HETATM   22  O1  UNL     1      19.463  47.854  17.448  1.00  0.00    -0.530 OA
HETATM   23  O2  UNL     1      20.618  49.654  18.302  1.00  0.00    -0.530 OA
ENDBRANCH  18  21
ENDBRANCH  11  14
ENDBRANCH   8  10
ENDBRANCH   1   8
BRANCH   3  24
HETATM   24  N6  UNL     1      14.177  56.543  23.806  1.00  0.00    -0.337 N 
ATOM     25  H6  UNL     1      13.191  56.592  23.550  1.00  0.00     0.167 HD
BRANCH  24  26
HETATM   26  C9  UNL     1      14.905  57.736  24.023  1.00  0.00     0.177 C 
HETATM   27  N7  UNL     1      15.727  58.133  23.135  1.00  0.00    -0.380 N 
ATOM     28  H72 UNL     1      15.848  57.588  22.281  1.00  0.00     0.158 HD
ATOM     29  H71 UNL     1      16.252  58.994  23.292  1.00  0.00     0.158 HD
BRANCH  26  30
HETATM   30  C10 UNL     1      14.731  58.514  25.239  1.00  0.00     0.244 C 
HETATM   31  O4  UNL     1      13.789  58.316  26.027  1.00  0.00    -0.642 OA
HETATM   32  O5  UNL     1      15.637  59.527  25.568  1.00  0.00    -0.642 OA
ENDBRANCH  26  30
ENDBRANCH  24  26
ENDBRANCH   3  24
BRANCH   5  33
HETATM   33  N8  UNL     1      17.099  53.510  26.043  1.00  0.00    -0.385 N 
ATOM     34  H82 UNL     1      17.650  54.252  26.476  1.00  0.00     0.157 HD
ATOM     35  H81 UNL     1      17.212  52.562  26.404  1.00  0.00     0.157 HD
ENDBRANCH   5  33
TORSDOF 8
ENDMDL
