MODEL 1
REMARK VINA RESULT: -8.831315209      0.000      0.000
REMARK  9 active torsions:
REMARK  status: ('A' for Active; 'I' for Inactive)
REMARK       I    between atoms: C1_4  and  N3_6 
REMARK    1  A    between atoms: N4_8  and  C2_10 
REMARK    2  A    between atoms: C2_10  and  C3_11 
REMARK    3  A    between atoms: C3_11  and  C4_12 
REMARK    4  A    between atoms: C4_12  and  N5_13 
REMARK    5  A    between atoms: N5_13  and  N6_14 
REMARK    6  A    between atoms: N5_13  and  C5_17 
REMARK    7  A    between atoms: C7_19  and  N7_20 
REMARK    8  A    between atoms: C8_25  and  N9_26 
REMARK       I    between atoms: N10_28  and  C9_30 
REMARK       I    between atoms: C9_30  and  N12_34 
REMARK    9  A    between atoms: N12_34  and  N13_36 
ROOT
HETATM    1  C5  UNL     1      18.340  50.334  15.637  1.00  0.00     0.140 A 
HETATM    2  C6  UNL     1      19.090  49.221  15.340  1.00  0.00     0.099 A 
HETATM    3  C7  UNL     1      19.470  48.339  16.319  1.00  0.00     0.118 A 
HETATM    4  N8  UNL     1      19.098  48.578  17.579  1.00  0.00    -0.176 N 
ATOM      5  H8  UNL     1      19.377  47.927  18.313  1.00  0.00     0.186 HD
HETATM    6  C8  UNL     1      18.364  49.657  17.903  1.00  0.00     0.700 A 
HETATM    7  N14 UNL     1      17.995  50.516  16.936  1.00  0.00    -0.174 N 
ATOM      8  H14 UNL     1      17.438  51.332  17.188  1.00  0.00     0.186 HD
ENDROOT
BRANCH   1   9
HETATM    9  N5  UNL     1      17.927  51.263  14.670  1.00  0.00    -0.283 N 
BRANCH   9  10
HETATM   10  C4  UNL     1      17.221  52.488  14.903  1.00  0.00     0.152 C 
BRANCH  10  11
HETATM   11  C3  UNL     1      15.716  52.276  14.965  1.00  0.00     0.043 C 
BRANCH  11  12
HETATM   12  C2  UNL     1      14.991  53.355  15.704  1.00  0.00     0.141 C 
BRANCH  12  13
HETATM   13  N4  UNL     1      13.839  53.844  14.982  1.00  0.00    -0.334 N 
HETATM   14  N3  UNL     1      13.581  53.402  13.819  1.00  0.00    -0.278 N 
HETATM   15  C1  UNL     1      12.459  53.854  13.074  1.00  0.00     0.200 C 
ATOM     16  H3  UNL     1      14.197  52.701  13.408  1.00  0.00     0.189 HD
HETATM   17  N1  UNL     1      11.637  54.654  13.649  1.00  0.00    -0.372 N 
HETATM   18  N2  UNL     1      12.298  53.405  11.735  1.00  0.00    -0.062 NA
ATOM     19  H12 UNL     1      10.832  54.979  13.115  1.00  0.00     0.158 HD
ATOM     20  H11 UNL     1      11.753  54.976  14.610  1.00  0.00     0.158 HD
ATOM     21  H4  UNL     1      13.232  54.546  15.406  1.00  0.00     0.180 HD
ENDBRANCH  12  13
ENDBRANCH  11  12
ENDBRANCH  10  11
ENDBRANCH   9  10
BRANCH   9  22
HETATM   22  N6  UNL     1      18.228  50.971  13.311  1.00  0.00    -0.341 N 
ATOM     23  H62 UNL     1      17.691  51.462  12.595  1.00  0.00     0.177 HD
ATOM     24  H61 UNL     1      18.969  50.288  13.157  1.00  0.00     0.177 HD
ENDBRANCH   9  22
ENDBRANCH   1   9
BRANCH   3  25
HETATM   25  N7  UNL     1      20.190  47.275  16.028  1.00  0.00    -0.385 N 
ATOM     26  H72 UNL     1      21.048  47.076  16.542  1.00  0.00     0.157 HD
ATOM     27  H71 UNL     1      19.903  46.635  15.287  1.00  0.00     0.157 HD
ENDBRANCH   3  25
BRANCH   6  28
HETATM   28  N9  UNL     1      17.983  49.877  19.268  1.00  0.00    -0.117 N 
HETATM   29  N10 UNL     1      16.847  50.391  19.506  1.00  0.00    -0.117 N 
HETATM   30  C9  UNL     1      16.365  50.653  20.807  1.00  0.00     0.710 C 
ATOM     31  H10 UNL     1      16.250  50.628  18.714  1.00  0.00     0.206 HD
HETATM   32  N11 UNL     1      17.209  50.870  21.748  1.00  0.00    -0.232 N 
HETATM   33  N12 UNL     1      14.986  50.686  21.108  1.00  0.00    -0.071 N 
ATOM     34 2H11 UNL     1      18.205  50.847  21.531  1.00  0.00     0.174 HD
ATOM     35 1H11 UNL     1      16.861  51.059  22.688  1.00  0.00     0.174 HD
ATOM     36  H12 UNL     1      14.693  50.402  22.043  1.00  0.00     0.212 HD
ATOM     37  H9  UNL     1      18.611  49.625  20.032  1.00  0.00     0.206 HD
BRANCH  33  38
HETATM   38  N13 UNL     1      14.003  51.082  20.207  1.00  0.00    -0.024 N 
HETATM   39  O1  UNL     1      14.269  52.032  19.441  1.00  0.00    -0.516 OA
HETATM   40  O2  UNL     1      12.765  50.484  20.119  1.00  0.00    -0.516 OA
ENDBRANCH  33  38
ENDBRANCH   6  28
TORSDOF 9
ENDMDL
MODEL 2
REMARK VINA RESULT: -8.505885781      3.877      7.251
REMARK  9 active torsions:
REMARK  status: ('A' for Active; 'I' for Inactive)
REMARK       I    between atoms: C1_4  and  N3_6 
REMARK    1  A    between atoms: N4_8  and  C2_10 
REMARK    2  A    between atoms: C2_10  and  C3_11 
REMARK    3  A    between atoms: C3_11  and  C4_12 
REMARK    4  A    between atoms: C4_12  and  N5_13 
REMARK    5  A    between atoms: N5_13  and  N6_14 
REMARK    6  A    between atoms: N5_13  and  C5_17 
REMARK    7  A    between atoms: C7_19  and  N7_20 
REMARK    8  A    between atoms: C8_25  and  N9_26 
REMARK       I    between atoms: N10_28  and  C9_30 
REMARK       I    between atoms: C9_30  and  N12_34 
REMARK    9  A    between atoms: N12_34  and  N13_36 
ROOT
HETATM    1  C5  UNL     1      17.386  50.568  17.377  1.00  0.00     0.140 A 
HETATM    2  C6  UNL     1      17.108  51.337  16.272  1.00  0.00     0.099 A 
HETATM    3  C7  UNL     1      18.018  51.477  15.256  1.00  0.00     0.118 A 
HETATM    4  N8  UNL     1      19.193  50.850  15.356  1.00  0.00    -0.176 N 
ATOM      5  H8  UNL     1      19.875  50.949  14.605  1.00  0.00     0.186 HD
HETATM    6  C8  UNL     1      19.497  50.091  16.423  1.00  0.00     0.700 A 
HETATM    7  N14 UNL     1      18.598  49.959  17.414  1.00  0.00    -0.174 N 
ATOM      8  H14 UNL     1      18.834  49.382  18.220  1.00  0.00     0.186 HD
ENDROOT
BRANCH   1   9
HETATM    9  N5  UNL     1      16.487  50.395  18.440  1.00  0.00    -0.283 N 
BRANCH   9  10
HETATM   10  C4  UNL     1      15.471  51.312  18.863  1.00  0.00     0.152 C 
BRANCH  10  11
HETATM   11  C3  UNL     1      14.986  51.016  20.274  1.00  0.00     0.043 C 
BRANCH  11  12
HETATM   12  C2  UNL     1      15.838  51.632  21.338  1.00  0.00     0.141 C 
BRANCH  12  13
HETATM   13  N4  UNL     1      15.165  52.704  22.035  1.00  0.00    -0.334 N 
HETATM   14  N3  UNL     1      15.132  52.716  23.305  1.00  0.00    -0.278 N 
HETATM   15  C1  UNL     1      14.481  53.750  24.030  1.00  0.00     0.200 C 
ATOM     16  H3  UNL     1      15.585  51.962  23.819  1.00  0.00     0.189 HD
HETATM   17  N1  UNL     1      14.012  54.745  23.370  1.00  0.00    -0.372 N 
HETATM   18  N2  UNL     1      14.380  53.639  25.444  1.00  0.00    -0.062 NA
ATOM     19  H12 UNL     1      13.545  55.488  23.890  1.00  0.00     0.158 HD
ATOM     20  H11 UNL     1      14.084  54.825  22.356  1.00  0.00     0.158 HD
ATOM     21  H4  UNL     1      14.715  53.451  21.506  1.00  0.00     0.180 HD
ENDBRANCH  12  13
ENDBRANCH  11  12
ENDBRANCH  10  11
ENDBRANCH   9  10
BRANCH   9  22
HETATM   22  N6  UNL     1      16.585  49.191  19.191  1.00  0.00    -0.341 N 
ATOM     23  H62 UNL     1      16.226  49.202  20.146  1.00  0.00     0.177 HD
ATOM     24  H61 UNL     1      17.009  48.399  18.706  1.00  0.00     0.177 HD
ENDBRANCH   9  22
ENDBRANCH   1   9
BRANCH   3  25
HETATM   25  N7  UNL     1      17.744  52.214  14.200  1.00  0.00    -0.385 N 
ATOM     26  H72 UNL     1      17.001  51.940  13.558  1.00  0.00     0.157 HD
ATOM     27  H71 UNL     1      18.269  53.068  14.007  1.00  0.00     0.157 HD
ENDBRANCH   3  25
BRANCH   6  28
HETATM   28  N9  UNL     1      20.770  49.433  16.491  1.00  0.00    -0.117 N 
HETATM   29  N10 UNL     1      20.812  48.235  16.907  1.00  0.00    -0.117 N 
HETATM   30  C9  UNL     1      22.005  47.487  17.017  1.00  0.00     0.710 C 
ATOM     31  H10 UNL     1      19.936  47.788  17.178  1.00  0.00     0.206 HD
HETATM   32  N11 UNL     1      23.112  48.109  17.199  1.00  0.00    -0.232 N 
HETATM   33  N12 UNL     1      22.022  46.078  16.933  1.00  0.00    -0.071 N 
ATOM     34 2H11 UNL     1      23.099  49.127  17.259  1.00  0.00     0.174 HD
ATOM     35 1H11 UNL     1      23.973  47.569  17.278  1.00  0.00     0.174 HD
ATOM     36  H12 UNL     1      22.853  45.631  16.546  1.00  0.00     0.212 HD
ATOM     37  H9  UNL     1      21.623  49.918  16.210  1.00  0.00     0.206 HD
BRANCH  33  38
HETATM   38  N13 UNL     1      20.974  45.262  17.347  1.00  0.00    -0.024 N 
HETATM   39  O1  UNL     1      19.817  45.593  17.014  1.00  0.00    -0.516 OA
HETATM   40  O2  UNL     1      21.149  44.120  18.098  1.00  0.00    -0.516 OA
ENDBRANCH  33  38
ENDBRANCH   6  28
TORSDOF 9
ENDMDL
MODEL 3
REMARK VINA RESULT: -8.316721003      3.234      5.008
REMARK  9 active torsions:
REMARK  status: ('A' for Active; 'I' for Inactive)
REMARK       I    between atoms: C1_4  and  N3_6 
REMARK    1  A    between atoms: N4_8  and  C2_10 
REMARK    2  A    between atoms: C2_10  and  C3_11 
REMARK    3  A    between atoms: C3_11  and  C4_12 
REMARK    4  A    between atoms: C4_12  and  N5_13 
REMARK    5  A    between atoms: N5_13  and  N6_14 
REMARK    6  A    between atoms: N5_13  and  C5_17 
REMARK    7  A    between atoms: C7_19  and  N7_20 
REMARK    8  A    between atoms: C8_25  and  N9_26 
REMARK       I    between atoms: N10_28  and  C9_30 
REMARK       I    between atoms: C9_30  and  N12_34 
REMARK    9  A    between atoms: N12_34  and  N13_36 
ROOT
HETATM    1  C5  UNL     1      18.054  51.056  15.509  1.00  0.00     0.140 A 
HETATM    2  C6  UNL     1      17.244  50.911  16.610  1.00  0.00     0.099 A 
HETATM    3  C7  UNL     1      17.634  50.155  17.685  1.00  0.00     0.118 A 
HETATM    4  N8  UNL     1      18.826  49.553  17.647  1.00  0.00    -0.176 N 
ATOM      5  H8  UNL     1      19.123  48.988  18.443  1.00  0.00     0.186 HD
HETATM    6  C8  UNL     1      19.642  49.673  16.587  1.00  0.00     0.700 A 
HETATM    7  N14 UNL     1      19.251  50.418  15.537  1.00  0.00    -0.174 N 
ATOM      8  H14 UNL     1      19.874  50.506  14.735  1.00  0.00     0.186 HD
ENDROOT
BRANCH   1   9
HETATM    9  N5  UNL     1      17.698  51.820  14.387  1.00  0.00    -0.283 N 
BRANCH   9  10
HETATM   10  C4  UNL     1      16.729  52.873  14.338  1.00  0.00     0.152 C 
BRANCH  10  11
HETATM   11  C3  UNL     1      15.374  52.426  14.865  1.00  0.00     0.043 C 
BRANCH  11  12
HETATM   12  C2  UNL     1      14.618  53.511  15.564  1.00  0.00     0.141 C 
BRANCH  12  13
HETATM   13  N4  UNL     1      13.466  53.956  14.814  1.00  0.00    -0.334 N 
HETATM   14  N3  UNL     1      13.267  53.523  13.636  1.00  0.00    -0.278 N 
HETATM   15  C1  UNL     1      12.148  53.934  12.863  1.00  0.00     0.200 C 
ATOM     16  H3  UNL     1      13.929  52.861  13.234  1.00  0.00     0.189 HD
HETATM   17  N1  UNL     1      11.270  54.682  13.426  1.00  0.00    -0.372 N 
HETATM   18  N2  UNL     1      12.051  53.502  11.512  1.00  0.00    -0.062 NA
ATOM     19  H12 UNL     1      10.467  54.977  12.871  1.00  0.00     0.158 HD
ATOM     20  H11 UNL     1      11.339  54.991  14.395  1.00  0.00     0.158 HD
ATOM     21  H4  UNL     1      12.813  54.619  15.230  1.00  0.00     0.180 HD
ENDBRANCH  12  13
ENDBRANCH  11  12
ENDBRANCH  10  11
ENDBRANCH   9  10
BRANCH   9  22
HETATM   22  N6  UNL     1      18.355  51.526  13.160  1.00  0.00    -0.341 N 
ATOM     23  H62 UNL     1      18.422  50.546  12.886  1.00  0.00     0.177 HD
ATOM     24  H61 UNL     1      18.709  52.330  12.642  1.00  0.00     0.177 HD
ENDBRANCH   9  22
ENDBRANCH   1   9
BRANCH   3  25
HETATM   25  N7  UNL     1      16.853  50.020  18.736  1.00  0.00    -0.385 N 
ATOM     26  H72 UNL     1      16.489  50.843  19.217  1.00  0.00     0.157 HD
ATOM     27  H71 UNL     1      16.600  49.096  19.087  1.00  0.00     0.157 HD
ENDBRANCH   3  25
BRANCH   6  28
HETATM   28  N9  UNL     1      20.915  49.012  16.587  1.00  0.00    -0.117 N 
HETATM   29  N10 UNL     1      20.980  47.822  17.026  1.00  0.00    -0.117 N 
HETATM   30  C9  UNL     1      22.175  47.072  17.075  1.00  0.00     0.710 C 
ATOM     31  H10 UNL     1      20.122  47.385  17.362  1.00  0.00     0.206 HD
HETATM   32  N11 UNL     1      23.293  47.693  17.172  1.00  0.00    -0.232 N 
HETATM   33  N12 UNL     1      22.182  45.661  17.021  1.00  0.00    -0.071 N 
ATOM     34 2H11 UNL     1      23.288  48.712  17.210  1.00  0.00     0.174 HD
ATOM     35 1H11 UNL     1      24.156  47.151  17.206  1.00  0.00     0.174 HD
ATOM     36  H12 UNL     1      22.986  45.202  16.591  1.00  0.00     0.212 HD
ATOM     37  H9  UNL     1      21.749  49.486  16.241  1.00  0.00     0.206 HD
BRANCH  33  38
HETATM   38  N13 UNL     1      21.161  44.859  17.519  1.00  0.00    -0.024 N 
HETATM   39  O1  UNL     1      19.986  45.190  17.257  1.00  0.00    -0.516 OA
HETATM   40  O2  UNL     1      21.381  43.731  18.280  1.00  0.00    -0.516 OA
ENDBRANCH  33  38
ENDBRANCH   6  28
TORSDOF 9
ENDMDL
MODEL 4
REMARK VINA RESULT: -8.082925052      3.122      5.120
REMARK  9 active torsions:
REMARK  status: ('A' for Active; 'I' for Inactive)
REMARK       I    between atoms: C1_4  and  N3_6 
REMARK    1  A    between atoms: N4_8  and  C2_10 
REMARK    2  A    between atoms: C2_10  and  C3_11 
REMARK    3  A    between atoms: C3_11  and  C4_12 
REMARK    4  A    between atoms: C4_12  and  N5_13 
REMARK    5  A    between atoms: N5_13  and  N6_14 
REMARK    6  A    between atoms: N5_13  and  C5_17 
REMARK    7  A    between atoms: C7_19  and  N7_20 
REMARK    8  A    between atoms: C8_25  and  N9_26 
REMARK       I    between atoms: N10_28  and  C9_30 
REMARK       I    between atoms: C9_30  and  N12_34 
REMARK    9  A    between atoms: N12_34  and  N13_36 
ROOT
HETATM    1  C5  UNL     1      17.186  50.996  16.539  1.00  0.00     0.140 A 
HETATM    2  C6  UNL     1      17.018  51.422  15.243  1.00  0.00     0.099 A 
HETATM    3  C7  UNL     1      18.018  51.286  14.315  1.00  0.00     0.118 A 
HETATM    4  N8  UNL     1      19.172  50.727  14.692  1.00  0.00    -0.176 N 
ATOM      5  H8  UNL     1      19.921  50.623  14.008  1.00  0.00     0.186 HD
HETATM    6  C8  UNL     1      19.369  50.301  15.951  1.00  0.00     0.700 A 
HETATM    7  N14 UNL     1      18.381  50.438  16.854  1.00  0.00    -0.174 N 
ATOM      8  H14 UNL     1      18.536  50.112  17.807  1.00  0.00     0.186 HD
ENDROOT
BRANCH   1   9
HETATM    9  N5  UNL     1      16.191  51.114  17.522  1.00  0.00    -0.283 N 
BRANCH   9  10
HETATM   10  C4  UNL     1      14.987  51.885  17.437  1.00  0.00     0.152 C 
BRANCH  10  11
HETATM   11  C3  UNL     1      15.268  53.350  17.140  1.00  0.00     0.043 C 
BRANCH  11  12
HETATM   12  C2  UNL     1      14.158  54.033  16.407  1.00  0.00     0.141 C 
BRANCH  12  13
HETATM   13  N4  UNL     1      14.234  53.836  14.978  1.00  0.00    -0.334 N 
HETATM   14  N3  UNL     1      13.175  53.850  14.275  1.00  0.00    -0.278 N 
HETATM   15  C1  UNL     1      13.203  53.660  12.868  1.00  0.00     0.200 C 
ATOM     16  H3  UNL     1      12.278  54.001  14.736  1.00  0.00     0.189 HD
HETATM   17  N1  UNL     1      14.348  53.579  12.294  1.00  0.00    -0.372 N 
HETATM   18  N2  UNL     1      11.972  53.569  12.162  1.00  0.00    -0.062 NA
ATOM     19  H12 UNL     1      14.369  53.443  11.284  1.00  0.00     0.158 HD
ATOM     20  H11 UNL     1      15.231  53.645  12.800  1.00  0.00     0.158 HD
ATOM     21  H4  UNL     1      15.138  53.685  14.531  1.00  0.00     0.180 HD
ENDBRANCH  12  13
ENDBRANCH  11  12
ENDBRANCH  10  11
ENDBRANCH   9  10
BRANCH   9  22
HETATM   22  N6  UNL     1      16.387  50.404  18.739  1.00  0.00    -0.341 N 
ATOM     23  H62 UNL     1      16.180  49.405  18.739  1.00  0.00     0.177 HD
ATOM     24  H61 UNL     1      16.728  50.957  19.526  1.00  0.00     0.177 HD
ENDBRANCH   9  22
ENDBRANCH   1   9
BRANCH   3  25
HETATM   25  N7  UNL     1      17.851  51.696  13.075  1.00  0.00    -0.385 N 
ATOM     26  H72 UNL     1      17.360  52.569  12.882  1.00  0.00     0.157 HD
ATOM     27  H71 UNL     1      18.206  51.150  12.290  1.00  0.00     0.157 HD
ENDBRANCH   3  25
BRANCH   6  28
HETATM   28  N9  UNL     1      20.622  49.705  16.315  1.00  0.00    -0.117 N 
HETATM   29  N10 UNL     1      20.626  48.505  16.727  1.00  0.00    -0.117 N 
HETATM   30  C9  UNL     1      21.796  47.815  17.112  1.00  0.00     0.710 C 
ATOM     31  H10 UNL     1      19.735  48.011  16.783  1.00  0.00     0.206 HD
HETATM   32  N11 UNL     1      22.796  48.489  17.551  1.00  0.00    -0.232 N 
HETATM   33  N12 UNL     1      21.905  46.410  17.032  1.00  0.00    -0.071 N 
ATOM     34 2H11 UNL     1      22.718  49.504  17.609  1.00  0.00     0.174 HD
ATOM     35 1H11 UNL     1      23.642  47.991  17.829  1.00  0.00     0.174 HD
ATOM     36  H12 UNL     1      22.825  46.010  16.850  1.00  0.00     0.212 HD
ATOM     37  H9  UNL     1      21.491  50.235  16.244  1.00  0.00     0.206 HD
BRANCH  33  38
HETATM   38  N13 UNL     1      20.832  45.538  17.186  1.00  0.00    -0.024 N 
HETATM   39  O1  UNL     1      19.757  45.838  16.626  1.00  0.00    -0.516 OA
HETATM   40  O2  UNL     1      20.897  44.372  17.919  1.00  0.00    -0.516 OA
ENDBRANCH  33  38
ENDBRANCH   6  28
TORSDOF 9
ENDMDL
MODEL 5
REMARK VINA RESULT: -8.065832407      1.460      1.870
REMARK  9 active torsions:
REMARK  status: ('A' for Active; 'I' for Inactive)
REMARK       I    between atoms: C1_4  and  N3_6 
REMARK    1  A    between atoms: N4_8  and  C2_10 
REMARK    2  A    between atoms: C2_10  and  C3_11 
REMARK    3  A    between atoms: C3_11  and  C4_12 
REMARK    4  A    between atoms: C4_12  and  N5_13 
REMARK    5  A    between atoms: N5_13  and  N6_14 
REMARK    6  A    between atoms: N5_13  and  C5_17 
REMARK    7  A    between atoms: C7_19  and  N7_20 
REMARK    8  A    between atoms: C8_25  and  N9_26 
REMARK       I    between atoms: N10_28  and  C9_30 
REMARK       I    between atoms: C9_30  and  N12_34 
REMARK    9  A    between atoms: N12_34  and  N13_36 
ROOT
HETATM    1  C5  UNL     1      18.825  49.234  16.318  1.00  0.00     0.140 A 
HETATM    2  C6  UNL     1      20.187  49.054  16.325  1.00  0.00     0.099 A 
HETATM    3  C7  UNL     1      20.917  49.197  17.477  1.00  0.00     0.118 A 
HETATM    4  N8  UNL     1      20.279  49.518  18.605  1.00  0.00    -0.176 N 
ATOM      5  H8  UNL     1      20.815  49.626  19.466  1.00  0.00     0.186 HD
HETATM    6  C8  UNL     1      18.948  49.702  18.633  1.00  0.00     0.700 A 
HETATM    7  N14 UNL     1      18.241  49.559  17.498  1.00  0.00    -0.174 N 
ATOM      8  H14 UNL     1      17.231  49.699  17.526  1.00  0.00     0.186 HD
ENDROOT
BRANCH   1   9
HETATM    9  N5  UNL     1      18.036  49.099  15.165  1.00  0.00    -0.283 N 
BRANCH   9  10
HETATM   10  C4  UNL     1      17.586  50.152  14.304  1.00  0.00     0.152 C 
BRANCH  10  11
HETATM   11  C3  UNL     1      17.705  51.517  14.964  1.00  0.00     0.043 C 
BRANCH  11  12
HETATM   12  C2  UNL     1      17.356  52.651  14.054  1.00  0.00     0.141 C 
BRANCH  12  13
HETATM   13  N4  UNL     1      15.989  53.090  14.215  1.00  0.00    -0.334 N 
HETATM   14  N3  UNL     1      15.164  52.971  13.256  1.00  0.00    -0.278 N 
HETATM   15  C1  UNL     1      13.811  53.388  13.370  1.00  0.00     0.200 C 
ATOM     16  H3  UNL     1      15.483  52.563  12.377  1.00  0.00     0.189 HD
HETATM   17  N1  UNL     1      13.402  53.798  14.516  1.00  0.00    -0.372 N 
HETATM   18  N2  UNL     1      12.976  53.335  12.221  1.00  0.00    -0.062 NA
ATOM     19  H12 UNL     1      12.431  54.098  14.599  1.00  0.00     0.158 HD
ATOM     20  H11 UNL     1      14.001  53.836  15.340  1.00  0.00     0.158 HD
ATOM     21  H4  UNL     1      15.685  53.496  15.100  1.00  0.00     0.180 HD
ENDBRANCH  12  13
ENDBRANCH  11  12
ENDBRANCH  10  11
ENDBRANCH   9  10
BRANCH   9  22
HETATM   22  N6  UNL     1      17.628  47.785  14.802  1.00  0.00    -0.341 N 
ATOM     23  H62 UNL     1      17.056  47.686  13.964  1.00  0.00     0.177 HD
ATOM     24  H61 UNL     1      17.949  47.035  15.415  1.00  0.00     0.177 HD
ENDBRANCH   9  22
ENDBRANCH   1   9
BRANCH   3  25
HETATM   25  N7  UNL     1      22.222  49.023  17.476  1.00  0.00    -0.385 N 
ATOM     26  H72 UNL     1      22.748  49.054  18.350  1.00  0.00     0.157 HD
ATOM     27  H71 UNL     1      22.729  48.855  16.607  1.00  0.00     0.157 HD
ENDBRANCH   3  25
BRANCH   6  28
HETATM   28  N9  UNL     1      18.301  50.044  19.867  1.00  0.00    -0.117 N 
HETATM   29  N10 UNL     1      17.091  50.425  19.832  1.00  0.00    -0.117 N 
HETATM   30  C9  UNL     1      16.352  50.787  20.979  1.00  0.00     0.710 C 
ATOM     31  H10 UNL     1      16.627  50.472  18.924  1.00  0.00     0.206 HD
HETATM   32  N11 UNL     1      16.979  51.239  22.002  1.00  0.00    -0.232 N 
HETATM   33  N12 UNL     1      14.946  50.670  21.038  1.00  0.00    -0.071 N 
ATOM     34 2H11 UNL     1      17.994  51.324  21.959  1.00  0.00     0.174 HD
ATOM     35 1H11 UNL     1      16.445  51.500  22.831  1.00  0.00     0.174 HD
ATOM     36  H12 UNL     1      14.519  50.473  21.945  1.00  0.00     0.212 HD
ATOM     37  H9  UNL     1      18.802  49.983  20.753  1.00  0.00     0.206 HD
BRANCH  33  38
HETATM   38  N13 UNL     1      14.107  50.805  19.937  1.00  0.00    -0.024 N 
HETATM   39  O1  UNL     1      12.882  50.643  20.119  1.00  0.00    -0.516 OA
HETATM   40  O2  UNL     1      14.557  51.106  18.670  1.00  0.00    -0.516 OA
ENDBRANCH  33  38
ENDBRANCH   6  28
TORSDOF 9
ENDMDL
