MODEL 1
REMARK VINA RESULT: -4.835251118      0.000      0.000
REMARK  3 active torsions:
REMARK  status: ('A' for Active; 'I' for Inactive)
REMARK    1  A    between atoms: N1_1  and  C1_4 
REMARK    2  A    between atoms: C3_9  and  N4_10 
REMARK    3  A    between atoms: N5_12  and  C4_14 
ROOT
HETATM    1  C1  UNL     1      30.497  67.289  73.439  1.00  0.00     0.678 A 
HETATM    2  N2  UNL     1      29.313  67.431  72.814  1.00  0.00    -0.175 N 
ATOM      3  H2  UNL     1      29.131  67.358  71.812  1.00  0.00     0.185 HD
HETATM    4  C2  UNL     1      28.413  67.688  73.793  1.00  0.00     0.177 A 
HETATM    5  N3  UNL     1      27.014  67.913  73.618  1.00  0.00    -0.078 NA
HETATM    6  C3  UNL     1      29.049  67.704  75.023  1.00  0.00     0.177 A 
HETATM    7  N6  UNL     1      30.348  67.451  74.764  1.00  0.00    -0.172 N 
ATOM      8  H6  UNL     1      31.093  67.393  75.458  1.00  0.00     0.186 HD
ENDROOT
BRANCH   6   9
HETATM    9  N4  UNL     1      28.438  67.939  76.274  1.00  0.00    -0.284 N 
HETATM   10  N5  UNL     1      28.089  69.035  76.735  1.00  0.00    -0.304 N 
ATOM     11  H5  UNL     1      27.662  69.015  77.661  1.00  0.00     0.183 HD
ATOM     12  H4  UNL     1      28.266  67.122  76.859  1.00  0.00     0.188 HD
BRANCH  10  13
HETATM   13  C4  UNL     1      28.212  70.319  76.132  1.00  0.00     0.259 A 
HETATM   14  C5  UNL     1      28.184  71.530  77.068  1.00  0.00     0.225 A 
HETATM   15  O1  UNL     1      29.378  71.023  76.545  1.00  0.00    -0.359 OA
ENDBRANCH  10  13
ENDBRANCH   6   9
BRANCH   1  16
HETATM   16  N1  UNL     1      31.594  67.032  72.793  1.00  0.00    -0.234 N 
ATOM     17  H12 UNL     1      31.803  67.244  71.817  1.00  0.00     0.174 HD
ATOM     18  H11 UNL     1      32.389  66.568  73.233  1.00  0.00     0.174 HD
ENDBRANCH   1  16
TORSDOF 3
ENDMDL
MODEL 2
REMARK VINA RESULT: -4.447982606      1.514      1.805
REMARK  3 active torsions:
REMARK  status: ('A' for Active; 'I' for Inactive)
REMARK    1  A    between atoms: N1_1  and  C1_4 
REMARK    2  A    between atoms: C3_9  and  N4_10 
REMARK    3  A    between atoms: N5_12  and  C4_14 
ROOT
HETATM    1  C1  UNL     1      31.141  67.091  73.087  1.00  0.00     0.678 A 
HETATM    2  N2  UNL     1      30.627  68.093  72.350  1.00  0.00    -0.175 N 
ATOM      3  H2  UNL     1      31.112  68.654  71.649  1.00  0.00     0.185 HD
HETATM    4  C2  UNL     1      29.333  68.201  72.733  1.00  0.00     0.177 A 
HETATM    5  N3  UNL     1      28.376  69.132  72.227  1.00  0.00    -0.078 NA
HETATM    6  C3  UNL     1      29.052  67.260  73.708  1.00  0.00     0.177 A 
HETATM    7  N6  UNL     1      30.203  66.585  73.905  1.00  0.00    -0.172 N 
ATOM      8  H6  UNL     1      30.338  65.819  74.564  1.00  0.00     0.186 HD
ENDROOT
BRANCH   6   9
HETATM    9  N4  UNL     1      27.808  67.069  74.349  1.00  0.00    -0.284 N 
HETATM   10  N5  UNL     1      27.479  67.481  75.470  1.00  0.00    -0.304 N 
ATOM     11  H5  UNL     1      26.535  67.247  75.774  1.00  0.00     0.183 HD
ATOM     12  H4  UNL     1      27.107  66.536  73.835  1.00  0.00     0.188 HD
BRANCH  10  13
HETATM   13  C4  UNL     1      28.259  68.242  76.387  1.00  0.00     0.259 A 
HETATM   14  C5  UNL     1      28.780  69.595  75.898  1.00  0.00     0.225 A 
HETATM   15  O1  UNL     1      27.662  69.487  76.731  1.00  0.00    -0.359 OA
ENDBRANCH  10  13
ENDBRANCH   6   9
BRANCH   1  16
HETATM   16  N1  UNL     1      32.379  66.713  72.977  1.00  0.00    -0.234 N 
ATOM     17  H12 UNL     1      32.808  66.218  72.195  1.00  0.00     0.174 HD
ATOM     18  H11 UNL     1      33.069  66.891  73.707  1.00  0.00     0.174 HD
ENDBRANCH   1  16
TORSDOF 3
ENDMDL
MODEL 3
REMARK VINA RESULT: -3.913403371      2.405      3.783
REMARK  3 active torsions:
REMARK  status: ('A' for Active; 'I' for Inactive)
REMARK    1  A    between atoms: N1_1  and  C1_4 
REMARK    2  A    between atoms: C3_9  and  N4_10 
REMARK    3  A    between atoms: N5_12  and  C4_14 
ROOT
HETATM    1  C1  UNL     1      27.908  65.683  74.833  1.00  0.00     0.678 A 
HETATM    2  N2  UNL     1      27.494  66.766  75.519  1.00  0.00    -0.175 N 
ATOM      3  H2  UNL     1      26.602  66.888  75.999  1.00  0.00     0.185 HD
HETATM    4  C2  UNL     1      28.510  67.658  75.438  1.00  0.00     0.177 A 
HETATM    5  N3  UNL     1      28.536  68.964  76.015  1.00  0.00    -0.078 NA
HETATM    6  C3  UNL     1      29.550  67.120  74.700  1.00  0.00     0.177 A 
HETATM    7  N6  UNL     1      29.141  65.887  74.338  1.00  0.00    -0.172 N 
ATOM      8  H6  UNL     1      29.676  65.220  73.782  1.00  0.00     0.186 HD
ENDROOT
BRANCH   6   9
HETATM    9  N4  UNL     1      30.777  67.754  74.402  1.00  0.00    -0.284 N 
HETATM   10  N5  UNL     1      31.065  68.358  73.360  1.00  0.00    -0.304 N 
ATOM     11  H5  UNL     1      32.003  68.756  73.318  1.00  0.00     0.183 HD
ATOM     12  H4  UNL     1      31.499  67.710  75.120  1.00  0.00     0.188 HD
BRANCH  10  13
HETATM   13  C4  UNL     1      30.249  68.566  72.212  1.00  0.00     0.259 A 
HETATM   14  C5  UNL     1      29.034  69.481  72.382  1.00  0.00     0.225 A 
HETATM   15  O1  UNL     1      30.218  69.923  71.785  1.00  0.00    -0.359 OA
ENDBRANCH  10  13
ENDBRANCH   6   9
BRANCH   1  16
HETATM   16  N1  UNL     1      27.171  64.621  74.705  1.00  0.00    -0.234 N 
ATOM     17  H12 UNL     1      26.572  64.193  75.411  1.00  0.00     0.174 HD
ATOM     18  H11 UNL     1      27.126  64.093  73.833  1.00  0.00     0.174 HD
ENDBRANCH   1  16
TORSDOF 3
ENDMDL
MODEL 4
REMARK VINA RESULT: -3.703848974      1.630      1.939
REMARK  3 active torsions:
REMARK  status: ('A' for Active; 'I' for Inactive)
REMARK    1  A    between atoms: N1_1  and  C1_4 
REMARK    2  A    between atoms: C3_9  and  N4_10 
REMARK    3  A    between atoms: N5_12  and  C4_14 
ROOT
HETATM    1  C1  UNL     1      28.729  66.339  74.103  1.00  0.00     0.678 A 
HETATM    2  N2  UNL     1      28.071  67.159  73.263  1.00  0.00    -0.175 N 
ATOM      3  H2  UNL     1      27.341  66.904  72.597  1.00  0.00     0.185 HD
HETATM    4  C2  UNL     1      28.581  68.394  73.486  1.00  0.00     0.177 A 
HETATM    5  N3  UNL     1      28.195  69.600  72.827  1.00  0.00    -0.078 NA
HETATM    6  C3  UNL     1      29.555  68.330  74.468  1.00  0.00     0.177 A 
HETATM    7  N6  UNL     1      29.621  67.032  74.831  1.00  0.00    -0.172 N 
ATOM      8  H6  UNL     1      30.244  66.642  75.538  1.00  0.00     0.186 HD
ENDROOT
BRANCH   6   9
HETATM    9  N4  UNL     1      30.308  69.414  74.968  1.00  0.00    -0.284 N 
HETATM   10  N5  UNL     1      29.902  70.321  75.708  1.00  0.00    -0.304 N 
ATOM     11  H5  UNL     1      30.590  71.026  75.971  1.00  0.00     0.183 HD
ATOM     12  H4  UNL     1      31.288  69.455  74.692  1.00  0.00     0.188 HD
BRANCH  10  13
HETATM   13  C4  UNL     1      28.592  70.500  76.237  1.00  0.00     0.259 A 
HETATM   14  C5  UNL     1      28.426  71.554  77.335  1.00  0.00     0.225 A 
HETATM   15  O1  UNL     1      28.068  71.804  76.006  1.00  0.00    -0.359 OA
ENDBRANCH  10  13
ENDBRANCH   6   9
BRANCH   1  16
HETATM   16  N1  UNL     1      28.488  65.063  74.156  1.00  0.00    -0.234 N 
ATOM     17  H12 UNL     1      27.601  64.608  74.373  1.00  0.00     0.174 HD
ATOM     18  H11 UNL     1      29.210  64.366  73.973  1.00  0.00     0.174 HD
ENDBRANCH   1  16
TORSDOF 3
ENDMDL
MODEL 5
REMARK VINA RESULT: -3.693691806      2.624      3.633
REMARK  3 active torsions:
REMARK  status: ('A' for Active; 'I' for Inactive)
REMARK    1  A    between atoms: N1_1  and  C1_4 
REMARK    2  A    between atoms: C3_9  and  N4_10 
REMARK    3  A    between atoms: N5_12  and  C4_14 
ROOT
HETATM    1  C1  UNL     1      31.433  67.457  73.255  1.00  0.00     0.678 A 
HETATM    2  N2  UNL     1      31.110  67.822  74.510  1.00  0.00    -0.175 N 
ATOM      3  H2  UNL     1      31.534  67.491  75.378  1.00  0.00     0.185 HD
HETATM    4  C2  UNL     1      30.103  68.719  74.381  1.00  0.00     0.177 A 
HETATM    5  N3  UNL     1      29.427  69.390  75.443  1.00  0.00    -0.078 NA
HETATM    6  C3  UNL     1      29.810  68.905  73.041  1.00  0.00     0.177 A 
HETATM    7  N6  UNL     1      30.659  68.102  72.367  1.00  0.00    -0.172 N 
ATOM      8  H6  UNL     1      30.705  68.002  71.353  1.00  0.00     0.186 HD
ENDROOT
BRANCH   6   9
HETATM    9  N4  UNL     1      28.820  69.765  72.516  1.00  0.00    -0.284 N 
HETATM   10  N5  UNL     1      27.671  69.453  72.176  1.00  0.00    -0.304 N 
ATOM     11  H5  UNL     1      27.090  70.209  71.815  1.00  0.00     0.183 HD
ATOM     12  H4  UNL     1      29.079  70.745  72.404  1.00  0.00     0.188 HD
BRANCH  10  13
HETATM   13  C4  UNL     1      27.060  68.167  72.227  1.00  0.00     0.259 A 
HETATM   14  C5  UNL     1      27.004  67.481  73.594  1.00  0.00     0.225 A 
HETATM   15  O1  UNL     1      25.895  68.133  73.044  1.00  0.00    -0.359 OA
ENDBRANCH  10  13
ENDBRANCH   6   9
BRANCH   1  16
HETATM   16  N1  UNL     1      32.373  66.596  73.005  1.00  0.00    -0.234 N 
ATOM     17  H12 UNL     1      33.343  66.629  73.319  1.00  0.00     0.174 HD
ATOM     18  H11 UNL     1      32.212  65.764  72.438  1.00  0.00     0.174 HD
ENDBRANCH   1  16
TORSDOF 3
ENDMDL
