MODEL 1
REMARK VINA RESULT: -1.506055566      0.000      0.000
REMARK  3 active torsions:
REMARK  status: ('A' for Active; 'I' for Inactive)
REMARK    1  A    between atoms: N1_1  and  C1_4 
REMARK    2  A    between atoms: C3_8  and  N3_9 
REMARK    3  A    between atoms: N3_9  and  N4_11 
ROOT
HETATM    1  C1  UNL     1      28.088  71.226  76.848  1.00  0.00     0.677 A 
HETATM    2  N2  UNL     1      29.337  71.487  76.421  1.00  0.00    -0.198 N 
ATOM      3  H2  UNL     1      29.857  72.350  76.569  1.00  0.00     0.183 HD
HETATM    4  C2  UNL     1      29.781  70.372  75.748  1.00  0.00     0.156 A 
HETATM    5  C3  UNL     1      28.771  69.442  75.785  1.00  0.00     0.153 A 
HETATM    6  N7  UNL     1      27.730  69.988  76.470  1.00  0.00    -0.174 N 
ATOM      7  H7  UNL     1      26.836  69.537  76.662  1.00  0.00     0.186 HD
ENDROOT
BRANCH   5   8
HETATM    8  N3  UNL     1      28.819  68.162  75.212  1.00  0.00    -0.262 N 
ATOM      9  H3  UNL     1      28.105  67.497  75.510  1.00  0.00     0.191 HD
BRANCH   8  10
HETATM   10  N4  UNL     1      29.749  67.708  74.275  1.00  0.00    -0.190 N 
HETATM   11  C4  UNL     1      29.720  68.093  72.964  1.00  0.00     0.228 A 
HETATM   12  N5  UNL     1      30.732  67.489  72.337  1.00  0.00    -0.345 N 
HETATM   13  C5  UNL     1      31.397  66.727  73.248  1.00  0.00     0.200 A 
ATOM     14  H5  UNL     1      30.967  67.582  71.348  1.00  0.00     0.167 HD
HETATM   15  N6  UNL     1      30.771  66.883  74.424  1.00  0.00    -0.274 N 
ATOM     16  H6  UNL     1      31.041  66.434  75.298  1.00  0.00     0.190 HD
ENDBRANCH   8  10
ENDBRANCH   5   8
BRANCH   1  17
HETATM   17  N1  UNL     1      27.372  72.078  77.525  1.00  0.00    -0.234 N 
ATOM     18  H12 UNL     1      27.142  72.036  78.518  1.00  0.00     0.174 HD
ATOM     19  H11 UNL     1      26.953  72.910  77.110  1.00  0.00     0.174 HD
ENDBRANCH   1  17
TORSDOF 3
ENDMDL
MODEL 2
REMARK VINA RESULT: -1.442334462      0.872      5.162
REMARK  3 active torsions:
REMARK  status: ('A' for Active; 'I' for Inactive)
REMARK    1  A    between atoms: N1_1  and  C1_4 
REMARK    2  A    between atoms: C3_8  and  N3_9 
REMARK    3  A    between atoms: N3_9  and  N4_11 
ROOT
HETATM    1  C1  UNL     1      31.484  67.126  73.122  1.00  0.00     0.677 A 
HETATM    2  N2  UNL     1      30.653  67.540  72.149  1.00  0.00    -0.198 N 
ATOM      3  H2  UNL     1      30.838  67.518  71.147  1.00  0.00     0.183 HD
HETATM    4  C2  UNL     1      29.506  67.998  72.756  1.00  0.00     0.156 A 
HETATM    5  C3  UNL     1      29.672  67.846  74.111  1.00  0.00     0.153 A 
HETATM    6  N7  UNL     1      30.903  67.305  74.320  1.00  0.00    -0.174 N 
ATOM      7  H7  UNL     1      31.312  67.076  75.225  1.00  0.00     0.186 HD
ENDROOT
BRANCH   5   8
HETATM    8  N3  UNL     1      28.731  68.193  75.093  1.00  0.00    -0.262 N 
ATOM      9  H3  UNL     1      28.019  67.497  75.313  1.00  0.00     0.191 HD
BRANCH   8  10
HETATM   10  N4  UNL     1      28.675  69.397  75.797  1.00  0.00    -0.190 N 
HETATM   11  C4  UNL     1      29.625  70.370  75.667  1.00  0.00     0.228 A 
HETATM   12  N5  UNL     1      29.285  71.385  76.466  1.00  0.00    -0.345 N 
HETATM   13  C5  UNL     1      28.125  71.053  77.097  1.00  0.00     0.200 A 
ATOM     14  H5  UNL     1      29.802  72.256  76.583  1.00  0.00     0.167 HD
HETATM   15  N6  UNL     1      27.778  69.831  76.666  1.00  0.00    -0.274 N 
ATOM     16  H6  UNL     1      26.950  69.315  76.963  1.00  0.00     0.190 HD
ENDBRANCH   8  10
ENDBRANCH   5   8
BRANCH   1  17
HETATM   17  N1  UNL     1      32.667  66.632  72.889  1.00  0.00    -0.234 N 
ATOM     18  H12 UNL     1      33.564  67.098  73.020  1.00  0.00     0.174 HD
ATOM     19  H11 UNL     1      32.818  65.686  72.537  1.00  0.00     0.174 HD
ENDBRANCH   1  17
TORSDOF 3
ENDMDL
MODEL 3
REMARK VINA RESULT: -1.098371007      1.254      5.125
REMARK  3 active torsions:
REMARK  status: ('A' for Active; 'I' for Inactive)
REMARK    1  A    between atoms: N1_1  and  C1_4 
REMARK    2  A    between atoms: C3_8  and  N3_9 
REMARK    3  A    between atoms: N3_9  and  N4_11 
ROOT
HETATM    1  C1  UNL     1      30.757  66.867  73.590  1.00  0.00     0.677 A 
HETATM    2  N2  UNL     1      29.771  65.958  73.496  1.00  0.00    -0.198 N 
ATOM      3  H2  UNL     1      29.753  65.148  72.877  1.00  0.00     0.183 HD
HETATM    4  C2  UNL     1      28.790  66.323  74.389  1.00  0.00     0.156 A 
HETATM    5  C3  UNL     1      29.215  67.468  75.018  1.00  0.00     0.153 A 
HETATM    6  N7  UNL     1      30.435  67.790  74.511  1.00  0.00    -0.174 N 
ATOM      7  H7  UNL     1      31.005  68.592  74.781  1.00  0.00     0.186 HD
ENDROOT
BRANCH   5   8
HETATM    8  N3  UNL     1      28.505  68.169  76.005  1.00  0.00    -0.262 N 
ATOM      9  H3  UNL     1      27.867  67.626  76.587  1.00  0.00     0.191 HD
BRANCH   8  10
HETATM   10  N4  UNL     1      28.587  69.538  76.269  1.00  0.00    -0.190 N 
HETATM   11  C4  UNL     1      29.574  70.329  75.752  1.00  0.00     0.228 A 
HETATM   12  N5  UNL     1      29.372  71.575  76.189  1.00  0.00    -0.345 N 
HETATM   13  C5  UNL     1      28.263  71.569  76.979  1.00  0.00     0.200 A 
ATOM     14  H5  UNL     1      29.948  72.388  75.971  1.00  0.00     0.167 HD
HETATM   15  N6  UNL     1      27.806  70.308  77.007  1.00  0.00    -0.274 N 
ATOM     16  H6  UNL     1      26.983  69.992  77.519  1.00  0.00     0.190 HD
ENDBRANCH   8  10
ENDBRANCH   5   8
BRANCH   1  17
HETATM   17  N1  UNL     1      31.846  66.816  72.875  1.00  0.00    -0.234 N 
ATOM     18  H12 UNL     1      31.939  67.034  71.883  1.00  0.00     0.174 HD
ATOM     19  H11 UNL     1      32.752  66.543  73.255  1.00  0.00     0.174 HD
ENDBRANCH   1  17
TORSDOF 3
ENDMDL
MODEL 4
REMARK VINA RESULT: -0.901102176      1.962      5.031
REMARK  3 active torsions:
REMARK  status: ('A' for Active; 'I' for Inactive)
REMARK    1  A    between atoms: N1_1  and  C1_4 
REMARK    2  A    between atoms: C3_8  and  N3_9 
REMARK    3  A    between atoms: N3_9  and  N4_11 
ROOT
HETATM    1  C1  UNL     1      28.154  65.499  74.572  1.00  0.00     0.677 A 
HETATM    2  N2  UNL     1      29.319  65.158  73.995  1.00  0.00    -0.198 N 
ATOM      3  H2  UNL     1      29.581  64.228  73.668  1.00  0.00     0.183 HD
HETATM    4  C2  UNL     1      30.092  66.294  73.925  1.00  0.00     0.156 A 
HETATM    5  C3  UNL     1      29.360  67.320  74.472  1.00  0.00     0.153 A 
HETATM    6  N7  UNL     1      28.163  66.809  74.868  1.00  0.00    -0.174 N 
ATOM      7  H7  UNL     1      27.406  67.330  75.312  1.00  0.00     0.186 HD
ENDROOT
BRANCH   5   8
HETATM    8  N3  UNL     1      29.787  68.651  74.595  1.00  0.00    -0.262 N 
ATOM      9  H3  UNL     1      30.533  68.955  73.969  1.00  0.00     0.191 HD
BRANCH   8  10
HETATM   10  N4  UNL     1      29.289  69.601  75.490  1.00  0.00    -0.190 N 
HETATM   11  C4  UNL     1      28.161  69.392  76.232  1.00  0.00     0.228 A 
HETATM   12  N5  UNL     1      27.956  70.479  76.980  1.00  0.00    -0.345 N 
HETATM   13  C5  UNL     1      28.950  71.369  76.711  1.00  0.00     0.200 A 
ATOM     14  H5  UNL     1      27.189  70.618  77.639  1.00  0.00     0.167 HD
HETATM   15  N6  UNL     1      29.749  70.801  75.795  1.00  0.00    -0.274 N 
ATOM     16  H6  UNL     1      30.584  71.231  75.396  1.00  0.00     0.190 HD
ENDBRANCH   8  10
ENDBRANCH   5   8
BRANCH   1  17
HETATM   17  N1  UNL     1      27.189  64.652  74.791  1.00  0.00    -0.234 N 
ATOM     18  H12 UNL     1      27.281  63.669  75.050  1.00  0.00     0.174 HD
ATOM     19  H11 UNL     1      26.202  64.898  74.722  1.00  0.00     0.174 HD
ENDBRANCH   1  17
TORSDOF 3
ENDMDL
MODEL 5
REMARK VINA RESULT: -0.889679989      2.916      4.646
REMARK  3 active torsions:
REMARK  status: ('A' for Active; 'I' for Inactive)
REMARK    1  A    between atoms: N1_1  and  C1_4 
REMARK    2  A    between atoms: C3_8  and  N3_9 
REMARK    3  A    between atoms: N3_9  and  N4_11 
ROOT
HETATM    1  C1  UNL     1      27.404  64.796  74.966  1.00  0.00     0.677 A 
HETATM    2  N2  UNL     1      28.612  64.605  74.407  1.00  0.00    -0.198 N 
ATOM      3  H2  UNL     1      29.037  63.706  74.181  1.00  0.00     0.183 HD
HETATM    4  C2  UNL     1      29.168  65.845  74.196  1.00  0.00     0.156 A 
HETATM    5  C3  UNL     1      28.264  66.779  74.640  1.00  0.00     0.153 A 
HETATM    6  N7  UNL     1      27.178  66.112  75.114  1.00  0.00    -0.174 N 
ATOM      7  H7  UNL     1      26.340  66.535  75.512  1.00  0.00     0.186 HD
ENDROOT
BRANCH   5   8
HETATM    8  N3  UNL     1      28.444  68.171  74.606  1.00  0.00    -0.262 N 
ATOM      9  H3  UNL     1      27.952  68.716  75.314  1.00  0.00     0.191 HD
BRANCH   8  10
HETATM   10  N4  UNL     1      29.231  68.882  73.697  1.00  0.00    -0.190 N 
HETATM   11  C4  UNL     1      30.548  69.163  73.927  1.00  0.00     0.228 A 
HETATM   12  N5  UNL     1      31.010  69.849  72.879  1.00  0.00    -0.345 N 
HETATM   13  C5  UNL     1      29.988  70.001  71.992  1.00  0.00     0.200 A 
ATOM     14  H5  UNL     1      31.961  70.198  72.762  1.00  0.00     0.167 HD
HETATM   15  N6  UNL     1      28.914  69.398  72.523  1.00  0.00    -0.274 N 
ATOM     16  H6  UNL     1      27.993  69.345  72.086  1.00  0.00     0.190 HD
ENDBRANCH   8  10
ENDBRANCH   5   8
BRANCH   1  17
HETATM   17  N1  UNL     1      26.607  63.820  75.296  1.00  0.00    -0.234 N 
ATOM     18  H12 UNL     1      26.285  63.580  76.234  1.00  0.00     0.174 HD
ATOM     19  H11 UNL     1      26.210  63.169  74.619  1.00  0.00     0.174 HD
ENDBRANCH   1  17
TORSDOF 3
ENDMDL
