MODEL 1
REMARK VINA RESULT: -3.797764589      0.000      0.000
REMARK  3 active torsions:
REMARK  status: ('A' for Active; 'I' for Inactive)
REMARK    1  A    between atoms: C3_5  and  N2_6 
REMARK    2  A    between atoms: N2_6  and  N3_8 
REMARK    3  A    between atoms: N3_8  and  C4_10 
ROOT
HETATM    1  N2  UNL     1      28.704  69.637  72.912  1.00  0.00    -0.270 N 
ATOM      2  H2  UNL     1      28.035  70.293  72.508  1.00  0.00     0.189 HD
ENDROOT
BRANCH   1   3
HETATM    3  C3  UNL     1      28.343  68.878  74.058  1.00  0.00     0.135 A 
HETATM    4  N1  UNL     1      27.721  67.689  73.968  1.00  0.00    -0.349 N 
HETATM    5  C2  UNL     1      27.390  66.990  75.068  1.00  0.00     0.106 A 
ATOM      6  H1  UNL     1      27.496  67.311  73.048  1.00  0.00     0.167 HD
HETATM    7  C1  UNL     1      27.670  67.456  76.336  1.00  0.00     0.104 A 
HETATM    8  N7  UNL     1      28.290  68.639  76.439  1.00  0.00    -0.371 N 
HETATM    9  C5  UNL     1      28.621  69.337  75.336  1.00  0.00     0.137 A 
ATOM     10  H7  UNL     1      28.513  69.015  77.361  1.00  0.00     0.164 HD
ENDBRANCH   1   3
BRANCH   1  11
HETATM   11  N3  UNL     1      29.956  69.494  72.341  1.00  0.00    -0.128 N 
ATOM     12  H3  UNL     1      30.289  70.194  71.678  1.00  0.00     0.205 HD
BRANCH  11  13
HETATM   13  C4  UNL     1      30.791  68.379  72.667  1.00  0.00     0.728 A 
HETATM   14  N4  UNL     1      31.691  68.070  73.612  1.00  0.00    -0.114 N 
HETATM   15  N5  UNL     1      31.892  66.883  73.080  1.00  0.00    -0.214 N 
ATOM     16  H4  UNL     1      32.070  68.561  74.421  1.00  0.00     0.207 HD
HETATM   17  N6  UNL     1      31.025  67.161  72.157  1.00  0.00    -0.114 N 
ATOM     18  H5  UNL     1      32.482  66.081  73.301  1.00  0.00     0.209 HD
ATOM     19  H6  UNL     1      30.661  66.649  71.354  1.00  0.00     0.207 HD
ENDBRANCH  11  13
ENDBRANCH   1  11
TORSDOF 3
ENDMDL
MODEL 2
REMARK VINA RESULT: -3.678583795      1.323      2.751
REMARK  3 active torsions:
REMARK  status: ('A' for Active; 'I' for Inactive)
REMARK    1  A    between atoms: C3_5  and  N2_6 
REMARK    2  A    between atoms: N2_6  and  N3_8 
REMARK    3  A    between atoms: N3_8  and  C4_10 
ROOT
HETATM    1  N2  UNL     1      31.029  66.422  74.323  1.00  0.00    -0.270 N 
ATOM      2  H2  UNL     1      31.552  65.642  74.723  1.00  0.00     0.189 HD
ENDROOT
BRANCH   1   3
HETATM    3  C3  UNL     1      29.737  66.736  74.825  1.00  0.00     0.135 A 
HETATM    4  N1  UNL     1      29.530  67.722  75.716  1.00  0.00    -0.349 N 
HETATM    5  C2  UNL     1      28.297  67.999  76.176  1.00  0.00     0.106 A 
ATOM      6  H1  UNL     1      30.324  68.270  76.050  1.00  0.00     0.167 HD
HETATM    7  C1  UNL     1      27.190  67.289  75.758  1.00  0.00     0.104 A 
HETATM    8  N7  UNL     1      27.383  66.305  74.871  1.00  0.00    -0.371 N 
HETATM    9  C5  UNL     1      28.619  66.030  74.412  1.00  0.00     0.137 A 
ATOM     10  H7  UNL     1      26.587  65.759  74.540  1.00  0.00     0.164 HD
ENDBRANCH   1   3
BRANCH   1  11
HETATM   11  N3  UNL     1      31.583  67.165  73.297  1.00  0.00    -0.128 N 
ATOM     12  H3  UNL     1      32.488  66.894  72.912  1.00  0.00     0.205 HD
BRANCH  11  13
HETATM   13  C4  UNL     1      30.906  68.308  72.767  1.00  0.00     0.728 A 
HETATM   14  N4  UNL     1      30.003  68.556  71.806  1.00  0.00    -0.114 N 
HETATM   15  N5  UNL     1      30.017  69.844  72.078  1.00  0.00    -0.214 N 
ATOM     16  H4  UNL     1      29.504  67.977  71.132  1.00  0.00     0.207 HD
HETATM   17  N6  UNL     1      30.890  69.627  73.012  1.00  0.00    -0.114 N 
ATOM     18  H5  UNL     1      29.541  70.667  71.710  1.00  0.00     0.209 HD
ATOM     19  H6  UNL     1      31.377  70.228  73.677  1.00  0.00     0.207 HD
ENDBRANCH  11  13
ENDBRANCH   1  11
TORSDOF 3
ENDMDL
MODEL 3
REMARK VINA RESULT: -3.655765504      1.300      2.300
REMARK  3 active torsions:
REMARK  status: ('A' for Active; 'I' for Inactive)
REMARK    1  A    between atoms: C3_5  and  N2_6 
REMARK    2  A    between atoms: N2_6  and  N3_8 
REMARK    3  A    between atoms: N3_8  and  C4_10 
ROOT
HETATM    1  N2  UNL     1      30.973  66.254  74.036  1.00  0.00    -0.270 N 
ATOM      2  H2  UNL     1      31.450  65.398  74.322  1.00  0.00     0.189 HD
ENDROOT
BRANCH   1   3
HETATM    3  C3  UNL     1      29.735  66.607  74.640  1.00  0.00     0.135 A 
HETATM    4  N1  UNL     1      28.578  66.001  74.318  1.00  0.00    -0.349 N 
HETATM    5  C2  UNL     1      27.420  66.354  74.904  1.00  0.00     0.106 A 
ATOM      6  H1  UNL     1      28.579  65.260  73.617  1.00  0.00     0.167 HD
HETATM    7  C1  UNL     1      27.363  67.349  75.858  1.00  0.00     0.104 A 
HETATM    8  N7  UNL     1      28.509  67.960  76.186  1.00  0.00    -0.371 N 
HETATM    9  C5  UNL     1      29.667  67.604  75.598  1.00  0.00     0.137 A 
ATOM     10  H7  UNL     1      28.505  68.700  76.888  1.00  0.00     0.164 HD
ENDBRANCH   1   3
BRANCH   1  11
HETATM   11  N3  UNL     1      31.535  67.061  73.062  1.00  0.00    -0.128 N 
ATOM     12  H3  UNL     1      32.420  66.790  72.635  1.00  0.00     0.205 HD
BRANCH  11  13
HETATM   13  C4  UNL     1      30.892  68.269  72.647  1.00  0.00     0.728 A 
HETATM   14  N4  UNL     1      30.939  69.569  72.976  1.00  0.00    -0.114 N 
HETATM   15  N5  UNL     1      30.023  69.864  72.078  1.00  0.00    -0.214 N 
ATOM     16  H4  UNL     1      31.473  70.113  73.652  1.00  0.00     0.207 HD
HETATM   17  N6  UNL     1      29.961  68.613  71.745  1.00  0.00    -0.114 N 
ATOM     18  H5  UNL     1      29.556  70.718  71.773  1.00  0.00     0.209 HD
ATOM     19  H6  UNL     1      29.415  68.090  71.060  1.00  0.00     0.207 HD
ENDBRANCH  11  13
ENDBRANCH   1  11
TORSDOF 3
ENDMDL
MODEL 4
REMARK VINA RESULT: -3.558755690      0.780      1.349
REMARK  3 active torsions:
REMARK  status: ('A' for Active; 'I' for Inactive)
REMARK    1  A    between atoms: C3_5  and  N2_6 
REMARK    2  A    between atoms: N2_6  and  N3_8 
REMARK    3  A    between atoms: N3_8  and  C4_10 
ROOT
HETATM    1  N2  UNL     1      28.589  69.619  72.827  1.00  0.00    -0.270 N 
ATOM      2  H2  UNL     1      27.904  70.269  72.439  1.00  0.00     0.189 HD
ENDROOT
BRANCH   1   3
HETATM    3  C3  UNL     1      28.265  68.863  73.987  1.00  0.00     0.135 A 
HETATM    4  N1  UNL     1      28.505  69.314  75.231  1.00  0.00    -0.349 N 
HETATM    5  C2  UNL     1      28.189  68.579  76.312  1.00  0.00     0.106 A 
ATOM      6  H1  UNL     1      28.935  70.231  75.357  1.00  0.00     0.167 HD
HETATM    7  C1  UNL     1      27.607  67.333  76.197  1.00  0.00     0.104 A 
HETATM    8  N7  UNL     1      27.363  66.874  74.963  1.00  0.00    -0.371 N 
HETATM    9  C5  UNL     1      27.680  67.612  73.883  1.00  0.00     0.137 A 
ATOM     10  H7  UNL     1      26.933  65.956  74.841  1.00  0.00     0.164 HD
ENDBRANCH   1   3
BRANCH   1  11
HETATM   11  N3  UNL     1      29.826  69.481  72.222  1.00  0.00    -0.128 N 
ATOM     12  H3  UNL     1      30.109  70.145  71.501  1.00  0.00     0.205 HD
BRANCH  11  13
HETATM   13  C4  UNL     1      30.712  68.422  72.593  1.00  0.00     0.728 A 
HETATM   14  N4  UNL     1      31.585  68.174  73.581  1.00  0.00    -0.114 N 
HETATM   15  N5  UNL     1      31.885  67.000  73.066  1.00  0.00    -0.214 N 
ATOM     16  H4  UNL     1      31.894  68.690  74.405  1.00  0.00     0.207 HD
HETATM   17  N6  UNL     1      31.046  67.220  72.103  1.00  0.00    -0.114 N 
ATOM     18  H5  UNL     1      32.513  66.238  73.320  1.00  0.00     0.209 HD
ATOM     19  H6  UNL     1      30.753  66.684  71.286  1.00  0.00     0.207 HD
ENDBRANCH  11  13
ENDBRANCH   1  11
TORSDOF 3
ENDMDL
MODEL 5
REMARK VINA RESULT: -3.112261018      1.793      3.773
REMARK  3 active torsions:
REMARK  status: ('A' for Active; 'I' for Inactive)
REMARK    1  A    between atoms: C3_5  and  N2_6 
REMARK    2  A    between atoms: N2_6  and  N3_8 
REMARK    3  A    between atoms: N3_8  and  C4_10 
ROOT
HETATM    1  N2  UNL     1      28.488  68.599  75.806  1.00  0.00    -0.270 N 
ATOM      2  H2  UNL     1      28.558  69.250  76.588  1.00  0.00     0.189 HD
ENDROOT
BRANCH   1   3
HETATM    3  C3  UNL     1      28.996  68.971  74.531  1.00  0.00     0.135 A 
HETATM    4  N1  UNL     1      28.202  69.117  73.455  1.00  0.00    -0.349 N 
HETATM    5  C2  UNL     1      28.708  69.470  72.259  1.00  0.00     0.106 A 
ATOM      6  H1  UNL     1      27.199  68.957  73.547  1.00  0.00     0.167 HD
HETATM    7  C1  UNL     1      30.057  69.696  72.079  1.00  0.00     0.104 A 
HETATM    8  N7  UNL     1      30.857  69.554  73.144  1.00  0.00    -0.371 N 
HETATM    9  C5  UNL     1      30.348  69.201  74.340  1.00  0.00     0.137 A 
ATOM     10  H7  UNL     1      31.860  69.714  73.048  1.00  0.00     0.164 HD
ENDBRANCH   1   3
BRANCH   1  11
HETATM   11  N3  UNL     1      27.900  67.361  75.993  1.00  0.00    -0.128 N 
ATOM     12  H3  UNL     1      27.235  67.231  76.756  1.00  0.00     0.205 HD
BRANCH  11  13
HETATM   13  C4  UNL     1      28.210  66.260  75.133  1.00  0.00     0.728 A 
HETATM   14  N4  UNL     1      27.592  65.154  74.693  1.00  0.00    -0.114 N 
HETATM   15  N5  UNL     1      28.646  64.807  73.985  1.00  0.00    -0.214 N 
ATOM     16  H4  UNL     1      26.671  64.745  74.845  1.00  0.00     0.207 HD
HETATM   17  N6  UNL     1      29.262  65.870  74.398  1.00  0.00    -0.114 N 
ATOM     18  H5  UNL     1      28.880  64.028  73.370  1.00  0.00     0.209 HD
ATOM     19  H6  UNL     1      30.189  66.259  74.229  1.00  0.00     0.207 HD
ENDBRANCH  11  13
ENDBRANCH   1  11
TORSDOF 3
ENDMDL
