MODEL 1
REMARK VINA RESULT: -3.911428194      0.000      0.000
REMARK  4 active torsions:
REMARK  status: ('A' for Active; 'I' for Inactive)
REMARK    1  A    between atoms: N1_1  and  C1_4 
REMARK    2  A    between atoms: C2_7  and  N3_8 
REMARK    3  A    between atoms: N3_8  and  N4_10 
REMARK    4  A    between atoms: N4_10  and  C3_11 
ROOT
HETATM    1  C1  UNL     1      28.285  70.896  76.754  1.00  0.00     0.699 A 
HETATM    2  N2  UNL     1      27.997  69.592  76.539  1.00  0.00    -0.151 N 
ATOM      3  H2  UNL     1      27.164  69.113  76.881  1.00  0.00     0.188 HD
HETATM    4  C2  UNL     1      28.970  69.021  75.806  1.00  0.00     0.274 A 
HETATM    5  O1  UNL     1      29.847  69.971  75.579  1.00  0.00    -0.184 OA
HETATM    6  N5  UNL     1      29.473  71.093  76.126  1.00  0.00    -0.088 N 
ATOM      7  H5  UNL     1      29.987  71.973  76.088  1.00  0.00     0.214 HD
ENDROOT
BRANCH   4   8
HETATM    8  N3  UNL     1      29.001  67.658  75.387  1.00  0.00    -0.267 N 
ATOM      9  H3  UNL     1      28.490  66.963  75.932  1.00  0.00     0.186 HD
BRANCH   8  10
HETATM   10  N4  UNL     1      29.700  67.248  74.266  1.00  0.00    -0.133 NA
BRANCH  10  11
HETATM   11  C3  UNL     1      28.851  67.358  73.101  1.00  0.00     0.099 C 
HETATM   12  C4  UNL     1      28.751  68.773  72.531  1.00  0.00     0.023 C 
HETATM   13  C5  UNL     1      27.290  68.426  72.213  1.00  0.00     0.003 C 
HETATM   14  C6  UNL     1      27.364  67.474  73.419  1.00  0.00     0.023 C 
ENDBRANCH  10  11
ENDBRANCH   8  10
ENDBRANCH   4   8
BRANCH   1  15
HETATM   15  N1  UNL     1      27.601  71.795  77.407  1.00  0.00    -0.233 N 
ATOM     16  H12 UNL     1      27.759  72.802  77.388  1.00  0.00     0.174 HD
ATOM     17  H11 UNL     1      26.807  71.671  78.035  1.00  0.00     0.174 HD
ENDBRANCH   1  15
TORSDOF 4
ENDMDL
MODEL 2
REMARK VINA RESULT: -3.752452477      1.295      1.915
REMARK  4 active torsions:
REMARK  status: ('A' for Active; 'I' for Inactive)
REMARK    1  A    between atoms: N1_1  and  C1_4 
REMARK    2  A    between atoms: C2_7  and  N3_8 
REMARK    3  A    between atoms: N3_8  and  N4_10 
REMARK    4  A    between atoms: N4_10  and  C3_11 
ROOT
HETATM    1  C1  UNL     1      28.168  71.056  76.777  1.00  0.00     0.699 A 
HETATM    2  N2  UNL     1      27.740  69.784  76.610  1.00  0.00    -0.151 N 
ATOM      3  H2  UNL     1      26.848  69.418  76.941  1.00  0.00     0.188 HD
HETATM    4  C2  UNL     1      28.666  69.071  75.942  1.00  0.00     0.274 A 
HETATM    5  O1  UNL     1      29.652  69.905  75.706  1.00  0.00    -0.184 OA
HETATM    6  N5  UNL     1      29.391  71.087  76.187  1.00  0.00    -0.088 N 
ATOM      7  H5  UNL     1      30.003  71.901  76.130  1.00  0.00     0.214 HD
ENDROOT
BRANCH   4   8
HETATM    8  N3  UNL     1      28.554  67.695  75.586  1.00  0.00    -0.267 N 
ATOM      9  H3  UNL     1      28.759  66.985  76.289  1.00  0.00     0.186 HD
BRANCH   8  10
HETATM   10  N4  UNL     1      28.178  67.291  74.317  1.00  0.00    -0.133 NA
BRANCH  10  11
HETATM   11  C3  UNL     1      29.328  66.760  73.619  1.00  0.00     0.099 C 
HETATM   12  C4  UNL     1      30.556  66.553  74.506  1.00  0.00     0.023 C 
HETATM   13  C5  UNL     1      31.378  66.978  73.280  1.00  0.00     0.003 C 
HETATM   14  C6  UNL     1      30.148  67.809  72.875  1.00  0.00     0.023 C 
ENDBRANCH  10  11
ENDBRANCH   8  10
ENDBRANCH   4   8
BRANCH   1  15
HETATM   15  N1  UNL     1      27.570  72.057  77.363  1.00  0.00    -0.233 N 
ATOM     16  H12 UNL     1      27.347  72.957  76.938  1.00  0.00     0.174 HD
ATOM     17  H11 UNL     1      27.221  72.130  78.319  1.00  0.00     0.174 HD
ENDBRANCH   1  15
TORSDOF 4
ENDMDL
MODEL 3
REMARK VINA RESULT: -3.411541369      1.242      1.605
REMARK  4 active torsions:
REMARK  status: ('A' for Active; 'I' for Inactive)
REMARK    1  A    between atoms: N1_1  and  C1_4 
REMARK    2  A    between atoms: C2_7  and  N3_8 
REMARK    3  A    between atoms: N3_8  and  N4_10 
REMARK    4  A    between atoms: N4_10  and  C3_11 
ROOT
HETATM    1  C1  UNL     1      28.538  69.967  76.432  1.00  0.00     0.699 A 
HETATM    2  N2  UNL     1      29.476  69.700  75.494  1.00  0.00    -0.151 N 
ATOM      3  H2  UNL     1      30.052  70.400  75.027  1.00  0.00     0.188 HD
HETATM    4  C2  UNL     1      29.537  68.375  75.268  1.00  0.00     0.274 A 
HETATM    5  O1  UNL     1      28.640  67.839  76.063  1.00  0.00    -0.184 OA
HETATM    6  N5  UNL     1      28.030  68.751  76.764  1.00  0.00    -0.088 N 
ATOM      7  H5  UNL     1      27.294  68.582  77.449  1.00  0.00     0.214 HD
ENDROOT
BRANCH   4   8
HETATM    8  N3  UNL     1      30.413  67.731  74.345  1.00  0.00    -0.267 N 
ATOM      9  H3  UNL     1      30.841  66.844  74.608  1.00  0.00     0.186 HD
BRANCH   8  10
HETATM   10  N4  UNL     1      30.701  68.271  73.105  1.00  0.00    -0.133 NA
BRANCH  10  11
HETATM   11  C3  UNL     1      29.535  68.178  72.254  1.00  0.00     0.099 C 
HETATM   12  C4  UNL     1      28.543  69.329  72.425  1.00  0.00     0.023 C 
HETATM   13  C5  UNL     1      27.449  68.278  72.191  1.00  0.00     0.003 C 
HETATM   14  C6  UNL     1      28.438  67.267  72.796  1.00  0.00     0.023 C 
ENDBRANCH  10  11
ENDBRANCH   8  10
ENDBRANCH   4   8
BRANCH   1  15
HETATM   15  N1  UNL     1      28.176  71.116  76.933  1.00  0.00    -0.233 N 
ATOM     16  H12 UNL     1      27.819  71.915  76.410  1.00  0.00     0.174 HD
ATOM     17  H11 UNL     1      28.176  71.423  77.906  1.00  0.00     0.174 HD
ENDBRANCH   1  15
TORSDOF 4
ENDMDL
MODEL 4
REMARK VINA RESULT: -3.408420213      1.512      2.345
REMARK  4 active torsions:
REMARK  status: ('A' for Active; 'I' for Inactive)
REMARK    1  A    between atoms: N1_1  and  C1_4 
REMARK    2  A    between atoms: C2_7  and  N3_8 
REMARK    3  A    between atoms: N3_8  and  N4_10 
REMARK    4  A    between atoms: N4_10  and  C3_11 
ROOT
HETATM    1  C1  UNL     1      28.047  68.211  76.325  1.00  0.00     0.699 A 
HETATM    2  N2  UNL     1      29.004  67.883  75.426  1.00  0.00    -0.151 N 
ATOM      3  H2  UNL     1      29.139  66.953  75.029  1.00  0.00     0.188 HD
HETATM    4  C2  UNL     1      29.750  68.963  75.133  1.00  0.00     0.274 A 
HETATM    5  O1  UNL     1      29.251  69.943  75.852  1.00  0.00    -0.184 OA
HETATM    6  N5  UNL     1      28.244  69.532  76.569  1.00  0.00    -0.088 N 
ATOM      7  H5  UNL     1      27.694  70.107  77.206  1.00  0.00     0.214 HD
ENDROOT
BRANCH   4   8
HETATM    8  N3  UNL     1      30.847  68.991  74.224  1.00  0.00    -0.267 N 
ATOM      9  H3  UNL     1      31.679  68.441  74.437  1.00  0.00     0.186 HD
BRANCH   8  10
HETATM   10  N4  UNL     1      30.821  69.741  73.061  1.00  0.00    -0.133 NA
BRANCH  10  11
HETATM   11  C3  UNL     1      29.870  69.165  72.136  1.00  0.00     0.099 C 
HETATM   12  C4  UNL     1      28.407  69.395  72.520  1.00  0.00     0.023 C 
HETATM   13  C5  UNL     1      28.151  67.989  71.957  1.00  0.00     0.003 C 
HETATM   14  C6  UNL     1      29.604  67.679  72.357  1.00  0.00     0.023 C 
ENDBRANCH  10  11
ENDBRANCH   8  10
ENDBRANCH   4   8
BRANCH   1  15
HETATM   15  N1  UNL     1      27.124  67.459  76.858  1.00  0.00    -0.233 N 
ATOM     16  H12 UNL     1      26.916  66.492  76.608  1.00  0.00     0.174 HD
ATOM     17  H11 UNL     1      26.461  67.681  77.601  1.00  0.00     0.174 HD
ENDBRANCH   1  15
TORSDOF 4
ENDMDL
MODEL 5
REMARK VINA RESULT: -3.039213273      2.416      3.642
REMARK  4 active torsions:
REMARK  status: ('A' for Active; 'I' for Inactive)
REMARK    1  A    between atoms: N1_1  and  C1_4 
REMARK    2  A    between atoms: C2_7  and  N3_8 
REMARK    3  A    between atoms: N3_8  and  N4_10 
REMARK    4  A    between atoms: N4_10  and  C3_11 
ROOT
HETATM    1  C1  UNL     1      31.445  67.220  73.574  1.00  0.00     0.699 A 
HETATM    2  N2  UNL     1      30.312  66.700  74.098  1.00  0.00    -0.151 N 
ATOM      3  H2  UNL     1      30.013  65.730  73.998  1.00  0.00     0.188 HD
HETATM    4  C2  UNL     1      29.637  67.651  74.769  1.00  0.00     0.274 A 
HETATM    5  O1  UNL     1      30.356  68.744  74.653  1.00  0.00    -0.184 OA
HETATM    6  N5  UNL     1      31.431  68.525  73.951  1.00  0.00    -0.088 N 
ATOM      7  H5  UNL     1      32.144  69.217  73.724  1.00  0.00     0.214 HD
ENDROOT
BRANCH   4   8
HETATM    8  N3  UNL     1      28.400  67.463  75.452  1.00  0.00    -0.267 N 
ATOM      9  H3  UNL     1      28.403  67.005  76.363  1.00  0.00     0.186 HD
BRANCH   8  10
HETATM   10  N4  UNL     1      27.194  67.882  74.918  1.00  0.00    -0.133 NA
BRANCH  10  11
HETATM   11  C3  UNL     1      27.204  67.682  73.486  1.00  0.00     0.099 C 
HETATM   12  C4  UNL     1      27.928  68.781  72.707  1.00  0.00     0.023 C 
HETATM   13  C5  UNL     1      26.855  68.574  71.629  1.00  0.00     0.003 C 
HETATM   14  C6  UNL     1      25.932  68.141  72.781  1.00  0.00     0.023 C 
ENDBRANCH  10  11
ENDBRANCH   8  10
ENDBRANCH   4   8
BRANCH   1  15
HETATM   15  N1  UNL     1      32.371  66.634  72.864  1.00  0.00    -0.233 N 
ATOM     16  H12 UNL     1      32.663  65.661  72.942  1.00  0.00     0.174 HD
ATOM     17  H11 UNL     1      32.955  67.019  72.121  1.00  0.00     0.174 HD
ENDBRANCH   1  15
TORSDOF 4
ENDMDL
