MODEL 1
REMARK VINA RESULT: -9.216768214      0.000      0.000
REMARK  1 active torsions:
REMARK  status: ('A' for Active; 'I' for Inactive)
REMARK       I    between atoms: C3_7  and  N2_8 
REMARK    1  A    between atoms: N2_8  and  C4_10 
ROOT
HETATM    1  C1  UNL     1      20.995   9.130  17.720  1.00  0.00     0.082 C 
HETATM    2  C2  UNL     1      22.335   8.490  17.775  1.00  0.00     0.202 C 
HETATM    3  O1  UNL     1      22.861   8.329  19.031  1.00  0.00    -0.176 OA
HETATM    4  O2  UNL     1      22.312   7.433  19.782  1.00  0.00    -0.095 OA
HETATM    5  N1  UNL     1      23.087   6.320  19.927  1.00  0.00    -0.065 N 
ATOM      6  H1  UNL     1      23.128   5.922  20.865  1.00  0.00     0.216 HD
HETATM    7  C3  UNL     1      23.855   5.640  18.916  1.00  0.00     0.698 C 
HETATM    8  N2  UNL     1      24.468   4.478  19.372  1.00  0.00    -0.220 N 
ATOM      9  H2  UNL     1      25.463   4.521  19.590  1.00  0.00     0.178 HD
HETATM   10  N3  UNL     1      24.123   5.854  17.650  1.00  0.00    -0.192 N 
ATOM     11  H3  UNL     1      24.719   5.162  17.196  1.00  0.00     0.181 HD
HETATM   12  C9  UNL     1      23.675   6.951  16.818  1.00  0.00     0.154 C 
HETATM   13  C10 UNL     1      23.747   6.699  15.360  1.00  0.00     0.061 C 
HETATM   14  C11 UNL     1      23.602   8.026  14.661  1.00  0.00     0.005 C 
HETATM   15  C12 UNL     1      22.909   9.075  15.470  1.00  0.00     0.010 C 
HETATM   16  C13 UNL     1      23.356   9.217  16.880  1.00  0.00     0.055 C 
HETATM   17  C14 UNL     1      24.500   8.211  17.087  1.00  0.00     0.071 C 
HETATM   18  O3  UNL     1      22.349   7.255  17.133  1.00  0.00    -0.321 OA
ENDROOT
BRANCH   8  19
HETATM   19  C4  UNL     1      23.803   3.226  19.558  1.00  0.00     0.099 C 
HETATM   20  C5  UNL     1      24.342   2.429  20.730  1.00  0.00     0.026 C 
HETATM   21  C6  UNL     1      23.650   1.089  20.514  1.00  0.00     0.002 C 
HETATM   22  C7  UNL     1      23.391   0.989  19.025  1.00  0.00     0.002 C 
HETATM   23  C8  UNL     1      23.999   2.258  18.417  1.00  0.00     0.026 C 
ENDBRANCH   8  19
TORSDOF 1
ENDMDL
MODEL 2
REMARK VINA RESULT: -8.831389351      2.182      6.478
REMARK  1 active torsions:
REMARK  status: ('A' for Active; 'I' for Inactive)
REMARK       I    between atoms: C3_7  and  N2_8 
REMARK    1  A    between atoms: N2_8  and  C4_10 
ROOT
HETATM    1  C1  UNL     1      23.545   1.025  18.619  1.00  0.00     0.082 C 
HETATM    2  C2  UNL     1      24.098   2.361  18.961  1.00  0.00     0.202 C 
HETATM    3  O1  UNL     1      25.106   2.809  18.145  1.00  0.00    -0.176 OA
HETATM    4  O2  UNL     1      24.771   3.164  16.949  1.00  0.00    -0.095 OA
HETATM    5  N1  UNL     1      24.792   4.517  16.775  1.00  0.00    -0.065 N 
ATOM      6  H1  UNL     1      25.185   4.849  15.895  1.00  0.00     0.216 HD
HETATM    7  C3  UNL     1      24.326   5.532  17.684  1.00  0.00     0.698 C 
HETATM    8  N2  UNL     1      24.408   6.821  17.167  1.00  0.00    -0.220 N 
ATOM      9  H2  UNL     1      25.183   7.407  17.477  1.00  0.00     0.178 HD
HETATM   10  N3  UNL     1      23.836   5.537  18.901  1.00  0.00    -0.192 N 
ATOM     11  H3  UNL     1      23.592   6.452  19.280  1.00  0.00     0.181 HD
HETATM   12  C9  UNL     1      23.598   4.404  19.770  1.00  0.00     0.154 C 
HETATM   13  C10 UNL     1      22.639   4.653  20.872  1.00  0.00     0.061 C 
HETATM   14  C11 UNL     1      22.785   3.528  21.864  1.00  0.00     0.005 C 
HETATM   15  C12 UNL     1      23.358   2.273  21.291  1.00  0.00     0.010 C 
HETATM   16  C13 UNL     1      24.558   2.434  20.430  1.00  0.00     0.055 C 
HETATM   17  C14 UNL     1      24.900   3.933  20.420  1.00  0.00     0.071 C 
HETATM   18  O3  UNL     1      23.109   3.338  19.012  1.00  0.00    -0.321 OA
ENDROOT
BRANCH   8  19
HETATM   19  C4  UNL     1      23.484   7.383  16.233  1.00  0.00     0.099 C 
HETATM   20  C5  UNL     1      24.063   7.542  14.840  1.00  0.00     0.026 C 
HETATM   21  C6  UNL     1      22.981   8.380  14.170  1.00  0.00     0.002 C 
HETATM   22  C7  UNL     1      22.316   9.168  15.279  1.00  0.00     0.002 C 
HETATM   23  C8  UNL     1      23.079   8.801  16.557  1.00  0.00     0.026 C 
ENDBRANCH   8  19
TORSDOF 1
ENDMDL
MODEL 3
REMARK VINA RESULT: -8.659892512      2.509      6.075
REMARK  1 active torsions:
REMARK  status: ('A' for Active; 'I' for Inactive)
REMARK       I    between atoms: C3_7  and  N2_8 
REMARK    1  A    between atoms: N2_8  and  C4_10 
ROOT
HETATM    1  C1  UNL     1      21.895   2.821  20.876  1.00  0.00     0.082 C 
HETATM    2  C2  UNL     1      22.693   4.069  20.751  1.00  0.00     0.202 C 
HETATM    3  O1  UNL     1      23.843   3.962  20.011  1.00  0.00    -0.176 OA
HETATM    4  O2  UNL     1      23.702   3.829  18.734  1.00  0.00    -0.095 OA
HETATM    5  N1  UNL     1      24.032   4.960  18.046  1.00  0.00    -0.065 N 
ATOM      6  H1  UNL     1      24.565   4.822  17.188  1.00  0.00     0.216 HD
HETATM    7  C3  UNL     1      23.719   6.324  18.386  1.00  0.00     0.698 C 
HETATM    8  N2  UNL     1      24.126   7.243  17.424  1.00  0.00    -0.220 N 
ATOM      9  H2  UNL     1      24.979   7.772  17.605  1.00  0.00     0.178 HD
HETATM   10  N3  UNL     1      23.135   6.920  19.397  1.00  0.00    -0.192 N 
ATOM     11  H3  UNL     1      23.064   7.936  19.337  1.00  0.00     0.181 HD
HETATM   12  C9  UNL     1      22.580   6.314  20.589  1.00  0.00     0.154 C 
HETATM   13  C10 UNL     1      21.603   7.154  21.320  1.00  0.00     0.061 C 
HETATM   14  C11 UNL     1      21.411   6.545  22.685  1.00  0.00     0.005 C 
HETATM   15  C12 UNL     1      21.746   5.090  22.762  1.00  0.00     0.010 C 
HETATM   16  C13 UNL     1      23.025   4.678  22.127  1.00  0.00     0.055 C 
HETATM   17  C14 UNL     1      23.685   5.956  21.585  1.00  0.00     0.071 C 
HETATM   18  O3  UNL     1      21.940   5.122  20.242  1.00  0.00    -0.321 OA
ENDROOT
BRANCH   8  19
HETATM   19  C4  UNL     1      23.434   7.501  16.200  1.00  0.00     0.099 C 
HETATM   20  C5  UNL     1      24.304   7.323  14.971  1.00  0.00     0.026 C 
HETATM   21  C6  UNL     1      23.403   7.907  13.890  1.00  0.00     0.002 C 
HETATM   22  C7  UNL     1      22.519   8.921  14.586  1.00  0.00     0.002 C 
HETATM   23  C8  UNL     1      22.981   8.933  16.048  1.00  0.00     0.026 C 
ENDBRANCH   8  19
TORSDOF 1
ENDMDL
MODEL 4
REMARK VINA RESULT: -8.413056391      2.158      6.558
REMARK  1 active torsions:
REMARK  status: ('A' for Active; 'I' for Inactive)
REMARK       I    between atoms: C3_7  and  N2_8 
REMARK    1  A    between atoms: N2_8  and  C4_10 
ROOT
HETATM    1  C1  UNL     1      24.329   1.037  17.634  1.00  0.00     0.082 C 
HETATM    2  C2  UNL     1      24.395   2.200  18.556  1.00  0.00     0.202 C 
HETATM    3  O1  UNL     1      25.354   3.135  18.259  1.00  0.00    -0.176 OA
HETATM    4  O2  UNL     1      25.147   3.870  17.218  1.00  0.00    -0.095 OA
HETATM    5  N1  UNL     1      24.800   5.150  17.536  1.00  0.00    -0.065 N 
ATOM      6  H1  UNL     1      25.227   5.884  16.972  1.00  0.00     0.216 HD
HETATM    7  C3  UNL     1      23.903   5.590  18.573  1.00  0.00     0.698 C 
HETATM    8  N2  UNL     1      23.693   6.965  18.579  1.00  0.00    -0.220 N 
ATOM      9  H2  UNL     1      24.194   7.518  19.275  1.00  0.00     0.178 HD
HETATM   10  N3  UNL     1      23.226   5.001  19.529  1.00  0.00    -0.192 N 
ATOM     11  H3  UNL     1      22.661   5.612  20.119  1.00  0.00     0.181 HD
HETATM   12  C9  UNL     1      23.181   3.590  19.850  1.00  0.00     0.154 C 
HETATM   13  C10 UNL     1      22.012   3.170  20.657  1.00  0.00     0.061 C 
HETATM   14  C11 UNL     1      22.304   1.793  21.197  1.00  0.00     0.005 C 
HETATM   15  C12 UNL     1      23.313   1.024  20.408  1.00  0.00     0.010 C 
HETATM   16  C13 UNL     1      24.545   1.760  20.025  1.00  0.00     0.055 C 
HETATM   17  C14 UNL     1      24.428   3.169  20.630  1.00  0.00     0.071 C 
HETATM   18  O3  UNL     1      23.169   2.850  18.666  1.00  0.00    -0.321 OA
ENDROOT
BRANCH   8  19
HETATM   19  C4  UNL     1      22.825   7.660  17.680  1.00  0.00     0.099 C 
HETATM   20  C5  UNL     1      23.568   8.449  16.620  1.00  0.00     0.026 C 
HETATM   21  C6  UNL     1      22.431   9.261  16.011  1.00  0.00     0.002 C 
HETATM   22  C7  UNL     1      21.399   9.420  17.108  1.00  0.00     0.002 C 
HETATM   23  C8  UNL     1      22.003   8.739  18.342  1.00  0.00     0.026 C 
ENDBRANCH   8  19
TORSDOF 1
ENDMDL
MODEL 5
REMARK VINA RESULT: -8.319046828      0.685      1.052
REMARK  1 active torsions:
REMARK  status: ('A' for Active; 'I' for Inactive)
REMARK       I    between atoms: C3_7  and  N2_8 
REMARK    1  A    between atoms: N2_8  and  C4_10 
ROOT
HETATM    1  C1  UNL     1      20.907   8.481  18.038  1.00  0.00     0.082 C 
HETATM    2  C2  UNL     1      22.335   8.095  17.888  1.00  0.00     0.202 C 
HETATM    3  O1  UNL     1      23.007   7.856  19.060  1.00  0.00    -0.176 OA
HETATM    4  O2  UNL     1      22.698   6.776  19.698  1.00  0.00    -0.095 OA
HETATM    5  N1  UNL     1      23.661   5.815  19.605  1.00  0.00    -0.065 N 
ATOM      6  H1  UNL     1      23.864   5.300  20.462  1.00  0.00     0.216 HD
HETATM    7  C3  UNL     1      24.425   5.439  18.444  1.00  0.00     0.698 C 
HETATM    8  N2  UNL     1      25.270   4.355  18.662  1.00  0.00    -0.220 N 
ATOM      9  H2  UNL     1      26.261   4.548  18.808  1.00  0.00     0.178 HD
HETATM   10  N3  UNL     1      24.521   5.877  17.212  1.00  0.00    -0.192 N 
ATOM     11  H3  UNL     1      25.176   5.378  16.610  1.00  0.00     0.181 HD
HETATM   12  C9  UNL     1      23.811   6.981  16.601  1.00  0.00     0.154 C 
HETATM   13  C10 UNL     1      23.775   6.958  15.120  1.00  0.00     0.061 C 
HETATM   14  C11 UNL     1      23.336   8.322  14.654  1.00  0.00     0.005 C 
HETATM   15  C12 UNL     1      22.562   9.099  15.670  1.00  0.00     0.010 C 
HETATM   16  C13 UNL     1      23.121   9.117  17.046  1.00  0.00     0.055 C 
HETATM   17  C14 UNL     1      24.434   8.319  17.004  1.00  0.00     0.071 C 
HETATM   18  O3  UNL     1      22.492   6.988  17.059  1.00  0.00    -0.321 OA
ENDROOT
BRANCH   8  19
HETATM   19  C4  UNL     1      24.849   2.990  18.696  1.00  0.00     0.099 C 
HETATM   20  C5  UNL     1      23.392   2.802  18.319  1.00  0.00     0.026 C 
HETATM   21  C6  UNL     1      23.180   1.341  18.697  1.00  0.00     0.002 C 
HETATM   22  C7  UNL     1      24.169   1.049  19.806  1.00  0.00     0.002 C 
HETATM   23  C8  UNL     1      24.887   2.377  20.075  1.00  0.00     0.026 C 
ENDBRANCH   8  19
TORSDOF 1
ENDMDL
