MODEL 1
REMARK VINA RESULT: -6.477042800      0.000      0.000
REMARK  3 active torsions:
REMARK  status: ('A' for Active; 'I' for Inactive)
REMARK    1  A    between atoms: C4_5  and  N1_6 
REMARK    2  A    between atoms: N1_6  and  C5_8 
REMARK    3  A    between atoms: N5_17  and  C8_18 
ROOT
HETATM    1  C1  UNL     1      23.984   5.200  21.010  1.00  0.00     0.012 C 
HETATM    2  C2  UNL     1      24.017   3.949  20.118  1.00  0.00     0.015 C 
HETATM    3  C3  UNL     1      25.448   3.698  19.784  1.00  0.00     0.088 C 
HETATM    4  S1  UNL     1      25.460   3.008  18.085  1.00  0.00    -0.092 SA
HETATM    5  C4  UNL     1      24.344   1.615  18.121  1.00  0.00     0.161 C 
HETATM    6  N4  UNL     1      23.595   1.098  19.023  1.00  0.00    -0.281 N 
ATOM      7  H4  UNL     1      23.050   0.280  18.752  1.00  0.00     0.189 HD
HETATM    8  N5  UNL     1      23.448   1.546  20.362  1.00  0.00    -0.312 N 
HETATM    9  C12 UNL     1      23.314   2.868  20.852  1.00  0.00     0.103 C 
HETATM   10  C13 UNL     1      21.844   3.303  20.960  1.00  0.00     0.034 C 
ENDROOT
BRANCH   5  11
HETATM   11  N1  UNL     1      24.297   0.959  16.862  1.00  0.00    -0.308 N 
ATOM     12  H1  UNL     1      23.684   1.333  16.137  1.00  0.00     0.171 HD
BRANCH  11  13
HETATM   13  C5  UNL     1      25.074  -0.204  16.567  1.00  0.00     0.177 C 
HETATM   14  N2  UNL     1      25.932  -0.805  17.296  1.00  0.00    -0.361 N 
HETATM   15  C6  UNL     1      26.507  -1.950  16.638  1.00  0.00     0.142 C 
ATOM     16  H2  UNL     1      26.183  -0.508  18.239  1.00  0.00     0.162 HD
HETATM   17  C7  UNL     1      26.126  -1.760  15.182  1.00  0.00     0.142 C 
HETATM   18  N3  UNL     1      24.978  -0.882  15.334  1.00  0.00    -0.361 N 
ATOM     19  H3  UNL     1      24.222  -0.773  14.657  1.00  0.00     0.162 HD
ENDBRANCH  11  13
ENDBRANCH   5  11
BRANCH   8  20
HETATM   20  C8  UNL     1      23.424   0.512  21.409  1.00  0.00     0.038 C 
HETATM   21  C9  UNL     1      22.014   0.128  21.777  1.00  0.00     0.039 C 
HETATM   22  C10 UNL     1      24.081  -0.770  20.882  1.00  0.00     0.039 C 
HETATM   23  C11 UNL     1      24.231   0.961  22.580  1.00  0.00     0.039 C 
ENDBRANCH   8  20
TORSDOF 3
ENDMDL
MODEL 2
REMARK VINA RESULT: -6.369336840      4.488      7.135
REMARK  3 active torsions:
REMARK  status: ('A' for Active; 'I' for Inactive)
REMARK    1  A    between atoms: C4_5  and  N1_6 
REMARK    2  A    between atoms: N1_6  and  C5_8 
REMARK    3  A    between atoms: N5_17  and  C8_18 
ROOT
HETATM    1  C1  UNL     1      22.398   9.741  16.578  1.00  0.00     0.012 C 
HETATM    2  C2  UNL     1      22.690   8.654  17.624  1.00  0.00     0.015 C 
HETATM    3  C3  UNL     1      21.396   7.967  17.902  1.00  0.00     0.088 C 
HETATM    4  S1  UNL     1      21.442   7.495  19.674  1.00  0.00    -0.092 SA
HETATM    5  C4  UNL     1      22.953   6.571  19.889  1.00  0.00     0.161 C 
HETATM    6  N4  UNL     1      23.917   6.247  19.110  1.00  0.00    -0.281 N 
ATOM      7  H4  UNL     1      24.672   5.697  19.520  1.00  0.00     0.189 HD
HETATM    8  N5  UNL     1      24.043   6.577  17.734  1.00  0.00    -0.312 N 
HETATM    9  C12 UNL     1      23.781   7.807  17.083  1.00  0.00     0.103 C 
HETATM   10  C13 UNL     1      25.027   8.701  17.006  1.00  0.00     0.034 C 
ENDROOT
BRANCH   5  11
HETATM   11  N1  UNL     1      23.086   6.105  21.225  1.00  0.00    -0.308 N 
ATOM     12  H1  UNL     1      23.640   6.654  21.882  1.00  0.00     0.171 HD
BRANCH  11  13
HETATM   13  C5  UNL     1      22.476   4.898  21.687  1.00  0.00     0.177 C 
HETATM   14  N2  UNL     1      22.257   4.512  22.884  1.00  0.00    -0.361 N 
HETATM   15  C6  UNL     1      21.617   3.223  22.938  1.00  0.00     0.142 C 
ATOM     16  H2  UNL     1      22.507   5.057  23.709  1.00  0.00     0.162 HD
HETATM   17  C7  UNL     1      21.799   2.669  21.538  1.00  0.00     0.142 C 
HETATM   18  N3  UNL     1      22.006   3.905  20.802  1.00  0.00    -0.361 N 
ATOM     19  H3  UNL     1      21.838   4.034  19.804  1.00  0.00     0.162 HD
ENDBRANCH  11  13
ENDBRANCH   5  11
BRANCH   8  20
HETATM   20  C8  UNL     1      24.513   5.509  16.837  1.00  0.00     0.038 C 
HETATM   21  C9  UNL     1      25.994   5.271  16.987  1.00  0.00     0.039 C 
HETATM   22  C10 UNL     1      23.837   4.184  17.214  1.00  0.00     0.039 C 
HETATM   23  C11 UNL     1      24.110   5.816  15.434  1.00  0.00     0.039 C 
ENDBRANCH   8  20
TORSDOF 3
ENDMDL
MODEL 3
REMARK VINA RESULT: -6.338534936      0.753      1.132
REMARK  3 active torsions:
REMARK  status: ('A' for Active; 'I' for Inactive)
REMARK    1  A    between atoms: C4_5  and  N1_6 
REMARK    2  A    between atoms: N1_6  and  C5_8 
REMARK    3  A    between atoms: N5_17  and  C8_18 
ROOT
HETATM    1  C1  UNL     1      23.959   5.184  20.899  1.00  0.00     0.012 C 
HETATM    2  C2  UNL     1      23.810   3.792  20.266  1.00  0.00     0.015 C 
HETATM    3  C3  UNL     1      25.173   3.369  19.835  1.00  0.00     0.088 C 
HETATM    4  S1  UNL     1      24.938   2.378  18.309  1.00  0.00    -0.092 SA
HETATM    5  C4  UNL     1      23.754   1.112  18.732  1.00  0.00     0.161 C 
HETATM    6  N4  UNL     1      23.090   0.832  19.792  1.00  0.00    -0.281 N 
ATOM      7  H4  UNL     1      22.468   0.025  19.743  1.00  0.00     0.189 HD
HETATM    8  N5  UNL     1      23.132   1.530  21.028  1.00  0.00    -0.312 N 
HETATM    9  C12 UNL     1      23.137   2.926  21.265  1.00  0.00     0.103 C 
HETATM   10  C13 UNL     1      21.720   3.491  21.445  1.00  0.00     0.034 C 
ENDROOT
BRANCH   5  11
HETATM   11  N1  UNL     1      23.516   0.241  17.635  1.00  0.00    -0.308 N 
ATOM     12  H1  UNL     1      22.555   0.091  17.328  1.00  0.00     0.171 HD
BRANCH  11  13
HETATM   13  C5  UNL     1      24.568  -0.435  16.944  1.00  0.00     0.177 C 
HETATM   14  N2  UNL     1      24.743  -0.582  15.688  1.00  0.00    -0.361 N 
HETATM   15  C6  UNL     1      25.934  -1.333  15.382  1.00  0.00     0.142 C 
ATOM     16  H2  UNL     1      24.111  -0.209  14.980  1.00  0.00     0.162 HD
HETATM   17  C7  UNL     1      26.307  -1.974  16.705  1.00  0.00     0.142 C 
HETATM   18  N3  UNL     1      25.626  -1.075  17.622  1.00  0.00    -0.361 N 
ATOM     19  H3  UNL     1      25.874  -0.930  18.601  1.00  0.00     0.162 HD
ENDBRANCH  11  13
ENDBRANCH   5  11
BRANCH   8  20
HETATM   20  C8  UNL     1      23.172   0.712  22.250  1.00  0.00     0.038 C 
HETATM   21  C9  UNL     1      21.790   0.455  22.791  1.00  0.00     0.039 C 
HETATM   22  C10 UNL     1      23.758  -0.669  21.928  1.00  0.00     0.039 C 
HETATM   23  C11 UNL     1      24.083   1.344  23.249  1.00  0.00     0.039 C 
ENDBRANCH   8  20
TORSDOF 3
ENDMDL
MODEL 4
REMARK VINA RESULT: -6.222986685      3.914      5.975
REMARK  3 active torsions:
REMARK  status: ('A' for Active; 'I' for Inactive)
REMARK    1  A    between atoms: C4_5  and  N1_6 
REMARK    2  A    between atoms: N1_6  and  C5_8 
REMARK    3  A    between atoms: N5_17  and  C8_18 
ROOT
HETATM    1  C1  UNL     1      22.425   9.806  16.511  1.00  0.00     0.012 C 
HETATM    2  C2  UNL     1      22.817   8.442  17.101  1.00  0.00     0.015 C 
HETATM    3  C3  UNL     1      24.307   8.414  17.160  1.00  0.00     0.088 C 
HETATM    4  S1  UNL     1      24.794   6.673  16.846  1.00  0.00    -0.092 SA
HETATM    5  C4  UNL     1      23.882   5.695  18.028  1.00  0.00     0.161 C 
HETATM    6  N4  UNL     1      23.017   5.970  18.932  1.00  0.00    -0.281 N 
ATOM      7  H4  UNL     1      22.655   5.185  19.473  1.00  0.00     0.189 HD
HETATM    8  N5  UNL     1      22.511   7.257  19.259  1.00  0.00    -0.312 N 
HETATM    9  C12 UNL     1      22.105   8.302  18.394  1.00  0.00     0.103 C 
HETATM   10  C13 UNL     1      20.607   8.231  18.059  1.00  0.00     0.034 C 
ENDROOT
BRANCH   5  11
HETATM   11  N1  UNL     1      24.207   4.316  17.917  1.00  0.00    -0.308 N 
ATOM     12  H1  UNL     1      24.568   3.969  17.029  1.00  0.00     0.171 HD
BRANCH  11  13
HETATM   13  C5  UNL     1      24.051   3.397  19.000  1.00  0.00     0.177 C 
HETATM   14  N2  UNL     1      24.787   3.232  20.030  1.00  0.00    -0.361 N 
HETATM   15  C6  UNL     1      24.292   2.195  20.899  1.00  0.00     0.142 C 
ATOM     16  H2  UNL     1      25.631   3.773  20.216  1.00  0.00     0.162 HD
HETATM   17  C7  UNL     1      23.285   1.454  20.042  1.00  0.00     0.142 C 
HETATM   18  N3  UNL     1      22.977   2.485  19.064  1.00  0.00    -0.361 N 
ATOM     19  H3  UNL     1      22.121   2.540  18.513  1.00  0.00     0.162 HD
ENDBRANCH  11  13
ENDBRANCH   5  11
BRANCH   8  20
HETATM   20  C8  UNL     1      22.377   7.573  20.690  1.00  0.00     0.038 C 
HETATM   21  C9  UNL     1      22.660   9.027  20.965  1.00  0.00     0.039 C 
HETATM   22  C10 UNL     1      20.928   7.338  21.135  1.00  0.00     0.039 C 
HETATM   23  C11 UNL     1      23.230   6.649  21.492  1.00  0.00     0.039 C 
ENDBRANCH   8  20
TORSDOF 3
ENDMDL
MODEL 5
REMARK VINA RESULT: -6.100178672      1.444      1.885
REMARK  3 active torsions:
REMARK  status: ('A' for Active; 'I' for Inactive)
REMARK    1  A    between atoms: C4_5  and  N1_6 
REMARK    2  A    between atoms: N1_6  and  C5_8 
REMARK    3  A    between atoms: N5_17  and  C8_18 
ROOT
HETATM    1  C1  UNL     1      22.102   4.797  22.422  1.00  0.00     0.012 C 
HETATM    2  C2  UNL     1      22.389   3.639  21.454  1.00  0.00     0.015 C 
HETATM    3  C3  UNL     1      23.812   3.777  21.030  1.00  0.00     0.088 C 
HETATM    4  S1  UNL     1      23.883   3.191  19.293  1.00  0.00    -0.092 SA
HETATM    5  C4  UNL     1      23.159   1.560  19.303  1.00  0.00     0.161 C 
HETATM    6  N4  UNL     1      22.627   0.828  20.209  1.00  0.00    -0.281 N 
ATOM      7  H4  UNL     1      22.288  -0.089  19.918  1.00  0.00     0.189 HD
HETATM    8  N5  UNL     1      22.461   1.162  21.580  1.00  0.00    -0.312 N 
HETATM    9  C12 UNL     1      22.031   2.382  22.156  1.00  0.00     0.103 C 
HETATM   10  C13 UNL     1      20.511   2.421  22.369  1.00  0.00     0.034 C 
ENDROOT
BRANCH   5  11
HETATM   11  N1  UNL     1      23.195   0.973  18.010  1.00  0.00    -0.308 N 
ATOM     12  H1  UNL     1      22.398   1.109  17.388  1.00  0.00     0.171 HD
BRANCH  11  13
HETATM   13  C5  UNL     1      24.302   0.198  17.544  1.00  0.00     0.177 C 
HETATM   14  N2  UNL     1      24.556  -0.215  16.363  1.00  0.00    -0.361 N 
HETATM   15  C6  UNL     1      25.779  -0.974  16.297  1.00  0.00     0.142 C 
ATOM     16  H2  UNL     1      23.960  -0.028  15.557  1.00  0.00     0.162 HD
HETATM   17  C7  UNL     1      26.084  -1.295  17.747  1.00  0.00     0.142 C 
HETATM   18  N3  UNL     1      25.329  -0.241  18.404  1.00  0.00    -0.361 N 
ATOM     19  H3  UNL     1      25.514   0.124  19.339  1.00  0.00     0.162 HD
ENDBRANCH  11  13
ENDBRANCH   5  11
BRANCH   8  20
HETATM   20  C8  UNL     1      22.768   0.108  22.561  1.00  0.00     0.038 C 
HETATM   21  C9  UNL     1      21.538  -0.678  22.933  1.00  0.00     0.039 C 
HETATM   22  C10 UNL     1      23.740  -0.905  21.942  1.00  0.00     0.039 C 
HETATM   23  C11 UNL     1      23.460   0.705  23.741  1.00  0.00     0.039 C 
ENDBRANCH   8  20
TORSDOF 3
ENDMDL
