MODEL 1
REMARK VINA RESULT: -6.785823153      0.000      0.000
REMARK  2 active torsions:
REMARK  status: ('A' for Active; 'I' for Inactive)
REMARK       I    between atoms: C2_2  and  N1_4 
REMARK    1  A    between atoms: C4_11  and  C5_12 
REMARK    2  A    between atoms: C5_12  and  N4_13 
ROOT
HETATM    1  C1  UNL     1      27.824  -0.118  15.796  1.00  0.00     0.117 C 
HETATM    2  C2  UNL     1      28.041   1.250  16.338  1.00  0.00     0.219 C 
HETATM    3  O1  UNL     1      29.191   1.782  16.119  1.00  0.00    -0.274 OA
HETATM    4  N1  UNL     1      27.088   1.915  17.024  1.00  0.00    -0.306 N 
ATOM      5  H1  UNL     1      27.024   2.875  16.685  1.00  0.00     0.171 HD
HETATM    6  C3  UNL     1      26.250   1.732  17.951  1.00  0.00     0.167 A 
HETATM    7  N2  UNL     1      25.994   0.627  18.681  1.00  0.00    -0.279 N 
ATOM      8  H2  UNL     1      26.540  -0.225  18.548  1.00  0.00     0.189 HD
HETATM    9  N3  UNL     1      25.055   0.669  19.539  1.00  0.00    -0.293 N 
ATOM     10  H3  UNL     1      24.850  -0.161  20.094  1.00  0.00     0.187 HD
HETATM   11  C4  UNL     1      24.344   1.760  19.726  1.00  0.00     0.117 A 
HETATM   12  S3  UNL     1      25.060   2.806  18.594  1.00  0.00    -0.034 SA
ENDROOT
BRANCH  11  13
HETATM   13  C5  UNL     1      23.174   2.088  20.575  1.00  0.00     0.230 C 
HETATM   14  C6  UNL     1      22.707   0.779  21.236  1.00  0.00     0.058 C 
HETATM   15  C7  UNL     1      21.254   0.897  21.564  1.00  0.00     0.004 C 
HETATM   16  C8  UNL     1      20.995   0.719  23.043  1.00  0.00     0.011 C 
HETATM   17  C9  UNL     1      21.132   1.977  23.825  1.00  0.00     0.086 C 
HETATM   18  S1  UNL     1      21.563   3.440  22.912  1.00  0.00    -0.095 SA
HETATM   19  S2  UNL     1      23.475   3.213  21.934  1.00  0.00    -0.051 SA
BRANCH  13  20
HETATM   20  N4  UNL     1      22.086   2.632  19.770  1.00  0.00    -0.054 N 
ATOM     21  H43 UNL     1      22.317   3.552  19.397  1.00  0.00     0.276 HD
ATOM     22  H42 UNL     1      21.981   2.130  18.889  1.00  0.00     0.276 HD
ATOM     23  H41 UNL     1      21.216   2.648  20.301  1.00  0.00     0.276 HD
ENDBRANCH  13  20
ENDBRANCH  11  13
TORSDOF 2
ENDMDL
MODEL 2
REMARK VINA RESULT: -6.708855809      4.646      6.066
REMARK  2 active torsions:
REMARK  status: ('A' for Active; 'I' for Inactive)
REMARK       I    between atoms: C2_2  and  N1_4 
REMARK    1  A    between atoms: C4_11  and  C5_12 
REMARK    2  A    between atoms: C5_12  and  N4_13 
ROOT
HETATM    1  C1  UNL     1      25.765  -1.227  17.032  1.00  0.00     0.117 C 
HETATM    2  C2  UNL     1      25.727  -0.573  18.368  1.00  0.00     0.219 C 
HETATM    3  O1  UNL     1      25.635  -1.350  19.389  1.00  0.00    -0.274 OA
HETATM    4  N1  UNL     1      25.789   0.766  18.519  1.00  0.00    -0.306 N 
ATOM      5  H1  UNL     1      26.452   1.001  19.258  1.00  0.00     0.171 HD
HETATM    6  C3  UNL     1      25.291   1.824  18.040  1.00  0.00     0.167 A 
HETATM    7  N2  UNL     1      24.380   1.984  17.058  1.00  0.00    -0.279 N 
ATOM      8  H2  UNL     1      23.954   1.175  16.605  1.00  0.00     0.189 HD
HETATM    9  N3  UNL     1      24.063   3.166  16.710  1.00  0.00    -0.293 N 
ATOM     10  H3  UNL     1      23.378   3.299  15.967  1.00  0.00     0.187 HD
HETATM   11  C4  UNL     1      24.600   4.219  17.288  1.00  0.00     0.117 A 
HETATM   12  S3  UNL     1      25.637   3.474  18.410  1.00  0.00    -0.034 SA
ENDROOT
BRANCH  11  13
HETATM   13  C5  UNL     1      24.491   5.680  17.061  1.00  0.00     0.230 C 
HETATM   14  C6  UNL     1      23.841   5.881  15.680  1.00  0.00     0.058 C 
HETATM   15  C7  UNL     1      24.261   7.208  15.138  1.00  0.00     0.004 C 
HETATM   16  C8  UNL     1      23.074   8.104  14.863  1.00  0.00     0.011 C 
HETATM   17  C9  UNL     1      22.631   8.884  16.050  1.00  0.00     0.086 C 
HETATM   18  S1  UNL     1      23.549   8.639  17.552  1.00  0.00    -0.095 SA
HETATM   19  S2  UNL     1      23.447   6.582  18.201  1.00  0.00    -0.051 SA
BRANCH  13  20
HETATM   20  N4  UNL     1      25.809   6.305  17.063  1.00  0.00    -0.054 N 
ATOM     21  H43 UNL     1      26.209   6.335  18.001  1.00  0.00     0.276 HD
ATOM     22  H42 UNL     1      26.508   5.712  16.616  1.00  0.00     0.276 HD
ATOM     23  H41 UNL     1      25.772   7.231  16.639  1.00  0.00     0.276 HD
ENDBRANCH  13  20
ENDBRANCH  11  13
TORSDOF 2
ENDMDL
MODEL 3
REMARK VINA RESULT: -6.696007767      4.169      5.279
REMARK  2 active torsions:
REMARK  status: ('A' for Active; 'I' for Inactive)
REMARK       I    between atoms: C2_2  and  N1_4 
REMARK    1  A    between atoms: C4_11  and  C5_12 
REMARK    2  A    between atoms: C5_12  and  N4_13 
ROOT
HETATM    1  C1  UNL     1      24.087   7.705  15.128  1.00  0.00     0.117 C 
HETATM    2  C2  UNL     1      24.488   7.751  16.560  1.00  0.00     0.219 C 
HETATM    3  O1  UNL     1      25.053   8.831  16.968  1.00  0.00    -0.274 OA
HETATM    4  N1  UNL     1      24.272   6.719  17.403  1.00  0.00    -0.306 N 
ATOM      5  H1  UNL     1      23.882   7.066  18.280  1.00  0.00     0.171 HD
HETATM    6  C3  UNL     1      24.398   5.464  17.457  1.00  0.00     0.167 A 
HETATM    7  N2  UNL     1      24.870   4.601  16.534  1.00  0.00    -0.279 N 
ATOM      8  H2  UNL     1      25.231   4.938  15.642  1.00  0.00     0.189 HD
HETATM    9  N3  UNL     1      24.854   3.357  16.801  1.00  0.00    -0.293 N 
ATOM     10  H3  UNL     1      25.205   2.695  16.110  1.00  0.00     0.187 HD
HETATM   11  C4  UNL     1      24.395   2.906  17.949  1.00  0.00     0.117 A 
HETATM   12  S3  UNL     1      23.948   4.361  18.707  1.00  0.00    -0.034 SA
ENDROOT
BRANCH  11  13
HETATM   13  C5  UNL     1      24.186   1.550  18.508  1.00  0.00     0.230 C 
HETATM   14  C6  UNL     1      25.299   0.647  17.946  1.00  0.00     0.058 C 
HETATM   15  C7  UNL     1      24.816  -0.767  17.942  1.00  0.00     0.004 C 
HETATM   16  C8  UNL     1      25.702  -1.667  18.773  1.00  0.00     0.011 C 
HETATM   17  C9  UNL     1      25.337  -1.692  20.215  1.00  0.00     0.086 C 
HETATM   18  S1  UNL     1      23.954  -0.688  20.704  1.00  0.00    -0.095 SA
HETATM   19  S2  UNL     1      24.319   1.399  20.287  1.00  0.00    -0.051 SA
BRANCH  13  20
HETATM   20  N4  UNL     1      22.890   1.017  18.105  1.00  0.00    -0.054 N 
ATOM     21  H43 UNL     1      22.146   1.705  18.223  1.00  0.00     0.276 HD
ATOM     22  H42 UNL     1      22.829   0.896  17.094  1.00  0.00     0.276 HD
ATOM     23  H41 UNL     1      22.684   0.150  18.601  1.00  0.00     0.276 HD
ENDBRANCH  13  20
ENDBRANCH  11  13
TORSDOF 2
ENDMDL
MODEL 4
REMARK VINA RESULT: -6.624866601      3.027      3.499
REMARK  2 active torsions:
REMARK  status: ('A' for Active; 'I' for Inactive)
REMARK       I    between atoms: C2_2  and  N1_4 
REMARK    1  A    between atoms: C4_11  and  C5_12 
REMARK    2  A    between atoms: C5_12  and  N4_13 
ROOT
HETATM    1  C1  UNL     1      26.691  -1.086  14.183  1.00  0.00     0.117 C 
HETATM    2  C2  UNL     1      26.100  -1.937  15.252  1.00  0.00     0.219 C 
HETATM    3  O1  UNL     1      25.864  -3.164  14.949  1.00  0.00    -0.274 OA
HETATM    4  N1  UNL     1      25.824  -1.461  16.484  1.00  0.00    -0.306 N 
ATOM      5  H1  UNL     1      26.158  -2.116  17.190  1.00  0.00     0.171 HD
HETATM    6  C3  UNL     1      25.285  -0.465  17.044  1.00  0.00     0.167 A 
HETATM    7  N2  UNL     1      24.712   0.629  16.501  1.00  0.00    -0.279 N 
ATOM      8  H2  UNL     1      24.632   0.727  15.489  1.00  0.00     0.189 HD
HETATM    9  N3  UNL     1      24.274   1.534  17.279  1.00  0.00    -0.293 N 
ATOM     10  H3  UNL     1      23.842   2.368  16.880  1.00  0.00     0.187 HD
HETATM   11  C4  UNL     1      24.366   1.421  18.587  1.00  0.00     0.117 A 
HETATM   12  S3  UNL     1      25.137  -0.088  18.722  1.00  0.00    -0.034 SA
ENDROOT
BRANCH  11  13
HETATM   13  C5  UNL     1      24.023   2.312  19.720  1.00  0.00     0.230 C 
HETATM   14  C6  UNL     1      23.952   3.747  19.168  1.00  0.00     0.058 C 
HETATM   15  C7  UNL     1      24.234   4.705  20.279  1.00  0.00     0.004 C 
HETATM   16  C8  UNL     1      23.085   5.662  20.502  1.00  0.00     0.011 C 
HETATM   17  C9  UNL     1      22.037   5.129  21.414  1.00  0.00     0.086 C 
HETATM   18  S1  UNL     1      22.308   3.500  22.072  1.00  0.00    -0.095 SA
HETATM   19  S2  UNL     1      22.433   2.032  20.493  1.00  0.00    -0.051 SA
BRANCH  13  20
HETATM   20  N4  UNL     1      25.047   2.250  20.757  1.00  0.00    -0.054 N 
ATOM     21  H43 UNL     1      24.953   1.411  21.329  1.00  0.00     0.276 HD
ATOM     22  H42 UNL     1      25.970   2.066  20.365  1.00  0.00     0.276 HD
ATOM     23  H41 UNL     1      25.040   3.096  21.325  1.00  0.00     0.276 HD
ENDBRANCH  13  20
ENDBRANCH  11  13
TORSDOF 2
ENDMDL
MODEL 5
REMARK VINA RESULT: -6.550493336      3.419      3.921
REMARK  2 active torsions:
REMARK  status: ('A' for Active; 'I' for Inactive)
REMARK       I    between atoms: C2_2  and  N1_4 
REMARK    1  A    between atoms: C4_11  and  C5_12 
REMARK    2  A    between atoms: C5_12  and  N4_13 
ROOT
HETATM    1  C1  UNL     1      26.616  -1.312  14.526  1.00  0.00     0.117 C 
HETATM    2  C2  UNL     1      26.249  -1.860  15.860  1.00  0.00     0.219 C 
HETATM    3  O1  UNL     1      26.149  -3.138  15.951  1.00  0.00    -0.274 OA
HETATM    4  N1  UNL     1      26.034  -1.068  16.932  1.00  0.00    -0.306 N 
ATOM      5  H1  UNL     1      26.519  -1.448  17.745  1.00  0.00     0.171 HD
HETATM    6  C3  UNL     1      25.426  -0.009  17.252  1.00  0.00     0.167 A 
HETATM    7  N2  UNL     1      24.664   0.813  16.502  1.00  0.00    -0.279 N 
ATOM      8  H2  UNL     1      24.473   0.598  15.523  1.00  0.00     0.189 HD
HETATM    9  N3  UNL     1      24.188   1.862  17.042  1.00  0.00    -0.293 N 
ATOM     10  H3  UNL     1      23.613   2.492  16.483  1.00  0.00     0.187 HD
HETATM   11  C4  UNL     1      24.420   2.152  18.304  1.00  0.00     0.117 A 
HETATM   12  S3  UNL     1      25.394   0.834  18.759  1.00  0.00    -0.034 SA
ENDROOT
BRANCH  11  13
HETATM   13  C5  UNL     1      24.075   3.302  19.173  1.00  0.00     0.230 C 
HETATM   14  C6  UNL     1      23.843   4.515  18.254  1.00  0.00     0.058 C 
HETATM   15  C7  UNL     1      24.112   5.764  19.029  1.00  0.00     0.004 C 
HETATM   16  C8  UNL     1      22.900   6.667  19.078  1.00  0.00     0.011 C 
HETATM   17  C9  UNL     1      21.965   6.344  20.189  1.00  0.00     0.086 C 
HETATM   18  S1  UNL     1      22.418   4.988  21.245  1.00  0.00    -0.095 SA
HETATM   19  S2  UNL     1      22.569   3.147  20.127  1.00  0.00    -0.051 SA
BRANCH  13  20
HETATM   20  N4  UNL     1      25.165   3.601  20.094  1.00  0.00    -0.054 N 
ATOM     21  H43 UNL     1      24.906   3.407  21.061  1.00  0.00     0.276 HD
ATOM     22  H42 UNL     1      25.931   2.933  20.003  1.00  0.00     0.276 HD
ATOM     23  H41 UNL     1      25.487   4.561  19.974  1.00  0.00     0.276 HD
ENDBRANCH  13  20
ENDBRANCH  11  13
TORSDOF 2
ENDMDL
