MODEL 1
REMARK VINA RESULT: -7.822720835      0.000      0.000
REMARK  2 active torsions:
REMARK  status: ('A' for Active; 'I' for Inactive)
REMARK    1  A    between atoms: N1_1  and  N2_4 
REMARK       I    between atoms: N2_4  and  C1_6 
REMARK    2  A    between atoms: C1_6  and  C2_8 
ROOT
HETATM    1  C2  UNL     1      27.153   0.757  16.736  1.00  0.00     0.133 A 
HETATM    2  N3  UNL     1      27.998   1.793  16.525  1.00  0.00    -0.255 N 
ATOM      3  H3  UNL     1      28.767   1.795  15.854  1.00  0.00     0.195 HD
HETATM    4  O2  UNL     1      27.685   2.781  17.301  1.00  0.00    -0.241 OA
HETATM    5  C3  UNL     1      26.644   2.479  18.054  1.00  0.00     0.087 A 
HETATM    6  C4  UNL     1      26.291   1.208  17.717  1.00  0.00     0.017 A 
HETATM    7  C5  UNL     1      25.145   0.496  18.356  1.00  0.00     0.118 C 
HETATM    8  S1  UNL     1      23.829   1.719  18.558  1.00  0.00    -0.154 SA
HETATM    9  C6  UNL     1      24.514   3.343  19.015  1.00  0.00     0.014 C 
HETATM   10  C7  UNL     1      23.923   3.630  20.378  1.00  0.00     0.021 C 
HETATM   11  C8  UNL     1      24.242   4.981  20.904  1.00  0.00     0.002 C 
HETATM   12  C9  UNL     1      23.153   5.984  20.579  1.00  0.00     0.000 C 
HETATM   13  C10 UNL     1      22.954   6.190  19.117  1.00  0.00     0.000 C 
HETATM   14  C11 UNL     1      24.132   5.723  18.285  1.00  0.00     0.002 C 
HETATM   15  C12 UNL     1      23.979   4.274  17.946  1.00  0.00     0.021 C 
HETATM   16  C13 UNL     1      26.001   3.349  19.058  1.00  0.00     0.088 C 
ENDROOT
BRANCH   1  17
HETATM   17  C1  UNL     1      27.167  -0.539  16.068  1.00  0.00     0.288 C 
HETATM   18  N2  UNL     1      26.084  -0.862  15.207  1.00  0.00    -0.271 N 
ATOM     19  H2  UNL     1      25.329  -0.189  15.076  1.00  0.00     0.189 HD
HETATM   20  O1  UNL     1      28.069  -1.379  16.204  1.00  0.00    -0.264 OA
BRANCH  18  21
HETATM   21  N1  UNL     1      26.037  -2.084  14.538  1.00  0.00    -0.342 N 
ATOM     22  H12 UNL     1      26.796  -2.319  13.899  1.00  0.00     0.176 HD
ATOM     23  H11 UNL     1      25.262  -2.733  14.681  1.00  0.00     0.176 HD
ENDBRANCH  18  21
ENDBRANCH   1  17
TORSDOF 2
ENDMDL
MODEL 2
REMARK VINA RESULT: -7.421825836      2.791      3.705
REMARK  2 active torsions:
REMARK  status: ('A' for Active; 'I' for Inactive)
REMARK    1  A    between atoms: N1_1  and  N2_4 
REMARK       I    between atoms: N2_4  and  C1_6 
REMARK    2  A    between atoms: C1_6  and  C2_8 
ROOT
HETATM    1  C2  UNL     1      26.214   2.358  17.508  1.00  0.00     0.133 A 
HETATM    2  N3  UNL     1      27.098   2.693  16.539  1.00  0.00    -0.255 N 
ATOM      3  H3  UNL     1      27.733   2.043  16.074  1.00  0.00     0.195 HD
HETATM    4  O2  UNL     1      27.019   3.962  16.291  1.00  0.00    -0.241 OA
HETATM    5  C3  UNL     1      26.106   4.535  17.052  1.00  0.00     0.087 A 
HETATM    6  C4  UNL     1      25.585   3.545  17.827  1.00  0.00     0.017 A 
HETATM    7  C5  UNL     1      24.511   3.795  18.834  1.00  0.00     0.118 C 
HETATM    8  S1  UNL     1      23.368   4.977  18.084  1.00  0.00    -0.154 SA
HETATM    9  C6  UNL     1      24.268   6.217  17.099  1.00  0.00     0.014 C 
HETATM   10  C7  UNL     1      23.957   7.533  17.777  1.00  0.00     0.021 C 
HETATM   11  C8  UNL     1      24.485   8.722  17.062  1.00  0.00     0.002 C 
HETATM   12  C9  UNL     1      23.451   9.328  16.133  1.00  0.00     0.000 C 
HETATM   13  C10 UNL     1      23.015   8.403  15.049  1.00  0.00     0.000 C 
HETATM   14  C11 UNL     1      23.979   7.255  14.823  1.00  0.00     0.002 C 
HETATM   15  C12 UNL     1      23.637   6.112  15.726  1.00  0.00     0.021 C 
HETATM   16  C13 UNL     1      25.733   5.964  17.055  1.00  0.00     0.088 C 
ENDROOT
BRANCH   1  17
HETATM   17  C1  UNL     1      25.992   1.033  18.074  1.00  0.00     0.288 C 
HETATM   18  N2  UNL     1      25.429   0.946  19.376  1.00  0.00    -0.271 N 
ATOM     19  H2  UNL     1      25.195   1.801  19.880  1.00  0.00     0.189 HD
HETATM   20  O1  UNL     1      26.265  -0.025  17.489  1.00  0.00    -0.264 OA
BRANCH  18  21
HETATM   21  N1  UNL     1      25.192  -0.290  19.976  1.00  0.00    -0.342 N 
ATOM     22  H12 UNL     1      24.832  -1.050  19.398  1.00  0.00     0.176 HD
ATOM     23  H11 UNL     1      25.372  -0.437  20.969  1.00  0.00     0.176 HD
ENDBRANCH  18  21
ENDBRANCH   1  17
TORSDOF 2
ENDMDL
MODEL 3
REMARK VINA RESULT: -7.054156951      3.061      4.513
REMARK  2 active torsions:
REMARK  status: ('A' for Active; 'I' for Inactive)
REMARK    1  A    between atoms: N1_1  and  N2_4 
REMARK       I    between atoms: N2_4  and  C1_6 
REMARK    2  A    between atoms: C1_6  and  C2_8 
ROOT
HETATM    1  C2  UNL     1      25.850   1.536  18.571  1.00  0.00     0.133 A 
HETATM    2  N3  UNL     1      25.728   0.201  18.760  1.00  0.00    -0.255 N 
ATOM      3  H3  UNL     1      26.380  -0.502  18.411  1.00  0.00     0.195 HD
HETATM    4  O2  UNL     1      24.661  -0.050  19.449  1.00  0.00    -0.241 OA
HETATM    5  C3  UNL     1      24.024   1.064  19.755  1.00  0.00     0.087 A 
HETATM    6  C4  UNL     1      24.754   2.078  19.213  1.00  0.00     0.017 A 
HETATM    7  C5  UNL     1      24.356   3.511  19.340  1.00  0.00     0.118 C 
HETATM    8  S1  UNL     1      23.728   3.722  21.022  1.00  0.00    -0.154 SA
HETATM    9  C6  UNL     1      22.777   2.262  21.550  1.00  0.00     0.014 C 
HETATM   10  C7  UNL     1      21.381   2.791  21.796  1.00  0.00     0.021 C 
HETATM   11  C8  UNL     1      20.446   1.791  22.368  1.00  0.00     0.002 C 
HETATM   12  C9  UNL     1      20.392   1.869  23.881  1.00  0.00     0.000 C 
HETATM   13  C10 UNL     1      21.698   1.577  24.536  1.00  0.00     0.000 C 
HETATM   14  C11 UNL     1      22.668   0.845  23.629  1.00  0.00     0.002 C 
HETATM   15  C12 UNL     1      23.463   1.828  22.828  1.00  0.00     0.021 C 
HETATM   16  C13 UNL     1      22.772   1.179  20.530  1.00  0.00     0.088 C 
ENDROOT
BRANCH   1  17
HETATM   17  C1  UNL     1      26.910   2.228  17.846  1.00  0.00     0.288 C 
HETATM   18  N2  UNL     1      27.227   1.781  16.535  1.00  0.00    -0.271 N 
ATOM     19  H2  UNL     1      26.713   0.997  16.133  1.00  0.00     0.189 HD
HETATM   20  O1  UNL     1      27.553   3.183  18.304  1.00  0.00    -0.264 OA
BRANCH  18  21
HETATM   21  N1  UNL     1      28.230   2.398  15.788  1.00  0.00    -0.342 N 
ATOM     22  H12 UNL     1      29.016   2.818  16.284  1.00  0.00     0.176 HD
ATOM     23  H11 UNL     1      28.182   2.433  14.770  1.00  0.00     0.176 HD
ENDBRANCH  18  21
ENDBRANCH   1  17
TORSDOF 2
ENDMDL
MODEL 4
REMARK VINA RESULT: -6.963988873      4.871      5.958
REMARK  2 active torsions:
REMARK  status: ('A' for Active; 'I' for Inactive)
REMARK    1  A    between atoms: N1_1  and  N2_4 
REMARK       I    between atoms: N2_4  and  C1_6 
REMARK    2  A    between atoms: C1_6  and  C2_8 
ROOT
HETATM    1  C2  UNL     1      23.653   6.633  17.226  1.00  0.00     0.133 A 
HETATM    2  N3  UNL     1      23.176   7.378  18.251  1.00  0.00    -0.255 N 
ATOM      3  H3  UNL     1      22.807   8.325  18.165  1.00  0.00     0.195 HD
HETATM    4  O2  UNL     1      23.260   6.708  19.356  1.00  0.00    -0.241 OA
HETATM    5  C3  UNL     1      23.779   5.514  19.147  1.00  0.00     0.087 A 
HETATM    6  C4  UNL     1      24.036   5.442  17.811  1.00  0.00     0.017 A 
HETATM    7  C5  UNL     1      24.635   4.234  17.172  1.00  0.00     0.118 C 
HETATM    8  S1  UNL     1      23.875   2.801  17.968  1.00  0.00    -0.154 SA
HETATM    9  C6  UNL     1      23.627   3.100  19.748  1.00  0.00     0.014 C 
HETATM   10  C7  UNL     1      24.476   2.049  20.428  1.00  0.00     0.021 C 
HETATM   11  C8  UNL     1      24.329   2.014  21.904  1.00  0.00     0.002 C 
HETATM   12  C9  UNL     1      23.294   0.997  22.345  1.00  0.00     0.000 C 
HETATM   13  C10 UNL     1      21.923   1.291  21.840  1.00  0.00     0.000 C 
HETATM   14  C11 UNL     1      21.752   2.728  21.386  1.00  0.00     0.002 C 
HETATM   15  C12 UNL     1      22.144   2.863  19.949  1.00  0.00     0.021 C 
HETATM   16  C13 UNL     1      24.029   4.471  20.162  1.00  0.00     0.088 C 
ENDROOT
BRANCH   1  17
HETATM   17  C1  UNL     1      23.737   7.022  15.822  1.00  0.00     0.288 C 
HETATM   18  N2  UNL     1      22.927   8.101  15.376  1.00  0.00    -0.271 N 
ATOM     19  H2  UNL     1      22.313   8.575  16.038  1.00  0.00     0.189 HD
HETATM   20  O1  UNL     1      24.473   6.468  14.993  1.00  0.00    -0.264 OA
BRANCH  18  21
HETATM   21  N1  UNL     1      22.960   8.522  14.048  1.00  0.00    -0.342 N 
ATOM     22  H12 UNL     1      22.652   9.470  13.830  1.00  0.00     0.176 HD
ATOM     23  H11 UNL     1      23.283   7.900  13.306  1.00  0.00     0.176 HD
ENDBRANCH  18  21
ENDBRANCH   1  17
TORSDOF 2
ENDMDL
MODEL 5
REMARK VINA RESULT: -6.963255816      1.943      2.614
REMARK  2 active torsions:
REMARK  status: ('A' for Active; 'I' for Inactive)
REMARK    1  A    between atoms: N1_1  and  N2_4 
REMARK       I    between atoms: N2_4  and  C1_6 
REMARK    2  A    between atoms: C1_6  and  C2_8 
ROOT
HETATM    1  C2  UNL     1      25.520   1.791  18.545  1.00  0.00     0.133 A 
HETATM    2  N3  UNL     1      26.493   2.732  18.562  1.00  0.00    -0.255 N 
ATOM      3  H3  UNL     1      27.354   2.695  18.016  1.00  0.00     0.195 HD
HETATM    4  O2  UNL     1      26.167   3.686  19.376  1.00  0.00    -0.241 OA
HETATM    5  C3  UNL     1      24.995   3.451  19.933  1.00  0.00     0.087 A 
HETATM    6  C4  UNL     1      24.566   2.263  19.426  1.00  0.00     0.017 A 
HETATM    7  C5  UNL     1      23.265   1.645  19.817  1.00  0.00     0.118 C 
HETATM    8  S1  UNL     1      22.071   2.996  19.939  1.00  0.00    -0.154 SA
HETATM    9  C6  UNL     1      22.843   4.485  20.648  1.00  0.00     0.014 C 
HETATM   10  C7  UNL     1      22.078   4.731  21.929  1.00  0.00     0.021 C 
HETATM   11  C8  UNL     1      22.451   5.988  22.625  1.00  0.00     0.002 C 
HETATM   12  C9  UNL     1      21.539   7.137  22.242  1.00  0.00     0.000 C 
HETATM   13  C10 UNL     1      21.597   7.481  20.794  1.00  0.00     0.000 C 
HETATM   14  C11 UNL     1      22.836   6.944  20.104  1.00  0.00     0.002 C 
HETATM   15  C12 UNL     1      22.585   5.555  19.607  1.00  0.00     0.021 C 
HETATM   16  C13 UNL     1      24.296   4.309  20.911  1.00  0.00     0.088 C 
ENDROOT
BRANCH   1  17
HETATM   17  C1  UNL     1      25.502   0.560  17.763  1.00  0.00     0.288 C 
HETATM   18  N2  UNL     1      24.753   0.542  16.556  1.00  0.00    -0.271 N 
ATOM     19  H2  UNL     1      24.250   1.381  16.265  1.00  0.00     0.189 HD
HETATM   20  O1  UNL     1      26.103  -0.475  18.088  1.00  0.00    -0.264 OA
BRANCH  18  21
HETATM   21  N1  UNL     1      24.695  -0.602  15.763  1.00  0.00    -0.342 N 
ATOM     22  H12 UNL     1      25.564  -1.091  15.550  1.00  0.00     0.176 HD
ATOM     23  H11 UNL     1      23.805  -0.947  15.401  1.00  0.00     0.176 HD
ENDBRANCH  18  21
ENDBRANCH   1  17
TORSDOF 2
ENDMDL
