MODEL 1
REMARK VINA RESULT: -7.794290364      0.000      0.000
REMARK  3 active torsions:
REMARK  status: ('A' for Active; 'I' for Inactive)
REMARK    1  A    between atoms: N1_14  and  O3_16 
REMARK    2  A    between atoms: C13_19  and  O4_20 
REMARK    3  A    between atoms: O4_20  and  O5_21 
ROOT
HETATM    1  C1  UNL     1      24.352   8.296  17.818  1.00  0.00     0.012 C 
HETATM    2  C2  UNL     1      24.209   6.924  17.123  1.00  0.00     0.017 C 
HETATM    3  C3  UNL     1      24.135   7.120  15.698  1.00  0.00     0.044 C 
HETATM    4  C4  UNL     1      25.315   7.138  14.818  1.00  0.00     0.054 C 
HETATM    5  C5  UNL     1      24.769   7.720  13.477  1.00  0.00     0.045 C 
HETATM    6  C6  UNL     1      26.368   8.146  15.202  1.00  0.00     0.045 C 
HETATM    7  O1  UNL     1      25.806   5.934  14.394  1.00  0.00    -0.376 OA
HETATM    8  C7  UNL     1      26.419   5.125  15.303  1.00  0.00     0.125 C 
HETATM    9  C8  UNL     1      27.530   4.275  14.680  1.00  0.00     0.040 C 
HETATM   10  C9  UNL     1      25.377   4.324  15.951  1.00  0.00     0.053 C 
HETATM   11  C10 UNL     1      25.719   2.837  16.140  1.00  0.00     0.185 C 
HETATM   12  O2  UNL     1      24.716   2.516  17.124  1.00  0.00    -0.337 OA
HETATM   13  C11 UNL     1      24.424   3.646  17.879  1.00  0.00     0.144 C 
HETATM   14  N1  UNL     1      23.524   3.752  18.785  1.00  0.00    -0.251 N 
ATOM     15  H1  UNL     1      23.432   4.654  19.253  1.00  0.00     0.196 HD
HETATM   16  C12 UNL     1      25.353   4.671  17.423  1.00  0.00     0.103 C 
HETATM   17  C13 UNL     1      25.172   6.045  17.797  1.00  0.00     0.176 C 
ENDROOT
BRANCH  14  18
HETATM   18  O3  UNL     1      22.682   2.756  19.170  1.00  0.00    -0.288 OA
ATOM     19  H3  UNL     1      22.066   2.311  18.599  1.00  0.00     0.244 HD
ENDBRANCH  14  18
BRANCH  17  20
HETATM   20  O4  UNL     1      24.854   6.081  19.164  1.00  0.00    -0.237 OA
BRANCH  20  21
HETATM   21  O5  UNL     1      25.829   5.668  19.923  1.00  0.00    -0.250 OA
ATOM     22  H5  UNL     1      25.648   5.775  20.849  1.00  0.00     0.253 HD
ENDBRANCH  20  21
ENDBRANCH  17  20
TORSDOF 3
ENDMDL
MODEL 2
REMARK VINA RESULT: -6.893174207      2.266      5.492
REMARK  3 active torsions:
REMARK  status: ('A' for Active; 'I' for Inactive)
REMARK    1  A    between atoms: N1_14  and  O3_16 
REMARK    2  A    between atoms: C13_19  and  O4_20 
REMARK    3  A    between atoms: O4_20  and  O5_21 
ROOT
HETATM    1  C1  UNL     1      26.000   0.988  15.904  1.00  0.00     0.012 C 
HETATM    2  C2  UNL     1      25.238   2.273  16.298  1.00  0.00     0.017 C 
HETATM    3  C3  UNL     1      24.289   1.960  17.335  1.00  0.00     0.044 C 
HETATM    4  C4  UNL     1      24.602   2.032  18.772  1.00  0.00     0.054 C 
HETATM    5  C5  UNL     1      23.412   1.282  19.448  1.00  0.00     0.045 C 
HETATM    6  C6  UNL     1      25.787   1.204  19.196  1.00  0.00     0.045 C 
HETATM    7  O1  UNL     1      24.514   3.253  19.379  1.00  0.00    -0.376 OA
HETATM    8  C7  UNL     1      25.439   4.204  19.066  1.00  0.00     0.125 C 
HETATM    9  C8  UNL     1      25.738   5.142  20.238  1.00  0.00     0.040 C 
HETATM   10  C9  UNL     1      24.962   4.907  17.872  1.00  0.00     0.053 C 
HETATM   11  C10 UNL     1      25.117   6.436  17.911  1.00  0.00     0.185 C 
HETATM   12  O2  UNL     1      24.958   6.695  16.501  1.00  0.00    -0.337 OA
HETATM   13  C11 UNL     1      25.398   5.598  15.772  1.00  0.00     0.144 C 
HETATM   14  N1  UNL     1      25.329   5.443  14.501  1.00  0.00    -0.251 N 
ATOM     15  H1  UNL     1      25.699   4.575  14.112  1.00  0.00     0.196 HD
HETATM   16  C12 UNL     1      25.950   4.673  16.752  1.00  0.00     0.103 C 
HETATM   17  C13 UNL     1      26.262   3.320  16.390  1.00  0.00     0.176 C 
ENDROOT
BRANCH  14  18
HETATM   18  O3  UNL     1      24.801   6.346  13.632  1.00  0.00    -0.288 OA
ATOM     19  H3  UNL     1      24.223   6.133  12.908  1.00  0.00     0.244 HD
ENDBRANCH  14  18
BRANCH  17  20
HETATM   20  O4  UNL     1      26.916   3.346  15.148  1.00  0.00    -0.237 OA
BRANCH  20  21
HETATM   21  O5  UNL     1      28.141   3.784  15.228  1.00  0.00    -0.250 OA
ATOM     22  H5  UNL     1      28.197   4.732  15.208  1.00  0.00     0.253 HD
ENDBRANCH  20  21
ENDBRANCH  17  20
TORSDOF 3
ENDMDL
MODEL 3
REMARK VINA RESULT: -6.766090224      4.248      6.797
REMARK  3 active torsions:
REMARK  status: ('A' for Active; 'I' for Inactive)
REMARK    1  A    between atoms: N1_14  and  O3_16 
REMARK    2  A    between atoms: C13_19  and  O4_20 
REMARK    3  A    between atoms: O4_20  and  O5_21 
ROOT
HETATM    1  C1  UNL     1      24.353   3.605  18.537  1.00  0.00     0.012 C 
HETATM    2  C2  UNL     1      23.474   2.397  18.928  1.00  0.00     0.017 C 
HETATM    3  C3  UNL     1      24.217   1.182  18.711  1.00  0.00     0.044 C 
HETATM    4  C4  UNL     1      25.063   0.552  19.739  1.00  0.00     0.054 C 
HETATM    5  C5  UNL     1      25.903  -0.491  18.939  1.00  0.00     0.045 C 
HETATM    6  C6  UNL     1      26.128   1.452  20.311  1.00  0.00     0.045 C 
HETATM    7  O1  UNL     1      24.450  -0.258  20.654  1.00  0.00    -0.376 OA
HETATM    8  C7  UNL     1      23.635   0.311  21.585  1.00  0.00     0.125 C 
HETATM    9  C8  UNL     1      23.635  -0.450  22.913  1.00  0.00     0.040 C 
HETATM   10  C9  UNL     1      22.301   0.429  20.989  1.00  0.00     0.053 C 
HETATM   11  C10 UNL     1      21.137   0.035  21.913  1.00  0.00     0.185 C 
HETATM   12  O2  UNL     1      20.066   0.658  21.174  1.00  0.00    -0.337 OA
HETATM   13  C11 UNL     1      20.554   1.763  20.488  1.00  0.00     0.144 C 
HETATM   14  N1  UNL     1      19.906   2.504  19.667  1.00  0.00    -0.251 N 
ATOM     15  H1  UNL     1      20.407   3.284  19.241  1.00  0.00     0.196 HD
HETATM   16  C12 UNL     1      21.945   1.896  20.900  1.00  0.00     0.103 C 
HETATM   17  C13 UNL     1      22.838   2.773  20.196  1.00  0.00     0.176 C 
ENDROOT
BRANCH  14  18
HETATM   18  O3  UNL     1      18.602   2.331  19.320  1.00  0.00    -0.288 OA
ATOM     19  H3  UNL     1      17.892   2.169  19.930  1.00  0.00     0.244 HD
ENDBRANCH  14  18
BRANCH  17  20
HETATM   20  O4  UNL     1      22.159   3.979  19.958  1.00  0.00    -0.237 OA
BRANCH  20  21
HETATM   21  O5  UNL     1      21.930   4.656  21.047  1.00  0.00    -0.250 OA
ATOM     22  H5  UNL     1      22.387   4.306  21.803  1.00  0.00     0.253 HD
ENDBRANCH  20  21
ENDBRANCH  17  20
TORSDOF 3
ENDMDL
MODEL 4
REMARK VINA RESULT: -6.678504645      3.912      5.699
REMARK  3 active torsions:
REMARK  status: ('A' for Active; 'I' for Inactive)
REMARK    1  A    between atoms: N1_14  and  O3_16 
REMARK    2  A    between atoms: C13_19  and  O4_20 
REMARK    3  A    between atoms: O4_20  and  O5_21 
ROOT
HETATM    1  C1  UNL     1      23.798   4.954  18.857  1.00  0.00     0.012 C 
HETATM    2  C2  UNL     1      23.253   3.509  18.827  1.00  0.00     0.017 C 
HETATM    3  C3  UNL     1      24.132   2.688  18.035  1.00  0.00     0.044 C 
HETATM    4  C4  UNL     1      25.280   1.953  18.591  1.00  0.00     0.054 C 
HETATM    5  C5  UNL     1      26.094   1.526  17.330  1.00  0.00     0.045 C 
HETATM    6  C6  UNL     1      26.269   2.810  19.339  1.00  0.00     0.045 C 
HETATM    7  O1  UNL     1      25.035   0.736  19.163  1.00  0.00    -0.376 OA
HETATM    8  C7  UNL     1      24.357   0.695  20.344  1.00  0.00     0.125 C 
HETATM    9  C8  UNL     1      24.783  -0.480  21.228  1.00  0.00     0.040 C 
HETATM   10  C9  UNL     1      22.925   0.691  20.030  1.00  0.00     0.053 C 
HETATM   11  C10 UNL     1      22.080  -0.295  20.853  1.00  0.00     0.185 C 
HETATM   12  O2  UNL     1      20.781   0.270  20.583  1.00  0.00    -0.337 OA
HETATM   13  C11 UNL     1      20.905   1.635  20.356  1.00  0.00     0.144 C 
HETATM   14  N1  UNL     1      19.973   2.442  20.005  1.00  0.00    -0.251 N 
ATOM     15  H1  UNL     1      20.223   3.423  19.876  1.00  0.00     0.196 HD
HETATM   16  C12 UNL     1      22.306   1.947  20.599  1.00  0.00     0.103 C 
HETATM   17  C13 UNL     1      22.855   3.215  20.208  1.00  0.00     0.176 C 
ENDROOT
BRANCH  14  18
HETATM   18  O3  UNL     1      18.676   2.091  19.791  1.00  0.00    -0.288 OA
ATOM     19  H3  UNL     1      18.379   1.223  19.543  1.00  0.00     0.244 HD
ENDBRANCH  14  18
BRANCH  17  20
HETATM   20  O4  UNL     1      21.939   4.213  20.579  1.00  0.00    -0.237 OA
BRANCH  20  21
HETATM   21  O5  UNL     1      21.909   4.422  21.865  1.00  0.00    -0.250 OA
ATOM     22  H5  UNL     1      21.084   4.787  22.161  1.00  0.00     0.253 HD
ENDBRANCH  20  21
ENDBRANCH  17  20
TORSDOF 3
ENDMDL
MODEL 5
REMARK VINA RESULT: -6.615150328      3.021      5.416
REMARK  3 active torsions:
REMARK  status: ('A' for Active; 'I' for Inactive)
REMARK    1  A    between atoms: N1_14  and  O3_16 
REMARK    2  A    between atoms: C13_19  and  O4_20 
REMARK    3  A    between atoms: O4_20  and  O5_21 
ROOT
HETATM    1  C1  UNL     1      27.032   3.743  16.111  1.00  0.00     0.012 C 
HETATM    2  C2  UNL     1      26.695   2.869  17.340  1.00  0.00     0.017 C 
HETATM    3  C3  UNL     1      26.647   3.701  18.514  1.00  0.00     0.044 C 
HETATM    4  C4  UNL     1      25.420   4.364  18.991  1.00  0.00     0.054 C 
HETATM    5  C5  UNL     1      25.941   5.396  20.039  1.00  0.00     0.045 C 
HETATM    6  C6  UNL     1      24.750   5.249  17.972  1.00  0.00     0.045 C 
HETATM    7  O1  UNL     1      24.562   3.627  19.759  1.00  0.00    -0.376 OA
HETATM    8  C7  UNL     1      23.863   2.618  19.169  1.00  0.00     0.125 C 
HETATM    9  C8  UNL     1      22.489   2.400  19.810  1.00  0.00     0.040 C 
HETATM   10  C9  UNL     1      24.708   1.421  19.197  1.00  0.00     0.053 C 
HETATM   11  C10 UNL     1      23.986   0.122  19.589  1.00  0.00     0.185 C 
HETATM   12  O2  UNL     1      24.971  -0.816  19.109  1.00  0.00    -0.337 OA
HETATM   13  C11 UNL     1      25.659  -0.262  18.037  1.00  0.00     0.144 C 
HETATM   14  N1  UNL     1      26.657  -0.775  17.418  1.00  0.00    -0.251 N 
ATOM     15  H1  UNL     1      27.056  -0.242  16.645  1.00  0.00     0.196 HD
HETATM   16  C12 UNL     1      25.008   1.014  17.772  1.00  0.00     0.103 C 
HETATM   17  C13 UNL     1      25.614   1.980  16.900  1.00  0.00     0.176 C 
ENDROOT
BRANCH  14  18
HETATM   18  O3  UNL     1      27.225  -1.976  17.712  1.00  0.00    -0.288 OA
ATOM     19  H3  UNL     1      27.706  -2.517  17.097  1.00  0.00     0.244 HD
ENDBRANCH  14  18
BRANCH  17  20
HETATM   20  O4  UNL     1      26.094   1.299  15.770  1.00  0.00    -0.237 OA
BRANCH  20  21
HETATM   21  O5  UNL     1      25.141   0.893  14.979  1.00  0.00    -0.250 OA
ATOM     22  H5  UNL     1      25.467   0.503  14.177  1.00  0.00     0.253 HD
ENDBRANCH  20  21
ENDBRANCH  17  20
TORSDOF 3
ENDMDL
