MODEL 1
REMARK VINA RESULT: -6.625354917      0.000      0.000
REMARK  2 active torsions:
REMARK  status: ('A' for Active; 'I' for Inactive)
REMARK    1  A    between atoms: C4_10  and  C5_11 
REMARK    2  A    between atoms: S1_22  and  N4_23 
ROOT
HETATM    1  N1  UNL     1      26.692  -1.353  13.258  1.00  0.00    -0.379 N 
ATOM      2  H11 UNL     1      25.783  -1.815  13.251  1.00  0.00     0.158 HD
ATOM      3  H12 UNL     1      27.096  -1.564  12.345  1.00  0.00     0.158 HD
HETATM    4  C1  UNL     1      27.257  -0.646  14.187  1.00  0.00     0.154 C 
HETATM    5  N2  UNL     1      28.513  -0.009  14.196  1.00  0.00    -0.302 N 
ATOM      6  H2  UNL     1      29.239  -0.237  13.516  1.00  0.00     0.171 HD
HETATM    7  C2  UNL     1      28.709   0.957  15.194  1.00  0.00     0.265 C 
HETATM    8  O1  UNL     1      29.791   1.644  15.360  1.00  0.00    -0.267 OA
HETATM    9  C3  UNL     1      27.581   1.164  16.085  1.00  0.00     0.084 C 
HETATM   10  C4  UNL     1      27.308   2.119  16.921  1.00  0.00     0.030 C 
HETATM   11  S1  UNL     1      26.553  -0.279  15.778  1.00  0.00    -0.024 SA
ENDROOT
BRANCH  10  12
HETATM   12  C5  UNL     1      26.071   2.093  17.723  1.00  0.00     0.149 C 
HETATM   13  C6  UNL     1      26.098   3.230  18.735  1.00  0.00     0.074 C 
HETATM   14  C7  UNL     1      24.766   3.555  18.135  1.00  0.00     0.067 C 
HETATM   15  C8  UNL     1      24.618   5.000  17.701  1.00  0.00     0.066 C 
HETATM   16  C11 UNL     1      23.653   3.240  19.099  1.00  0.00     0.066 C 
HETATM   17  O2  UNL     1      24.961   2.644  17.119  1.00  0.00    -0.371 OA
HETATM   18  C9  UNL     1      23.883   5.822  18.715  1.00  0.00     0.235 C 
HETATM   19  N3  UNL     1      24.169   5.438  20.075  1.00  0.00    -0.075 N 
HETATM   20  C10 UNL     1      23.846   4.066  20.361  1.00  0.00     0.235 C 
ATOM     21  H32 UNL     1      25.141   5.637  20.309  1.00  0.00     0.277 HD
ATOM     22  H31 UNL     1      23.704   6.063  20.733  1.00  0.00     0.277 HD
ENDBRANCH  10  12
BRANCH  11  23
HETATM   23  N4  UNL     1      27.008  -1.364  16.838  1.00  0.00    -0.373 NA
ATOM     24  H42 UNL     1      26.758  -2.268  16.435  1.00  0.00     0.164 HD
ATOM     25  H41 UNL     1      26.334  -1.413  17.603  1.00  0.00     0.164 HD
ENDBRANCH  11  23
TORSDOF 2
ENDMDL
MODEL 2
REMARK VINA RESULT: -6.437219926      2.917      3.591
REMARK  2 active torsions:
REMARK  status: ('A' for Active; 'I' for Inactive)
REMARK    1  A    between atoms: C4_10  and  C5_11 
REMARK    2  A    between atoms: S1_22  and  N4_23 
ROOT
HETATM    1  N1  UNL     1      25.405   4.959  14.606  1.00  0.00    -0.379 N 
ATOM      2  H11 UNL     1      24.436   5.140  14.347  1.00  0.00     0.158 HD
ATOM      3  H12 UNL     1      25.952   5.602  14.034  1.00  0.00     0.158 HD
HETATM    4  C1  UNL     1      25.890   4.114  15.463  1.00  0.00     0.154 C 
HETATM    5  N2  UNL     1      27.229   3.862  15.821  1.00  0.00    -0.302 N 
ATOM      6  H2  UNL     1      28.011   4.185  15.250  1.00  0.00     0.171 HD
HETATM    7  C2  UNL     1      27.427   3.142  17.009  1.00  0.00     0.265 C 
HETATM    8  O1  UNL     1      28.578   2.818  17.497  1.00  0.00    -0.267 OA
HETATM    9  C3  UNL     1      26.214   2.754  17.706  1.00  0.00     0.084 C 
HETATM   10  C4  UNL     1      26.014   2.332  18.918  1.00  0.00     0.030 C 
HETATM   11  S1  UNL     1      24.937   2.993  16.461  1.00  0.00    -0.024 SA
ENDROOT
BRANCH  10  12
HETATM   12  C5  UNL     1      24.657   1.999  19.390  1.00  0.00     0.149 C 
HETATM   13  C6  UNL     1      24.544   2.318  20.873  1.00  0.00     0.074 C 
HETATM   14  C7  UNL     1      23.344   3.096  20.430  1.00  0.00     0.067 C 
HETATM   15  C8  UNL     1      23.316   4.528  20.927  1.00  0.00     0.066 C 
HETATM   16  C11 UNL     1      22.074   2.421  20.874  1.00  0.00     0.066 C 
HETATM   17  O2  UNL     1      23.684   2.932  19.104  1.00  0.00    -0.371 OA
HETATM   18  C9  UNL     1      22.442   4.689  22.134  1.00  0.00     0.235 C 
HETATM   19  N3  UNL     1      22.479   3.552  23.019  1.00  0.00    -0.075 N 
HETATM   20  C10 UNL     1      22.071   2.325  22.391  1.00  0.00     0.235 C 
ATOM     21  H32 UNL     1      23.402   3.454  23.442  1.00  0.00     0.277 HD
ATOM     22  H31 UNL     1      21.926   3.730  23.858  1.00  0.00     0.277 HD
ENDBRANCH  10  12
BRANCH  11  23
HETATM   23  N4  UNL     1      24.790   1.598  15.724  1.00  0.00    -0.373 NA
ATOM     24  H42 UNL     1      24.025   1.715  15.060  1.00  0.00     0.164 HD
ATOM     25  H41 UNL     1      24.296   0.936  16.322  1.00  0.00     0.164 HD
ENDBRANCH  11  23
TORSDOF 2
ENDMDL
MODEL 3
REMARK VINA RESULT: -6.396786836      5.643      9.994
REMARK  2 active torsions:
REMARK  status: ('A' for Active; 'I' for Inactive)
REMARK    1  A    between atoms: C4_10  and  C5_11 
REMARK    2  A    between atoms: S1_22  and  N4_23 
ROOT
HETATM    1  N1  UNL     1      21.080   6.516  27.510  1.00  0.00    -0.379 N 
ATOM      2  H11 UNL     1      21.425   5.723  28.051  1.00  0.00     0.158 HD
ATOM      3  H12 UNL     1      20.891   7.239  28.204  1.00  0.00     0.158 HD
HETATM    4  C1  UNL     1      20.903   6.633  26.231  1.00  0.00     0.154 C 
HETATM    5  N2  UNL     1      20.427   7.729  25.484  1.00  0.00    -0.302 N 
ATOM      6  H2  UNL     1      19.939   8.509  25.922  1.00  0.00     0.171 HD
HETATM    7  C2  UNL     1      20.664   7.684  24.102  1.00  0.00     0.265 C 
HETATM    8  O1  UNL     1      20.304   8.594  23.258  1.00  0.00    -0.267 OA
HETATM    9  C3  UNL     1      21.371   6.506  23.633  1.00  0.00     0.084 C 
HETATM   10  C4  UNL     1      21.976   6.253  22.512  1.00  0.00     0.030 C 
HETATM   11  S1  UNL     1      21.233   5.372  25.022  1.00  0.00    -0.024 SA
ENDROOT
BRANCH  10  12
HETATM   12  C5  UNL     1      22.629   4.952  22.280  1.00  0.00     0.149 C 
HETATM   13  C6  UNL     1      22.107   4.346  20.985  1.00  0.00     0.074 C 
HETATM   14  C7  UNL     1      23.564   4.246  20.655  1.00  0.00     0.067 C 
HETATM   15  C8  UNL     1      23.936   4.830  19.307  1.00  0.00     0.066 C 
HETATM   16  C11 UNL     1      24.024   2.813  20.689  1.00  0.00     0.066 C 
HETATM   17  O2  UNL     1      23.901   5.013  21.750  1.00  0.00    -0.371 OA
HETATM   18  C9  UNL     1      24.063   3.774  18.251  1.00  0.00     0.235 C 
HETATM   19  N3  UNL     1      23.117   2.698  18.405  1.00  0.00    -0.075 N 
HETATM   20  C10 UNL     1      23.227   2.017  19.667  1.00  0.00     0.235 C 
ATOM     21  H32 UNL     1      22.165   3.030  18.255  1.00  0.00     0.277 HD
ATOM     22  H31 UNL     1      23.191   2.038  17.631  1.00  0.00     0.277 HD
ENDBRANCH  10  12
BRANCH  11  23
HETATM   23  N4  UNL     1      19.925   4.520  24.753  1.00  0.00    -0.373 NA
ATOM     24  H42 UNL     1      19.178   4.989  25.266  1.00  0.00     0.164 HD
ATOM     25  H41 UNL     1      19.926   3.682  25.335  1.00  0.00     0.164 HD
ENDBRANCH  11  23
TORSDOF 2
ENDMDL
MODEL 4
REMARK VINA RESULT: -6.382044005      3.072      4.037
REMARK  2 active torsions:
REMARK  status: ('A' for Active; 'I' for Inactive)
REMARK    1  A    between atoms: C4_10  and  C5_11 
REMARK    2  A    between atoms: S1_22  and  N4_23 
ROOT
HETATM    1  N1  UNL     1      28.780   1.634  14.813  1.00  0.00    -0.379 N 
ATOM      2  H11 UNL     1      29.362   0.868  15.151  1.00  0.00     0.158 HD
ATOM      3  H12 UNL     1      28.925   1.643  13.803  1.00  0.00     0.158 HD
HETATM    4  C1  UNL     1      28.011   2.444  15.472  1.00  0.00     0.154 C 
HETATM    5  N2  UNL     1      27.207   3.503  15.005  1.00  0.00    -0.302 N 
ATOM      6  H2  UNL     1      27.327   3.902  14.074  1.00  0.00     0.171 HD
HETATM    7  C2  UNL     1      26.232   3.978  15.895  1.00  0.00     0.265 C 
HETATM    8  O1  UNL     1      25.405   4.939  15.646  1.00  0.00    -0.267 OA
HETATM    9  C3  UNL     1      26.190   3.307  17.182  1.00  0.00     0.084 C 
HETATM   10  C4  UNL     1      25.289   3.292  18.117  1.00  0.00     0.030 C 
HETATM   11  S1  UNL     1      27.758   2.427  17.232  1.00  0.00    -0.024 SA
ENDROOT
BRANCH  10  12
HETATM   12  C5  UNL     1      25.492   2.515  19.353  1.00  0.00     0.149 C 
HETATM   13  C6  UNL     1      24.261   2.641  20.240  1.00  0.00     0.074 C 
HETATM   14  C7  UNL     1      24.320   1.145  20.226  1.00  0.00     0.067 C 
HETATM   15  C8  UNL     1      23.010   0.477  19.856  1.00  0.00     0.066 C 
HETATM   16  C11 UNL     1      24.754   0.614  21.566  1.00  0.00     0.066 C 
HETATM   17  O2  UNL     1      25.283   1.157  19.240  1.00  0.00    -0.371 OA
HETATM   18  C9  UNL     1      22.255   0.009  21.062  1.00  0.00     0.235 C 
HETATM   19  N3  UNL     1      22.393   0.887  22.196  1.00  0.00    -0.075 N 
HETATM   20  C10 UNL     1      23.755   1.063  22.621  1.00  0.00     0.235 C 
ATOM     21  H32 UNL     1      21.953   1.789  22.011  1.00  0.00     0.277 HD
ATOM     22  H31 UNL     1      21.810   0.571  22.972  1.00  0.00     0.277 HD
ENDBRANCH  10  12
BRANCH  11  23
HETATM   23  N4  UNL     1      28.780   3.410  17.938  1.00  0.00    -0.373 NA
ATOM     24  H42 UNL     1      28.859   4.218  17.320  1.00  0.00     0.164 HD
ATOM     25  H41 UNL     1      29.736   3.086  17.792  1.00  0.00     0.164 HD
ENDBRANCH  11  23
TORSDOF 2
ENDMDL
MODEL 5
REMARK VINA RESULT: -6.380333050      2.758      3.650
REMARK  2 active torsions:
REMARK  status: ('A' for Active; 'I' for Inactive)
REMARK    1  A    between atoms: C4_10  and  C5_11 
REMARK    2  A    between atoms: S1_22  and  N4_23 
ROOT
HETATM    1  N1  UNL     1      28.827   1.587  14.854  1.00  0.00    -0.379 N 
ATOM      2  H11 UNL     1      29.324   0.765  15.193  1.00  0.00     0.158 HD
ATOM      3  H12 UNL     1      29.132   1.692  13.885  1.00  0.00     0.158 HD
HETATM    4  C1  UNL     1      27.987   2.361  15.468  1.00  0.00     0.154 C 
HETATM    5  N2  UNL     1      27.300   3.498  14.998  1.00  0.00    -0.302 N 
ATOM      6  H2  UNL     1      27.579   3.983  14.145  1.00  0.00     0.171 HD
HETATM    7  C2  UNL     1      26.210   3.925  15.772  1.00  0.00     0.265 C 
HETATM    8  O1  UNL     1      25.463   4.945  15.502  1.00  0.00    -0.267 OA
HETATM    9  C3  UNL     1      25.944   3.131  16.956  1.00  0.00     0.084 C 
HETATM   10  C4  UNL     1      24.904   3.063  17.733  1.00  0.00     0.030 C 
HETATM   11  S1  UNL     1      27.456   2.178  17.155  1.00  0.00    -0.024 SA
ENDROOT
BRANCH  10  12
HETATM   12  C5  UNL     1      24.884   2.156  18.895  1.00  0.00     0.149 C 
HETATM   13  C6  UNL     1      24.647   2.962  20.164  1.00  0.00     0.074 C 
HETATM   14  C7  UNL     1      23.542   1.974  20.370  1.00  0.00     0.067 C 
HETATM   15  C8  UNL     1      22.194   2.604  20.663  1.00  0.00     0.066 C 
HETATM   16  C11 UNL     1      23.872   1.028  21.494  1.00  0.00     0.066 C 
HETATM   17  O2  UNL     1      23.702   1.475  19.095  1.00  0.00    -0.371 OA
HETATM   18  C9  UNL     1      21.882   2.612  22.128  1.00  0.00     0.235 C 
HETATM   19  N3  UNL     1      23.043   2.823  22.957  1.00  0.00    -0.075 N 
HETATM   20  C10 UNL     1      24.066   1.830  22.771  1.00  0.00     0.235 C 
ATOM     21  H32 UNL     1      23.419   3.761  22.818  1.00  0.00     0.277 HD
ATOM     22  H31 UNL     1      22.778   2.891  23.939  1.00  0.00     0.277 HD
ENDBRANCH  10  12
BRANCH  11  23
HETATM   23  N4  UNL     1      28.381   3.036  18.113  1.00  0.00    -0.373 NA
ATOM     24  H42 UNL     1      29.305   3.035  17.680  1.00  0.00     0.164 HD
ATOM     25  H41 UNL     1      28.657   2.481  18.924  1.00  0.00     0.164 HD
ENDBRANCH  11  23
TORSDOF 2
ENDMDL
