MODEL 1
REMARK VINA RESULT: -5.885521039      0.000      0.000
REMARK  3 active torsions:
REMARK  status: ('A' for Active; 'I' for Inactive)
REMARK    1  A    between atoms: N1_5  and  O1_7 
REMARK    2  A    between atoms: C5_9  and  N2_10 
REMARK    3  A    between atoms: C13_24  and  O3_25 
ROOT
HETATM    1  C1  UNL     1      22.979   2.098  19.449  1.00  0.00     0.036 C 
HETATM    2  C2  UNL     1      23.688   2.963  18.517  1.00  0.00    -0.019 C 
HETATM    3  C3  UNL     1      24.912   2.807  18.062  1.00  0.00     0.003 C 
HETATM    4  C4  UNL     1      25.378   3.850  17.117  1.00  0.00     0.090 C 
HETATM    5  N1  UNL     1      24.687   4.940  17.235  1.00  0.00    -0.269 N 
ATOM      6  H1  UNL     1      23.933   4.994  17.918  1.00  0.00     0.194 HD
HETATM    7  C5  UNL     1      26.415   3.922  16.105  1.00  0.00     0.331 C 
HETATM    8  N3  UNL     1      27.271   2.874  15.861  1.00  0.00    -0.384 N 
ATOM      9  H3  UNL     1      27.992   2.984  15.146  1.00  0.00     0.156 HD
HETATM   10  C6  UNL     1      27.188   1.660  16.558  1.00  0.00     0.113 C 
HETATM   11  C7  UNL     1      26.052   0.839  15.990  1.00  0.00     0.064 C 
HETATM   12  C8  UNL     1      25.530  -0.119  17.003  1.00  0.00     0.057 C 
HETATM   13  C9  UNL     1      24.287  -0.783  16.395  1.00  0.00     0.045 C 
HETATM   14  C10 UNL     1      26.535  -1.255  17.195  1.00  0.00     0.045 C 
HETATM   15  O2  UNL     1      25.159   0.435  18.186  1.00  0.00    -0.363 OA
HETATM   16  C11 UNL     1      25.722   1.651  18.502  1.00  0.00     0.115 C 
HETATM   17  C12 UNL     1      25.787   1.712  20.037  1.00  0.00     0.054 C 
HETATM   18  C13 UNL     1      27.164   1.763  18.051  1.00  0.00     0.179 C 
ENDROOT
BRANCH   5  19
HETATM   19  O1  UNL     1      24.972   6.017  16.442  1.00  0.00    -0.290 OA
ATOM     20  H1  UNL     1      24.594   6.865  16.643  1.00  0.00     0.244 HD
ENDBRANCH   5  19
BRANCH   7  21
HETATM   21  N2  UNL     1      25.743   4.283  14.842  1.00  0.00    -0.053 N 
ATOM     22  H23 UNL     1      24.744   4.076  14.841  1.00  0.00     0.277 HD
ATOM     23  H22 UNL     1      25.663   5.290  14.700  1.00  0.00     0.277 HD
ATOM     24  H21 UNL     1      26.255   3.810  14.096  1.00  0.00     0.277 HD
ENDBRANCH   7  21
BRANCH  18  25
HETATM   25  O3  UNL     1      27.576   3.068  18.411  1.00  0.00    -0.390 OA
ATOM     26  H3  UNL     1      27.870   3.048  19.314  1.00  0.00     0.210 HD
ENDBRANCH  18  25
TORSDOF 3
ENDMDL
MODEL 2
REMARK VINA RESULT: -5.861978509      2.411      4.221
REMARK  3 active torsions:
REMARK  status: ('A' for Active; 'I' for Inactive)
REMARK    1  A    between atoms: N1_5  and  O1_7 
REMARK    2  A    between atoms: C5_9  and  N2_10 
REMARK    3  A    between atoms: C13_24  and  O3_25 
ROOT
HETATM    1  C1  UNL     1      25.743   4.386  16.260  1.00  0.00     0.036 C 
HETATM    2  C2  UNL     1      25.497   2.971  16.018  1.00  0.00    -0.019 C 
HETATM    3  C3  UNL     1      25.582   1.989  16.890  1.00  0.00     0.003 C 
HETATM    4  C4  UNL     1      25.273   0.639  16.361  1.00  0.00     0.090 C 
HETATM    5  N1  UNL     1      25.398   0.595  15.072  1.00  0.00    -0.269 N 
ATOM      6  H1  UNL     1      25.678   1.430  14.557  1.00  0.00     0.194 HD
HETATM    7  C5  UNL     1      24.867  -0.622  16.952  1.00  0.00     0.331 C 
HETATM    8  N3  UNL     1      24.717  -0.777  18.309  1.00  0.00    -0.384 N 
ATOM      9  H3  UNL     1      24.444  -1.691  18.673  1.00  0.00     0.156 HD
HETATM   10  C6  UNL     1      24.927   0.276  19.213  1.00  0.00     0.113 C 
HETATM   11  C7  UNL     1      23.718   1.185  19.202  1.00  0.00     0.064 C 
HETATM   12  C8  UNL     1      24.086   2.563  19.628  1.00  0.00     0.057 C 
HETATM   13  C9  UNL     1      22.843   3.442  19.429  1.00  0.00     0.045 C 
HETATM   14  C10 UNL     1      24.348   2.578  21.134  1.00  0.00     0.045 C 
HETATM   15  O2  UNL     1      25.104   3.132  18.931  1.00  0.00    -0.363 OA
HETATM   16  C11 UNL     1      25.967   2.275  18.288  1.00  0.00     0.115 C 
HETATM   17  C12 UNL     1      27.328   2.988  18.238  1.00  0.00     0.054 C 
HETATM   18  C13 UNL     1      26.226   1.006  19.076  1.00  0.00     0.179 C 
ENDROOT
BRANCH   5  19
HETATM   19  O1  UNL     1      25.153  -0.572  14.402  1.00  0.00    -0.290 OA
ATOM     20  H1  UNL     1      25.580  -1.374  14.676  1.00  0.00     0.244 HD
ENDBRANCH   5  19
BRANCH   7  21
HETATM   21  N2  UNL     1      23.604  -1.007  16.293  1.00  0.00    -0.053 N 
ATOM     22  H23 UNL     1      22.833  -1.146  16.947  1.00  0.00     0.277 HD
ATOM     23  H22 UNL     1      23.180  -0.249  15.759  1.00  0.00     0.277 HD
ATOM     24  H21 UNL     1      23.811  -1.832  15.730  1.00  0.00     0.277 HD
ENDBRANCH   7  21
BRANCH  18  25
HETATM   25  O3  UNL     1      27.089   0.227  18.271  1.00  0.00    -0.390 OA
ATOM     26  H3  UNL     1      27.679  -0.250  18.842  1.00  0.00     0.210 HD
ENDBRANCH  18  25
TORSDOF 3
ENDMDL
MODEL 3
REMARK VINA RESULT: -5.835629082      2.963      4.408
REMARK  3 active torsions:
REMARK  status: ('A' for Active; 'I' for Inactive)
REMARK    1  A    between atoms: N1_5  and  O1_7 
REMARK    2  A    between atoms: C5_9  and  N2_10 
REMARK    3  A    between atoms: C13_24  and  O3_25 
ROOT
HETATM    1  C1  UNL     1      27.588   3.247  17.059  1.00  0.00     0.036 C 
HETATM    2  C2  UNL     1      27.092   2.411  18.143  1.00  0.00    -0.019 C 
HETATM    3  C3  UNL     1      26.170   1.475  18.066  1.00  0.00     0.003 C 
HETATM    4  C4  UNL     1      25.863   0.778  19.338  1.00  0.00     0.090 C 
HETATM    5  N1  UNL     1      26.222   1.484  20.364  1.00  0.00    -0.269 N 
ATOM      6  H1  UNL     1      26.656   2.396  20.229  1.00  0.00     0.194 HD
HETATM    7  C5  UNL     1      25.262  -0.495  19.686  1.00  0.00     0.331 C 
HETATM    8  N3  UNL     1      24.788  -1.364  18.732  1.00  0.00    -0.384 N 
ATOM      9  H3  UNL     1      24.361  -2.241  19.034  1.00  0.00     0.156 HD
HETATM   10  C6  UNL     1      24.870  -1.088  17.359  1.00  0.00     0.113 C 
HETATM   11  C7  UNL     1      26.279  -1.364  16.882  1.00  0.00     0.064 C 
HETATM   12  C8  UNL     1      26.596  -0.560  15.670  1.00  0.00     0.057 C 
HETATM   13  C9  UNL     1      28.083  -0.779  15.361  1.00  0.00     0.045 C 
HETATM   14  C10 UNL     1      25.849  -1.138  14.467  1.00  0.00     0.045 C 
HETATM   15  O2  UNL     1      26.398   0.778  15.794  1.00  0.00    -0.363 OA
HETATM   16  C11 UNL     1      25.519   1.185  16.771  1.00  0.00     0.115 C 
HETATM   17  C12 UNL     1      24.902   2.504  16.278  1.00  0.00     0.054 C 
HETATM   18  C13 UNL     1      24.341   0.243  16.927  1.00  0.00     0.179 C 
ENDROOT
BRANCH   5  19
HETATM   19  O1  UNL     1      26.018   1.003  21.628  1.00  0.00    -0.290 OA
ATOM     20  H1  UNL     1      26.713   0.534  22.074  1.00  0.00     0.244 HD
ENDBRANCH   5  19
BRANCH   7  21
HETATM   21  N2  UNL     1      26.246  -1.209  20.523  1.00  0.00    -0.053 N 
ATOM     22  H23 UNL     1      27.214  -0.993  20.281  1.00  0.00     0.277 HD
ATOM     23  H22 UNL     1      26.279  -0.871  21.484  1.00  0.00     0.277 HD
ATOM     24  H21 UNL     1      26.023  -2.201  20.450  1.00  0.00     0.277 HD
ENDBRANCH   7  21
BRANCH  18  25
HETATM   25  O3  UNL     1      23.565   0.776  17.983  1.00  0.00    -0.390 OA
ATOM     26  H3  UNL     1      23.918   1.628  18.211  1.00  0.00     0.210 HD
ENDBRANCH  18  25
TORSDOF 3
ENDMDL
MODEL 4
REMARK VINA RESULT: -5.614542315      3.088      5.262
REMARK  3 active torsions:
REMARK  status: ('A' for Active; 'I' for Inactive)
REMARK    1  A    between atoms: N1_5  and  O1_7 
REMARK    2  A    between atoms: C5_9  and  N2_10 
REMARK    3  A    between atoms: C13_24  and  O3_25 
ROOT
HETATM    1  C1  UNL     1      26.469   2.010  18.731  1.00  0.00     0.036 C 
HETATM    2  C2  UNL     1      25.478   2.950  19.235  1.00  0.00    -0.019 C 
HETATM    3  C3  UNL     1      24.371   2.663  19.886  1.00  0.00     0.003 C 
HETATM    4  C4  UNL     1      23.546   3.830  20.282  1.00  0.00     0.090 C 
HETATM    5  N1  UNL     1      23.818   4.871  19.560  1.00  0.00    -0.269 N 
ATOM      6  H1  UNL     1      24.527   4.814  18.829  1.00  0.00     0.194 HD
HETATM    7  C5  UNL     1      22.519   4.064  21.281  1.00  0.00     0.331 C 
HETATM    8  N3  UNL     1      22.073   3.067  22.116  1.00  0.00    -0.384 N 
ATOM      9  H3  UNL     1      21.339   3.283  22.791  1.00  0.00     0.156 HD
HETATM   10  C6  UNL     1      22.592   1.765  22.074  1.00  0.00     0.113 C 
HETATM   11  C7  UNL     1      23.926   1.739  22.787  1.00  0.00     0.064 C 
HETATM   12  C8  UNL     1      24.777   0.626  22.283  1.00  0.00     0.057 C 
HETATM   13  C9  UNL     1      26.155   0.781  22.941  1.00  0.00     0.045 C 
HETATM   14  C10 UNL     1      24.234  -0.705  22.804  1.00  0.00     0.045 C 
HETATM   15  O2  UNL     1      24.966   0.605  20.939  1.00  0.00    -0.363 OA
HETATM   16  C11 UNL     1      24.026   1.255  20.172  1.00  0.00     0.115 C 
HETATM   17  C12 UNL     1      23.988   0.523  18.821  1.00  0.00     0.054 C 
HETATM   18  C13 UNL     1      22.622   1.116  20.726  1.00  0.00     0.179 C 
ENDROOT
BRANCH   5  19
HETATM   19  O1  UNL     1      23.155   6.046  19.780  1.00  0.00    -0.290 OA
ATOM     20  H1  UNL     1      22.410   6.067  20.369  1.00  0.00     0.244 HD
ENDBRANCH   5  19
BRANCH   7  21
HETATM   21  N2  UNL     1      22.988   5.194  22.106  1.00  0.00    -0.053 N 
ATOM     22  H23 UNL     1      23.659   4.919  22.824  1.00  0.00     0.277 HD
ATOM     23  H22 UNL     1      23.598   5.836  21.602  1.00  0.00     0.277 HD
ATOM     24  H21 UNL     1      22.152   5.642  22.483  1.00  0.00     0.277 HD
ENDBRANCH   7  21
BRANCH  18  25
HETATM   25  O3  UNL     1      21.794   1.863  19.856  1.00  0.00    -0.390 OA
ATOM     26  H3  UNL     1      22.063   2.774  19.899  1.00  0.00     0.210 HD
ENDBRANCH  18  25
TORSDOF 3
ENDMDL
MODEL 5
REMARK VINA RESULT: -5.594042820      3.682      5.776
REMARK  3 active torsions:
REMARK  status: ('A' for Active; 'I' for Inactive)
REMARK    1  A    between atoms: N1_5  and  O1_7 
REMARK    2  A    between atoms: C5_9  and  N2_10 
REMARK    3  A    between atoms: C13_24  and  O3_25 
ROOT
HETATM    1  C1  UNL     1      25.519  -0.978  19.303  1.00  0.00     0.036 C 
HETATM    2  C2  UNL     1      24.168  -0.774  19.808  1.00  0.00    -0.019 C 
HETATM    3  C3  UNL     1      23.704   0.290  20.426  1.00  0.00     0.003 C 
HETATM    4  C4  UNL     1      22.279   0.221  20.830  1.00  0.00     0.090 C 
HETATM    5  N1  UNL     1      21.865  -1.005  20.899  1.00  0.00    -0.269 N 
ATOM      6  H1  UNL     1      22.502  -1.772  20.686  1.00  0.00     0.194 HD
HETATM    7  C5  UNL     1      21.261   1.201  21.159  1.00  0.00     0.331 C 
HETATM    8  N3  UNL     1      21.524   2.550  21.174  1.00  0.00    -0.384 N 
ATOM      9  H3  UNL     1      20.774   3.195  21.426  1.00  0.00     0.156 HD
HETATM   10  C6  UNL     1      22.787   3.071  20.855  1.00  0.00     0.113 C 
HETATM   11  C7  UNL     1      22.956   3.075  19.352  1.00  0.00     0.064 C 
HETATM   12  C8  UNL     1      24.397   3.027  18.979  1.00  0.00     0.057 C 
HETATM   13  C9  UNL     1      24.462   2.869  17.454  1.00  0.00     0.045 C 
HETATM   14  C10 UNL     1      25.043   4.383  19.267  1.00  0.00     0.045 C 
HETATM   15  O2  UNL     1      25.102   2.004  19.526  1.00  0.00    -0.363 OA
HETATM   16  C11 UNL     1      24.592   1.446  20.676  1.00  0.00     0.115 C 
HETATM   17  C12 UNL     1      25.796   0.918  21.473  1.00  0.00     0.054 C 
HETATM   18  C13 UNL     1      23.947   2.471  21.586  1.00  0.00     0.179 C 
ENDROOT
BRANCH   5  19
HETATM   19  O1  UNL     1      20.572  -1.269  21.257  1.00  0.00    -0.290 OA
ATOM     20  H1  UNL     1      19.865  -1.080  20.652  1.00  0.00     0.244 HD
ENDBRANCH   5  19
BRANCH   7  21
HETATM   21  N2  UNL     1      20.131   0.954  20.243  1.00  0.00    -0.053 N 
ATOM     22  H23 UNL     1      19.367   1.621  20.355  1.00  0.00     0.277 HD
ATOM     23  H22 UNL     1      20.345   1.169  19.270  1.00  0.00     0.277 HD
ATOM     24  H21 UNL     1      19.846  -0.015  20.389  1.00  0.00     0.277 HD
ENDBRANCH   7  21
BRANCH  18  25
HETATM   25  O3  UNL     1      23.444   1.740  22.688  1.00  0.00    -0.390 OA
ATOM     26  H3  UNL     1      22.497   1.710  22.619  1.00  0.00     0.210 HD
ENDBRANCH  18  25
TORSDOF 3
ENDMDL
