MODEL 1
REMARK VINA RESULT: -6.667004992      0.000      0.000
REMARK  4 active torsions:
REMARK  status: ('A' for Active; 'I' for Inactive)
REMARK    1  A    between atoms: N1_1  and  O1_4 
REMARK    2  A    between atoms: O1_4  and  C1_5 
REMARK       I    between atoms: C1_5  and  N2_7 
REMARK    3  A    between atoms: N2_7  and  C2_8 
REMARK    4  A    between atoms: C2_8  and  O3_9 
ROOT
HETATM    1  C2  UNL     1      26.414   0.062  16.051  1.00  0.00     0.367 C 
HETATM    2  C3  UNL     1      26.155  -1.285  16.687  1.00  0.00     0.109 C 
HETATM    3  C4  UNL     1      25.154  -1.257  17.777  1.00  0.00     0.008 C 
HETATM    4  C5  UNL     1      25.726  -1.364  19.155  1.00  0.00     0.000 C 
HETATM    5  C6  UNL     1      24.634  -1.075  20.174  1.00  0.00     0.002 C 
HETATM    6  C7  UNL     1      24.675   0.373  20.620  1.00  0.00     0.026 C 
HETATM    7  C8  UNL     1      23.441   1.143  20.244  1.00  0.00     0.167 C 
HETATM    8  O4  UNL     1      23.598   1.959  19.126  1.00  0.00    -0.391 OA
HETATM    9  C9  UNL     1      24.138   3.196  19.464  1.00  0.00     0.167 C 
HETATM   10  C10 UNL     1      24.443   3.915  18.148  1.00  0.00     0.028 C 
HETATM   11  C11 UNL     1      25.712   3.390  17.531  1.00  0.00     0.030 C 
HETATM   12  C12 UNL     1      25.428   2.208  16.611  1.00  0.00     0.240 C 
HETATM   13  N3  UNL     1      26.250   1.127  17.053  1.00  0.00    -0.011 N 
ATOM     14  H31 UNL     1      27.157   1.471  17.367  1.00  0.00     0.284 HD
ATOM     15  H32 UNL     1      25.900   0.745  17.931  1.00  0.00     0.284 HD
ENDROOT
BRANCH   1  16
HETATM   16  N2  UNL     1      27.716   0.146  15.569  1.00  0.00    -0.321 NA
HETATM   17  C1  UNL     1      28.973   0.226  15.103  1.00  0.00     0.460 C 
HETATM   18  O2  UNL     1      29.821  -0.697  14.914  1.00  0.00    -0.219 OA
BRANCH  17  19
HETATM   19  O1  UNL     1      29.490   1.519  14.749  1.00  0.00    -0.177 OA
BRANCH  19  20
HETATM   20  N1  UNL     1      28.898   2.247  13.726  1.00  0.00    -0.300 N 
ATOM     21  H12 UNL     1      27.918   2.515  13.812  1.00  0.00     0.184 HD
ATOM     22  H11 UNL     1      29.442   2.506  12.903  1.00  0.00     0.184 HD
ENDBRANCH  19  20
ENDBRANCH  17  19
ENDBRANCH   1  16
BRANCH   1  23
HETATM   23  O3  UNL     1      25.478   0.334  15.020  1.00  0.00    -0.338 OA
ATOM     24  H3  UNL     1      24.894   1.039  15.273  1.00  0.00     0.215 HD
ENDBRANCH   1  23
TORSDOF 4
ENDMDL
MODEL 2
REMARK VINA RESULT: -6.542208278      6.438     10.143
REMARK  4 active torsions:
REMARK  status: ('A' for Active; 'I' for Inactive)
REMARK    1  A    between atoms: N1_1  and  O1_4 
REMARK    2  A    between atoms: O1_4  and  C1_5 
REMARK       I    between atoms: C1_5  and  N2_7 
REMARK    3  A    between atoms: N2_7  and  C2_8 
REMARK    4  A    between atoms: C2_8  and  O3_9 
ROOT
HETATM    1  C2  UNL     1      21.562   5.482  24.097  1.00  0.00     0.367 C 
HETATM    2  C3  UNL     1      21.622   6.636  23.121  1.00  0.00     0.109 C 
HETATM    3  C4  UNL     1      21.846   6.228  21.715  1.00  0.00     0.008 C 
HETATM    4  C5  UNL     1      23.229   6.478  21.203  1.00  0.00     0.000 C 
HETATM    5  C6  UNL     1      23.394   5.797  19.853  1.00  0.00     0.002 C 
HETATM    6  C7  UNL     1      24.046   4.437  20.006  1.00  0.00     0.026 C 
HETATM    7  C8  UNL     1      23.153   3.303  19.590  1.00  0.00     0.167 C 
HETATM    8  O4  UNL     1      22.556   2.629  20.654  1.00  0.00    -0.391 OA
HETATM    9  C9  UNL     1      23.391   1.642  21.171  1.00  0.00     0.167 C 
HETATM   10  C10 UNL     1      22.716   1.117  22.439  1.00  0.00     0.028 C 
HETATM   11  C11 UNL     1      22.920   2.067  23.589  1.00  0.00     0.030 C 
HETATM   12  C12 UNL     1      21.809   3.111  23.645  1.00  0.00     0.240 C 
HETATM   13  N3  UNL     1      22.437   4.392  23.637  1.00  0.00    -0.011 N 
ATOM     14  H31 UNL     1      23.302   4.372  24.176  1.00  0.00     0.284 HD
ATOM     15  H32 UNL     1      22.818   4.600  22.714  1.00  0.00     0.284 HD
ENDROOT
BRANCH   1  16
HETATM   16  N2  UNL     1      22.010   5.868  25.356  1.00  0.00    -0.321 NA
HETATM   17  C1  UNL     1      22.442   6.240  26.572  1.00  0.00     0.460 C 
HETATM   18  O2  UNL     1      23.593   6.114  27.090  1.00  0.00    -0.219 OA
BRANCH  17  19
HETATM   19  O1  UNL     1      21.513   6.879  27.462  1.00  0.00    -0.177 OA
BRANCH  19  20
HETATM   20  N1  UNL     1      20.159   6.900  27.155  1.00  0.00    -0.300 N 
ATOM     21  H12 UNL     1      19.848   6.520  26.261  1.00  0.00     0.184 HD
ATOM     22  H11 UNL     1      19.491   7.290  27.820  1.00  0.00     0.184 HD
ENDBRANCH  19  20
ENDBRANCH  17  19
ENDBRANCH   1  16
BRANCH   1  23
HETATM   23  O3  UNL     1      20.253   4.940  24.174  1.00  0.00    -0.338 OA
ATOM     24  H3  UNL     1      19.646   5.452  23.653  1.00  0.00     0.215 HD
ENDBRANCH   1  23
TORSDOF 4
ENDMDL
MODEL 3
REMARK VINA RESULT: -6.475561099      7.065      9.517
REMARK  4 active torsions:
REMARK  status: ('A' for Active; 'I' for Inactive)
REMARK    1  A    between atoms: N1_1  and  O1_4 
REMARK    2  A    between atoms: O1_4  and  C1_5 
REMARK       I    between atoms: C1_5  and  N2_7 
REMARK    3  A    between atoms: N2_7  and  C2_8 
REMARK    4  A    between atoms: C2_8  and  O3_9 
ROOT
HETATM    1  C2  UNL     1      22.203   3.445  22.477  1.00  0.00     0.367 C 
HETATM    2  C3  UNL     1      22.455   4.600  21.534  1.00  0.00     0.109 C 
HETATM    3  C4  UNL     1      22.536   5.919  22.201  1.00  0.00     0.008 C 
HETATM    4  C5  UNL     1      21.331   6.787  22.018  1.00  0.00     0.000 C 
HETATM    5  C6  UNL     1      21.437   7.989  22.944  1.00  0.00     0.002 C 
HETATM    6  C7  UNL     1      20.671   7.753  24.231  1.00  0.00     0.026 C 
HETATM    7  C8  UNL     1      21.552   7.727  25.447  1.00  0.00     0.167 C 
HETATM    8  O4  UNL     1      21.835   6.446  25.917  1.00  0.00    -0.391 OA
HETATM    9  C9  UNL     1      20.834   5.976  26.763  1.00  0.00     0.167 C 
HETATM   10  C10 UNL     1      21.157   4.508  27.049  1.00  0.00     0.028 C 
HETATM   11  C11 UNL     1      20.759   3.635  25.888  1.00  0.00     0.030 C 
HETATM   12  C12 UNL     1      21.899   3.503  24.883  1.00  0.00     0.240 C 
HETATM   13  N3  UNL     1      21.383   3.896  23.612  1.00  0.00    -0.011 N 
ATOM     14  H31 UNL     1      20.418   3.587  23.505  1.00  0.00     0.284 HD
ATOM     15  H32 UNL     1      21.244   4.906  23.577  1.00  0.00     0.284 HD
ENDROOT
BRANCH   1  16
HETATM   16  N2  UNL     1      21.504   2.424  21.842  1.00  0.00    -0.321 NA
HETATM   17  C1  UNL     1      20.829   1.438  21.228  1.00  0.00     0.460 C 
HETATM   18  O2  UNL     1      21.271   0.463  20.549  1.00  0.00    -0.219 OA
BRANCH  17  19
HETATM   19  O1  UNL     1      19.396   1.431  21.319  1.00  0.00    -0.177 OA
BRANCH  19  20
HETATM   20  N1  UNL     1      18.642   0.787  20.347  1.00  0.00    -0.300 N 
ATOM     21  H12 UNL     1      18.904   0.892  19.367  1.00  0.00     0.184 HD
ATOM     22  H11 UNL     1      17.838   0.220  20.616  1.00  0.00     0.184 HD
ENDBRANCH  19  20
ENDBRANCH  17  19
ENDBRANCH   1  16
BRANCH   1  23
HETATM   23  O3  UNL     1      23.416   2.955  23.027  1.00  0.00    -0.338 OA
ATOM     24  H3  UNL     1      23.405   3.019  23.975  1.00  0.00     0.215 HD
ENDBRANCH   1  23
TORSDOF 4
ENDMDL
MODEL 4
REMARK VINA RESULT: -6.447017518      6.621     10.164
REMARK  4 active torsions:
REMARK  status: ('A' for Active; 'I' for Inactive)
REMARK    1  A    between atoms: N1_1  and  O1_4 
REMARK    2  A    between atoms: O1_4  and  C1_5 
REMARK       I    between atoms: C1_5  and  N2_7 
REMARK    3  A    between atoms: N2_7  and  C2_8 
REMARK    4  A    between atoms: C2_8  and  O3_9 
ROOT
HETATM    1  C2  UNL     1      21.320   5.502  24.344  1.00  0.00     0.367 C 
HETATM    2  C3  UNL     1      21.357   6.678  23.394  1.00  0.00     0.109 C 
HETATM    3  C4  UNL     1      21.606   6.308  21.982  1.00  0.00     0.008 C 
HETATM    4  C5  UNL     1      22.987   6.608  21.491  1.00  0.00     0.000 C 
HETATM    5  C6  UNL     1      23.185   5.962  20.129  1.00  0.00     0.002 C 
HETATM    6  C7  UNL     1      23.874   4.618  20.259  1.00  0.00     0.026 C 
HETATM    7  C8  UNL     1      23.017   3.469  19.809  1.00  0.00     0.167 C 
HETATM    8  O4  UNL     1      22.429   2.755  20.851  1.00  0.00    -0.391 OA
HETATM    9  C9  UNL     1      23.286   1.781  21.355  1.00  0.00     0.167 C 
HETATM   10  C10 UNL     1      22.613   1.209  22.604  1.00  0.00     0.028 C 
HETATM   11  C11 UNL     1      22.779   2.139  23.777  1.00  0.00     0.030 C 
HETATM   12  C12 UNL     1      21.638   3.149  23.843  1.00  0.00     0.240 C 
HETATM   13  N3  UNL     1      22.230   4.447  23.870  1.00  0.00    -0.011 N 
ATOM     14  H31 UNL     1      23.089   4.439  24.418  1.00  0.00     0.284 HD
ATOM     15  H32 UNL     1      22.614   4.686  22.956  1.00  0.00     0.284 HD
ENDROOT
BRANCH   1  16
HETATM   16  N2  UNL     1      21.743   5.872  25.616  1.00  0.00    -0.321 NA
HETATM   17  C1  UNL     1      22.153   6.231  26.844  1.00  0.00     0.460 C 
HETATM   18  O2  UNL     1      21.501   6.791  27.777  1.00  0.00    -0.219 OA
BRANCH  17  19
HETATM   19  O1  UNL     1      23.515   5.969  27.215  1.00  0.00    -0.177 OA
BRANCH  19  20
HETATM   20  N1  UNL     1      24.079   4.727  26.954  1.00  0.00    -0.300 N 
ATOM     21  H12 UNL     1      24.206   4.069  27.722  1.00  0.00     0.184 HD
ATOM     22  H11 UNL     1      24.360   4.484  26.004  1.00  0.00     0.184 HD
ENDBRANCH  19  20
ENDBRANCH  17  19
ENDBRANCH   1  16
BRANCH   1  23
HETATM   23  O3  UNL     1      20.026   4.922  24.395  1.00  0.00    -0.338 OA
ATOM     24  H3  UNL     1      19.865   4.390  23.625  1.00  0.00     0.215 HD
ENDBRANCH   1  23
TORSDOF 4
ENDMDL
MODEL 5
REMARK VINA RESULT: -6.440694967      3.619      5.468
REMARK  4 active torsions:
REMARK  status: ('A' for Active; 'I' for Inactive)
REMARK    1  A    between atoms: N1_1  and  O1_4 
REMARK    2  A    between atoms: O1_4  and  C1_5 
REMARK       I    between atoms: C1_5  and  N2_7 
REMARK    3  A    between atoms: N2_7  and  C2_8 
REMARK    4  A    between atoms: C2_8  and  O3_9 
ROOT
HETATM    1  C2  UNL     1      25.120   3.889  17.499  1.00  0.00     0.367 C 
HETATM    2  C3  UNL     1      24.505   3.752  18.874  1.00  0.00     0.109 C 
HETATM    3  C4  UNL     1      23.462   4.759  19.174  1.00  0.00     0.008 C 
HETATM    4  C5  UNL     1      23.892   5.845  20.108  1.00  0.00     0.000 C 
HETATM    5  C6  UNL     1      22.828   6.932  20.135  1.00  0.00     0.002 C 
HETATM    6  C7  UNL     1      23.177   8.058  19.183  1.00  0.00     0.026 C 
HETATM    7  C8  UNL     1      22.189   8.211  18.061  1.00  0.00     0.167 C 
HETATM    8  O4  UNL     1      22.615   7.669  16.850  1.00  0.00    -0.391 OA
HETATM    9  C9  UNL     1      23.406   8.564  16.135  1.00  0.00     0.167 C 
HETATM   10  C10 UNL     1      23.966   7.793  14.938  1.00  0.00     0.028 C 
HETATM   11  C11 UNL     1      25.117   6.916  15.355  1.00  0.00     0.030 C 
HETATM   12  C12 UNL     1      24.630   5.537  15.787  1.00  0.00     0.240 C 
HETATM   13  N3  UNL     1      25.139   5.305  17.100  1.00  0.00    -0.011 N 
ATOM     14  H31 UNL     1      26.077   5.694  17.195  1.00  0.00     0.284 HD
ATOM     15  H32 UNL     1      24.646   5.879  17.783  1.00  0.00     0.284 HD
ENDROOT
BRANCH   1  16
HETATM   16  N2  UNL     1      26.436   3.440  17.493  1.00  0.00    -0.321 NA
HETATM   17  C1  UNL     1      27.707   3.006  17.486  1.00  0.00     0.460 C 
HETATM   18  O2  UNL     1      28.602   3.127  18.376  1.00  0.00    -0.219 OA
BRANCH  17  19
HETATM   19  O1  UNL     1      28.182   2.295  16.332  1.00  0.00    -0.177 OA
BRANCH  19  20
HETATM   20  N1  UNL     1      27.764   2.673  15.063  1.00  0.00    -0.300 N 
ATOM     21  H12 UNL     1      28.265   3.417  14.577  1.00  0.00     0.184 HD
ATOM     22  H11 UNL     1      26.966   2.209  14.629  1.00  0.00     0.184 HD
ENDBRANCH  19  20
ENDBRANCH  17  19
ENDBRANCH   1  16
BRANCH   1  23
HETATM   23  O3  UNL     1      24.352   3.206  16.520  1.00  0.00    -0.338 OA
ATOM     24  H3  UNL     1      24.671   2.319  16.401  1.00  0.00     0.215 HD
ENDBRANCH   1  23
TORSDOF 4
ENDMDL
