MODEL 1
REMARK VINA RESULT: -6.643711996      0.000      0.000
REMARK  5 active torsions:
REMARK  status: ('A' for Active; 'I' for Inactive)
REMARK    1  A    between atoms: N1_1  and  C1_5 
REMARK    2  A    between atoms: C1_5  and  C2_6 
REMARK    3  A    between atoms: C2_6  and  S1_7 
REMARK    4  A    between atoms: S1_7  and  C3_8 
REMARK    5  A    between atoms: N2_14  and  O1_15 
ROOT
HETATM    1  C3  UNL     1     -24.351  39.530  10.948  1.00  0.00     0.001 A 
HETATM    2  C4  UNL     1     -24.195  40.728  11.560  1.00  0.00     0.019 A 
HETATM    3  C5  UNL     1     -22.955  41.181  11.954  1.00  0.00     0.013 A 
HETATM    4  C6  UNL     1     -21.805  40.429  11.743  1.00  0.00    -0.023 A 
HETATM    5  C7  UNL     1     -20.549  40.850  12.123  1.00  0.00     0.032 A 
HETATM    6  C8  UNL     1     -19.438  40.040  11.878  1.00  0.00     0.123 A 
HETATM    7  N2  UNL     1     -19.591  38.849  11.271  1.00  0.00    -0.246 N 
HETATM    8  C9  UNL     1     -20.810  38.426  10.895  1.00  0.00     0.134 A 
HETATM    9  C10 UNL     1     -21.949  39.205  11.120  1.00  0.00    -0.007 A 
HETATM   10  C11 UNL     1     -23.194  38.767  10.732  1.00  0.00     0.032 A 
ENDROOT
BRANCH   1  11
HETATM   11  S1  UNL     1     -25.858  38.823  10.375  1.00  0.00    -0.128 SA
BRANCH  11  12
HETATM   12  C2  UNL     1     -26.175  39.030   8.631  1.00  0.00     0.106 C 
BRANCH  12  13
HETATM   13  C1  UNL     1     -25.748  37.798   7.872  1.00  0.00     0.240 C 
BRANCH  13  14
HETATM   14  N1  UNL     1     -24.662  38.081   6.952  1.00  0.00    -0.079 N 
ATOM     15  H13 UNL     1     -25.003  38.531   6.103  1.00  0.00     0.274 HD
ATOM     16  H12 UNL     1     -24.066  38.831   7.302  1.00  0.00     0.274 HD
ATOM     17  H11 UNL     1     -24.120  37.245   6.738  1.00  0.00     0.274 HD
ENDBRANCH  13  14
ENDBRANCH  12  13
ENDBRANCH  11  12
ENDBRANCH   1  11
BRANCH   7  18
HETATM   18  O1  UNL     1     -18.481  38.064  11.038  1.00  0.00    -0.284 OA
ATOM     19  H1  UNL     1     -18.234  37.408  11.679  1.00  0.00     0.245 HD
ENDBRANCH   7  18
TORSDOF 5
ENDMDL
MODEL 2
REMARK VINA RESULT: -6.386259346      1.069      1.069
REMARK  5 active torsions:
REMARK  status: ('A' for Active; 'I' for Inactive)
REMARK    1  A    between atoms: N1_1  and  C1_5 
REMARK    2  A    between atoms: C1_5  and  C2_6 
REMARK    3  A    between atoms: C2_6  and  S1_7 
REMARK    4  A    between atoms: S1_7  and  C3_8 
REMARK    5  A    between atoms: N2_14  and  O1_15 
ROOT
HETATM    1  C3  UNL     1     -24.331  39.516  10.950  1.00  0.00     0.001 A 
HETATM    2  C4  UNL     1     -24.180  40.714  11.564  1.00  0.00     0.019 A 
HETATM    3  C5  UNL     1     -22.941  41.173  11.957  1.00  0.00     0.013 A 
HETATM    4  C6  UNL     1     -21.788  40.426  11.743  1.00  0.00    -0.023 A 
HETATM    5  C7  UNL     1     -20.533  40.852  12.123  1.00  0.00     0.032 A 
HETATM    6  C8  UNL     1     -19.419  40.048  11.876  1.00  0.00     0.123 A 
HETATM    7  N2  UNL     1     -19.567  38.856  11.268  1.00  0.00    -0.246 N 
HETATM    8  C9  UNL     1     -20.784  38.428  10.893  1.00  0.00     0.134 A 
HETATM    9  C10 UNL     1     -21.927  39.202  11.120  1.00  0.00    -0.007 A 
HETATM   10  C11 UNL     1     -23.170  38.758  10.733  1.00  0.00     0.032 A 
ENDROOT
BRANCH   1  11
HETATM   11  S1  UNL     1     -25.835  38.802  10.379  1.00  0.00    -0.128 SA
BRANCH  11  12
HETATM   12  C2  UNL     1     -26.035  37.067  10.744  1.00  0.00     0.106 C 
BRANCH  12  13
HETATM   13  C1  UNL     1     -25.719  36.236   9.526  1.00  0.00     0.240 C 
BRANCH  13  14
HETATM   14  N1  UNL     1     -25.409  37.064   8.375  1.00  0.00    -0.079 N 
ATOM     15  H13 UNL     1     -25.477  36.533   7.507  1.00  0.00     0.274 HD
ATOM     16  H12 UNL     1     -26.144  37.749   8.202  1.00  0.00     0.274 HD
ATOM     17  H11 UNL     1     -24.498  37.513   8.466  1.00  0.00     0.274 HD
ENDBRANCH  13  14
ENDBRANCH  12  13
ENDBRANCH  11  12
ENDBRANCH   1  11
BRANCH   7  18
HETATM   18  O1  UNL     1     -18.454  38.077  11.033  1.00  0.00    -0.284 OA
ATOM     19  H1  UNL     1     -18.474  37.439  10.329  1.00  0.00     0.245 HD
ENDBRANCH   7  18
TORSDOF 5
ENDMDL
MODEL 3
REMARK VINA RESULT: -6.365938603      1.162      1.482
REMARK  5 active torsions:
REMARK  status: ('A' for Active; 'I' for Inactive)
REMARK    1  A    between atoms: N1_1  and  C1_5 
REMARK    2  A    between atoms: C1_5  and  C2_6 
REMARK    3  A    between atoms: C2_6  and  S1_7 
REMARK    4  A    between atoms: S1_7  and  C3_8 
REMARK    5  A    between atoms: N2_14  and  O1_15 
ROOT
HETATM    1  C3  UNL     1     -24.350  38.076  10.185  1.00  0.00     0.001 A 
HETATM    2  C4  UNL     1     -24.966  39.152  10.730  1.00  0.00     0.019 A 
HETATM    3  C5  UNL     1     -24.252  40.165  11.331  1.00  0.00     0.013 A 
HETATM    4  C6  UNL     1     -22.864  40.129  11.409  1.00  0.00    -0.023 A 
HETATM    5  C7  UNL     1     -22.117  41.124  12.003  1.00  0.00     0.032 A 
HETATM    6  C8  UNL     1     -20.726  41.020  12.045  1.00  0.00     0.123 A 
HETATM    7  N2  UNL     1     -20.111  39.951  11.506  1.00  0.00    -0.246 N 
HETATM    8  C9  UNL     1     -20.827  38.974  10.923  1.00  0.00     0.134 A 
HETATM    9  C10 UNL     1     -22.222  39.038  10.859  1.00  0.00    -0.007 A 
HETATM   10  C11 UNL     1     -22.950  38.034  10.261  1.00  0.00     0.032 A 
ENDROOT
BRANCH   1  11
HETATM   11  S1  UNL     1     -25.117  36.715   9.374  1.00  0.00    -0.128 SA
BRANCH  11  12
HETATM   12  C2  UNL     1     -26.497  37.141   8.325  1.00  0.00     0.106 C 
BRANCH  12  13
HETATM   13  C1  UNL     1     -26.110  38.250   7.377  1.00  0.00     0.240 C 
BRANCH  13  14
HETATM   14  N1  UNL     1     -24.827  37.998   6.749  1.00  0.00    -0.079 N 
ATOM     15  H13 UNL     1     -24.056  38.276   7.355  1.00  0.00     0.274 HD
ATOM     16  H12 UNL     1     -24.632  36.999   6.689  1.00  0.00     0.274 HD
ATOM     17  H11 UNL     1     -24.760  38.444   5.833  1.00  0.00     0.274 HD
ENDBRANCH  13  14
ENDBRANCH  12  13
ENDBRANCH  11  12
ENDBRANCH   1  11
BRANCH   7  18
HETATM   18  O1  UNL     1     -18.736  39.868  11.557  1.00  0.00    -0.284 OA
ATOM     19  H1  UNL     1     -18.283  39.285  10.959  1.00  0.00     0.245 HD
ENDBRANCH   7  18
TORSDOF 5
ENDMDL
MODEL 4
REMARK VINA RESULT: -6.275105020      3.193      5.344
REMARK  5 active torsions:
REMARK  status: ('A' for Active; 'I' for Inactive)
REMARK    1  A    between atoms: N1_1  and  C1_5 
REMARK    2  A    between atoms: C1_5  and  C2_6 
REMARK    3  A    between atoms: C2_6  and  S1_7 
REMARK    4  A    between atoms: S1_7  and  C3_8 
REMARK    5  A    between atoms: N2_14  and  O1_15 
ROOT
HETATM    1  C3  UNL     1     -22.658  39.979  12.230  1.00  0.00     0.001 A 
HETATM    2  C4  UNL     1     -23.998  40.128  12.102  1.00  0.00     0.019 A 
HETATM    3  C5  UNL     1     -24.690  39.562  11.053  1.00  0.00     0.013 A 
HETATM    4  C6  UNL     1     -24.044  38.814  10.075  1.00  0.00    -0.023 A 
HETATM    5  C7  UNL     1     -24.703  38.234   9.013  1.00  0.00     0.032 A 
HETATM    6  C8  UNL     1     -23.988  37.495   8.068  1.00  0.00     0.123 A 
HETATM    7  N2  UNL     1     -22.657  37.347   8.192  1.00  0.00    -0.246 N 
HETATM    8  C9  UNL     1     -22.001  37.907   9.223  1.00  0.00     0.134 A 
HETATM    9  C10 UNL     1     -22.677  38.655  10.192  1.00  0.00    -0.007 A 
HETATM   10  C11 UNL     1     -22.001  39.226  11.246  1.00  0.00     0.032 A 
ENDROOT
BRANCH   1  11
HETATM   11  S1  UNL     1     -21.640  40.624  13.513  1.00  0.00    -0.128 SA
BRANCH  11  12
HETATM   12  C2  UNL     1     -22.175  40.234  15.170  1.00  0.00     0.106 C 
BRANCH  12  13
HETATM   13  C1  UNL     1     -23.393  41.048  15.531  1.00  0.00     0.240 C 
BRANCH  13  14
HETATM   14  N1  UNL     1     -23.042  42.237  16.284  1.00  0.00    -0.079 N 
ATOM     15  H13 UNL     1     -22.163  42.114  16.785  1.00  0.00     0.274 HD
ATOM     16  H12 UNL     1     -22.768  43.001  15.666  1.00  0.00     0.274 HD
ATOM     17  H11 UNL     1     -23.793  42.522  16.914  1.00  0.00     0.274 HD
ENDBRANCH  13  14
ENDBRANCH  12  13
ENDBRANCH  11  12
ENDBRANCH   1  11
BRANCH   7  18
HETATM   18  O1  UNL     1     -21.969  36.614   7.248  1.00  0.00    -0.284 OA
ATOM     19  H1  UNL     1     -21.568  37.062   6.513  1.00  0.00     0.245 HD
ENDBRANCH   7  18
TORSDOF 5
ENDMDL
MODEL 5
REMARK VINA RESULT: -6.274124870      3.125      5.883
REMARK  5 active torsions:
REMARK  status: ('A' for Active; 'I' for Inactive)
REMARK    1  A    between atoms: N1_1  and  C1_5 
REMARK    2  A    between atoms: C1_5  and  C2_6 
REMARK    3  A    between atoms: C2_6  and  S1_7 
REMARK    4  A    between atoms: S1_7  and  C3_8 
REMARK    5  A    between atoms: N2_14  and  O1_15 
ROOT
HETATM    1  C3  UNL     1     -20.694  40.264  12.193  1.00  0.00     0.001 A 
HETATM    2  C4  UNL     1     -21.945  40.702  12.471  1.00  0.00     0.019 A 
HETATM    3  C5  UNL     1     -23.039  40.261  11.757  1.00  0.00     0.013 A 
HETATM    4  C6  UNL     1     -22.908  39.346  10.719  1.00  0.00    -0.023 A 
HETATM    5  C7  UNL     1     -23.979  38.883   9.984  1.00  0.00     0.032 A 
HETATM    6  C8  UNL     1     -23.772  37.964   8.953  1.00  0.00     0.123 A 
HETATM    7  N2  UNL     1     -22.529  37.528   8.676  1.00  0.00    -0.246 N 
HETATM    8  C9  UNL     1     -21.477  37.972   9.384  1.00  0.00     0.134 A 
HETATM    9  C10 UNL     1     -21.638  38.892  10.424  1.00  0.00    -0.007 A 
HETATM   10  C11 UNL     1     -20.556  39.342  11.146  1.00  0.00     0.032 A 
ENDROOT
BRANCH   1  11
HETATM   11  S1  UNL     1     -19.207  40.720  13.018  1.00  0.00    -0.128 SA
BRANCH  11  12
HETATM   12  C2  UNL     1     -17.957  41.450  11.974  1.00  0.00     0.106 C 
BRANCH  12  13
HETATM   13  C1  UNL     1     -16.784  41.908  12.805  1.00  0.00     0.240 C 
BRANCH  13  14
HETATM   14  N1  UNL     1     -15.635  42.232  11.982  1.00  0.00    -0.079 N 
ATOM     15  H13 UNL     1     -15.886  42.277  10.995  1.00  0.00     0.274 HD
ATOM     16  H12 UNL     1     -15.342  43.199  12.117  1.00  0.00     0.274 HD
ATOM     17  H11 UNL     1     -14.862  41.585  12.140  1.00  0.00     0.274 HD
ENDBRANCH  13  14
ENDBRANCH  12  13
ENDBRANCH  11  12
ENDBRANCH   1  11
BRANCH   7  18
HETATM   18  O1  UNL     1     -22.346  36.621   7.654  1.00  0.00    -0.284 OA
ATOM     19  H1  UNL     1     -21.613  36.018   7.694  1.00  0.00     0.245 HD
ENDBRANCH   7  18
TORSDOF 5
ENDMDL
