MODEL 1
REMARK VINA RESULT: -6.869777717      0.000      0.000
REMARK  4 active torsions:
REMARK  status: ('A' for Active; 'I' for Inactive)
REMARK    1  A    between atoms: C3_3  and  C4_4 
REMARK    2  A    between atoms: C4_4  and  C5_5 
REMARK    3  A    between atoms: C5_5  and  N1_6 
REMARK    4  A    between atoms: N1_6  and  C6_8 
ROOT
HETATM    1  C6  UNL     1     -23.032  38.620  10.203  1.00  0.00     0.118 A 
HETATM    2  C7  UNL     1     -22.282  38.447   9.061  1.00  0.00     0.138 A 
HETATM    3  N2  UNL     1     -22.856  38.234   7.874  1.00  0.00    -0.346 N 
ATOM      4  H2  UNL     1     -22.283  38.108   7.039  1.00  0.00     0.167 HD
HETATM    5  C8  UNL     1     -24.193  38.186   7.792  1.00  0.00     0.151 A 
HETATM    6  N3  UNL     1     -24.977  37.987   6.726  1.00  0.00    -0.335 N 
ATOM      7  H3  UNL     1     -24.666  37.834   5.766  1.00  0.00     0.168 HD
HETATM    8  C9  UNL     1     -26.243  38.026   7.151  1.00  0.00     0.183 A 
HETATM    9  N4  UNL     1     -26.260  38.249   8.492  1.00  0.00    -0.335 N 
ATOM     10  H4  UNL     1     -27.095  38.324   9.073  1.00  0.00     0.168 HD
HETATM   11  C10 UNL     1     -24.990  38.355   8.925  1.00  0.00     0.152 A 
HETATM   12  N5  UNL     1     -24.370  38.567  10.097  1.00  0.00    -0.325 N 
ATOM     13  H5  UNL     1     -24.935  38.694  10.937  1.00  0.00     0.169 HD
ENDROOT
BRANCH   1  14
HETATM   14  N1  UNL     1     -22.454  38.829  11.362  1.00  0.00    -0.375 N 
ATOM     15  H1  UNL     1     -21.599  38.332  11.608  1.00  0.00     0.161 HD
BRANCH  14  16
HETATM   16  C5  UNL     1     -23.043  39.770  12.285  1.00  0.00     0.126 C 
BRANCH  16  17
HETATM   17  C4  UNL     1     -22.579  41.166  12.031  1.00  0.00     0.058 C 
BRANCH  17  18
HETATM   18  C3  UNL     1     -21.081  41.142  11.878  1.00  0.00    -0.057 A 
HETATM   19  C2  UNL     1     -19.948  40.737  12.704  1.00  0.00     0.007 A 
HETATM   20  C1  UNL     1     -19.083  41.075  11.763  1.00  0.00     0.001 A 
HETATM   21  C11 UNL     1     -20.214  41.479  10.937  1.00  0.00     0.007 A 
ENDBRANCH  17  18
ENDBRANCH  16  17
ENDBRANCH  14  16
ENDBRANCH   1  14
TORSDOF 4
ENDMDL
MODEL 2
REMARK VINA RESULT: -6.766519520      1.644      2.449
REMARK  4 active torsions:
REMARK  status: ('A' for Active; 'I' for Inactive)
REMARK    1  A    between atoms: C3_3  and  C4_4 
REMARK    2  A    between atoms: C4_4  and  C5_5 
REMARK    3  A    between atoms: C5_5  and  N1_6 
REMARK    4  A    between atoms: N1_6  and  C6_8 
ROOT
HETATM    1  C6  UNL     1     -22.502  37.758   9.197  1.00  0.00     0.118 A 
HETATM    2  C7  UNL     1     -22.883  38.444   8.066  1.00  0.00     0.138 A 
HETATM    3  N2  UNL     1     -24.078  38.252   7.500  1.00  0.00    -0.346 N 
ATOM      4  H2  UNL     1     -24.342  38.770   6.662  1.00  0.00     0.167 HD
HETATM    5  C8  UNL     1     -24.926  37.369   8.046  1.00  0.00     0.151 A 
HETATM    6  N3  UNL     1     -26.158  37.015   7.659  1.00  0.00    -0.335 N 
ATOM      7  H3  UNL     1     -26.666  37.378   6.853  1.00  0.00     0.168 HD
HETATM    8  C9  UNL     1     -26.597  36.098   8.526  1.00  0.00     0.183 A 
HETATM    9  N4  UNL     1     -25.640  35.870   9.464  1.00  0.00    -0.335 N 
ATOM     10  H4  UNL     1     -25.714  35.216  10.242  1.00  0.00     0.168 HD
HETATM   11  C10 UNL     1     -24.579  36.651   9.192  1.00  0.00     0.152 A 
HETATM   12  N5  UNL     1     -23.368  36.878   9.726  1.00  0.00    -0.325 N 
ATOM     13  H5  UNL     1     -23.096  36.364  10.564  1.00  0.00     0.169 HD
ENDROOT
BRANCH   1  14
HETATM   14  N1  UNL     1     -21.326  37.958   9.741  1.00  0.00    -0.375 N 
ATOM     15  H1  UNL     1     -20.479  37.641   9.269  1.00  0.00     0.161 HD
BRANCH  14  16
HETATM   16  C5  UNL     1     -21.242  38.633  11.014  1.00  0.00     0.126 C 
BRANCH  16  17
HETATM   17  C4  UNL     1     -21.346  40.115  10.870  1.00  0.00     0.058 C 
BRANCH  17  18
HETATM   18  C3  UNL     1     -22.374  40.611  11.853  1.00  0.00    -0.057 A 
HETATM   19  C2  UNL     1     -23.679  41.258  11.770  1.00  0.00     0.007 A 
HETATM   20  C1  UNL     1     -23.793  41.298  13.087  1.00  0.00     0.001 A 
HETATM   21  C11 UNL     1     -22.489  40.652  13.171  1.00  0.00     0.007 A 
ENDBRANCH  17  18
ENDBRANCH  16  17
ENDBRANCH  14  16
ENDBRANCH   1  14
TORSDOF 4
ENDMDL
MODEL 3
REMARK VINA RESULT: -6.645526991      1.689      2.399
REMARK  4 active torsions:
REMARK  status: ('A' for Active; 'I' for Inactive)
REMARK    1  A    between atoms: C3_3  and  C4_4 
REMARK    2  A    between atoms: C4_4  and  C5_5 
REMARK    3  A    between atoms: C5_5  and  N1_6 
REMARK    4  A    between atoms: N1_6  and  C6_8 
ROOT
HETATM    1  C6  UNL     1     -23.681  37.771   8.374  1.00  0.00     0.118 A 
HETATM    2  C7  UNL     1     -24.468  38.268   7.360  1.00  0.00     0.138 A 
HETATM    3  N2  UNL     1     -25.703  37.805   7.143  1.00  0.00    -0.346 N 
ATOM      4  H2  UNL     1     -26.271  38.186   6.386  1.00  0.00     0.167 HD
HETATM    5  C8  UNL     1     -26.186  36.834   7.930  1.00  0.00     0.151 A 
HETATM    6  N3  UNL     1     -27.377  36.224   7.902  1.00  0.00    -0.335 N 
ATOM      7  H3  UNL     1     -28.137  36.411   7.247  1.00  0.00     0.168 HD
HETATM    8  C9  UNL     1     -27.386  35.324   8.890  1.00  0.00     0.183 A 
HETATM    9  N4  UNL     1     -26.196  35.366   9.546  1.00  0.00    -0.335 N 
ATOM     10  H4  UNL     1     -25.934  34.783  10.341  1.00  0.00     0.168 HD
HETATM   11  C10 UNL     1     -25.421  36.302   8.970  1.00  0.00     0.152 A 
HETATM   12  N5  UNL     1     -24.186  36.798   9.151  1.00  0.00    -0.325 N 
ATOM     13  H5  UNL     1     -23.611  36.423   9.905  1.00  0.00     0.169 HD
ENDROOT
BRANCH   1  14
HETATM   14  N1  UNL     1     -22.471  38.236   8.575  1.00  0.00    -0.375 N 
ATOM     15  H1  UNL     1     -21.911  38.570   7.792  1.00  0.00     0.161 HD
BRANCH  14  16
HETATM   16  C5  UNL     1     -21.941  38.269   9.917  1.00  0.00     0.126 C 
BRANCH  16  17
HETATM   17  C4  UNL     1     -22.287  39.537  10.624  1.00  0.00     0.058 C 
BRANCH  17  18
HETATM   18  C3  UNL     1     -21.003  40.199  11.053  1.00  0.00    -0.057 A 
HETATM   19  C2  UNL     1     -19.793  39.785  11.755  1.00  0.00     0.007 A 
HETATM   20  C1  UNL     1     -19.270  40.996  11.662  1.00  0.00     0.001 A 
HETATM   21  C11 UNL     1     -20.479  41.411  10.961  1.00  0.00     0.007 A 
ENDBRANCH  17  18
ENDBRANCH  16  17
ENDBRANCH  14  16
ENDBRANCH   1  14
TORSDOF 4
ENDMDL
MODEL 4
REMARK VINA RESULT: -6.547956033      1.767      2.960
REMARK  4 active torsions:
REMARK  status: ('A' for Active; 'I' for Inactive)
REMARK    1  A    between atoms: C3_3  and  C4_4 
REMARK    2  A    between atoms: C4_4  and  C5_5 
REMARK    3  A    between atoms: C5_5  and  N1_6 
REMARK    4  A    between atoms: N1_6  and  C6_8 
ROOT
HETATM    1  C6  UNL     1     -23.667  37.830   8.477  1.00  0.00     0.118 A 
HETATM    2  C7  UNL     1     -24.405  38.271   7.402  1.00  0.00     0.138 A 
HETATM    3  N2  UNL     1     -25.608  37.761   7.123  1.00  0.00    -0.346 N 
ATOM      4  H2  UNL     1     -26.139  38.101   6.322  1.00  0.00     0.167 HD
HETATM    5  C8  UNL     1     -26.108  36.797   7.909  1.00  0.00     0.151 A 
HETATM    6  N3  UNL     1     -27.275  36.147   7.826  1.00  0.00    -0.335 N 
ATOM      7  H3  UNL     1     -27.998  36.289   7.120  1.00  0.00     0.168 HD
HETATM    8  C9  UNL     1     -27.317  35.276   8.839  1.00  0.00     0.183 A 
HETATM    9  N4  UNL     1     -26.172  35.376   9.565  1.00  0.00    -0.335 N 
ATOM     10  H4  UNL     1     -25.943  34.826  10.393  1.00  0.00     0.168 HD
HETATM   11  C10 UNL     1     -25.393  36.321   9.009  1.00  0.00     0.152 A 
HETATM   12  N5  UNL     1     -24.188  36.863   9.251  1.00  0.00    -0.325 N 
ATOM     13  H5  UNL     1     -23.649  36.530  10.050  1.00  0.00     0.169 HD
ENDROOT
BRANCH   1  14
HETATM   14  N1  UNL     1     -22.487  38.341   8.738  1.00  0.00    -0.375 N 
ATOM     15  H1  UNL     1     -21.943  38.785   7.999  1.00  0.00     0.161 HD
BRANCH  14  16
HETATM   16  C5  UNL     1     -21.967  38.267  10.082  1.00  0.00     0.126 C 
BRANCH  16  17
HETATM   17  C4  UNL     1     -21.461  39.588  10.560  1.00  0.00     0.058 C 
BRANCH  17  18
HETATM   18  C3  UNL     1     -22.546  40.235  11.382  1.00  0.00    -0.057 A 
HETATM   19  C2  UNL     1     -24.004  40.235  11.381  1.00  0.00     0.007 A 
HETATM   20  C1  UNL     1     -24.050  41.052  12.419  1.00  0.00     0.001 A 
HETATM   21  C11 UNL     1     -22.593  41.053  12.421  1.00  0.00     0.007 A 
ENDBRANCH  17  18
ENDBRANCH  16  17
ENDBRANCH  14  16
ENDBRANCH   1  14
TORSDOF 4
ENDMDL
MODEL 5
REMARK VINA RESULT: -6.520244992      1.019      2.158
REMARK  4 active torsions:
REMARK  status: ('A' for Active; 'I' for Inactive)
REMARK    1  A    between atoms: C3_3  and  C4_4 
REMARK    2  A    between atoms: C4_4  and  C5_5 
REMARK    3  A    between atoms: C5_5  and  N1_6 
REMARK    4  A    between atoms: N1_6  and  C6_8 
ROOT
HETATM    1  C6  UNL     1     -22.737  38.491   9.830  1.00  0.00     0.118 A 
HETATM    2  C7  UNL     1     -22.398  37.846   8.661  1.00  0.00     0.138 A 
HETATM    3  N2  UNL     1     -23.315  37.549   7.736  1.00  0.00    -0.346 N 
ATOM      4  H2  UNL     1     -23.044  37.071   6.876  1.00  0.00     0.167 HD
HETATM    5  C8  UNL     1     -24.595  37.885   7.950  1.00  0.00     0.151 A 
HETATM    6  N3  UNL     1     -25.670  37.692   7.177  1.00  0.00    -0.335 N 
ATOM      7  H3  UNL     1     -25.685  37.239   6.264  1.00  0.00     0.168 HD
HETATM    8  C9  UNL     1     -26.721  38.204   7.825  1.00  0.00     0.183 A 
HETATM    9  N4  UNL     1     -26.309  38.722   9.012  1.00  0.00    -0.335 N 
ATOM     10  H4  UNL     1     -26.907  39.173   9.704  1.00  0.00     0.168 HD
HETATM   11  C10 UNL     1     -24.981  38.539   9.122  1.00  0.00     0.152 A 
HETATM   12  N5  UNL     1     -24.025  38.818  10.023  1.00  0.00    -0.325 N 
ATOM     13  H5  UNL     1     -24.287  39.296  10.886  1.00  0.00     0.169 HD
ENDROOT
BRANCH   1  14
HETATM   14  N1  UNL     1     -21.825  38.776  10.728  1.00  0.00    -0.375 N 
ATOM     15  H1  UNL     1     -21.595  38.105  11.460  1.00  0.00     0.161 HD
BRANCH  14  16
HETATM   16  C5  UNL     1     -21.152  40.052  10.670  1.00  0.00     0.126 C 
BRANCH  16  17
HETATM   17  C4  UNL     1     -20.954  40.642  12.028  1.00  0.00     0.058 C 
BRANCH  17  18
HETATM   18  C3  UNL     1     -22.309  40.835  12.657  1.00  0.00    -0.057 A 
HETATM   19  C2  UNL     1     -23.563  41.473  12.271  1.00  0.00     0.007 A 
HETATM   20  C1  UNL     1     -24.137  41.139  13.415  1.00  0.00     0.001 A 
HETATM   21  C11 UNL     1     -22.884  40.502  13.801  1.00  0.00     0.007 A 
ENDBRANCH  17  18
ENDBRANCH  16  17
ENDBRANCH  14  16
ENDBRANCH   1  14
TORSDOF 4
ENDMDL
