MODEL 1
REMARK VINA RESULT: -6.819304704      0.000      0.000
REMARK  4 active torsions:
REMARK  status: ('A' for Active; 'I' for Inactive)
REMARK    1  A    between atoms: C4_9  and  N4_10 
REMARK    2  A    between atoms: N4_10  and  C5_12 
REMARK    3  A    between atoms: C5_12  and  C6_13 
REMARK    4  A    between atoms: C6_13  and  C7_14 
ROOT
HETATM    1  N1  UNL     1     -20.220  37.790  11.100  1.00  0.00    -0.191 NA
HETATM    2  C1  UNL     1     -21.147  37.821  10.415  1.00  0.00     0.104 C 
HETATM    3  C2  UNL     1     -22.307  37.861   9.575  1.00  0.00     0.106 A 
HETATM    4  C3  UNL     1     -22.412  37.453   8.260  1.00  0.00     0.133 A 
HETATM    5  N2  UNL     1     -23.652  37.654   7.836  1.00  0.00    -0.309 N 
ATOM      6  H2  UNL     1     -24.015  37.445   6.907  1.00  0.00     0.186 HD
HETATM    7  N3  UNL     1     -24.327  38.175   8.843  1.00  0.00    -0.285 N 
ATOM      8  H3  UNL     1     -25.313  38.431   8.795  1.00  0.00     0.188 HD
HETATM    9  C4  UNL     1     -23.567  38.328   9.935  1.00  0.00     0.138 A 
ENDROOT
BRANCH   9  10
HETATM   10  N4  UNL     1     -23.879  38.801  11.098  1.00  0.00    -0.374 N 
ATOM     11  H4  UNL     1     -23.813  38.228  11.939  1.00  0.00     0.161 HD
BRANCH  10  12
HETATM   12  C5  UNL     1     -24.325  40.178  11.159  1.00  0.00     0.126 C 
BRANCH  12  13
HETATM   13  C6  UNL     1     -23.693  40.915  12.321  1.00  0.00     0.059 C 
BRANCH  13  14
HETATM   14  C7  UNL     1     -22.210  40.939  12.226  1.00  0.00    -0.041 A 
HETATM   15  C8  UNL     1     -21.562  41.414  11.099  1.00  0.00     0.010 A 
HETATM   16  C9  UNL     1     -20.179  41.431  11.020  1.00  0.00     0.018 A 
HETATM   17  C10 UNL     1     -19.417  40.970  12.078  1.00  0.00     0.087 A 
HETATM   18  N5  UNL     1     -20.054  40.517  13.153  1.00  0.00    -0.375 N 
HETATM   19  C11 UNL     1     -21.408  40.489  13.256  1.00  0.00     0.094 A 
ATOM     20  H5  UNL     1     -19.500  40.173  13.938  1.00  0.00     0.164 HD
ENDBRANCH  13  14
ENDBRANCH  12  13
ENDBRANCH  10  12
ENDBRANCH   9  10
TORSDOF 4
ENDMDL
MODEL 2
REMARK VINA RESULT: -6.741502381      1.282      2.333
REMARK  4 active torsions:
REMARK  status: ('A' for Active; 'I' for Inactive)
REMARK    1  A    between atoms: C4_9  and  N4_10 
REMARK    2  A    between atoms: N4_10  and  C5_12 
REMARK    3  A    between atoms: C5_12  and  C6_13 
REMARK    4  A    between atoms: C6_13  and  C7_14 
ROOT
HETATM    1  N1  UNL     1     -25.402  38.390   6.582  1.00  0.00    -0.191 NA
HETATM    2  C1  UNL     1     -24.614  38.182   7.396  1.00  0.00     0.104 C 
HETATM    3  C2  UNL     1     -23.639  37.934   8.417  1.00  0.00     0.106 A 
HETATM    4  C3  UNL     1     -22.513  37.140   8.333  1.00  0.00     0.133 A 
HETATM    5  N2  UNL     1     -21.868  37.169   9.491  1.00  0.00    -0.309 N 
ATOM      6  H2  UNL     1     -21.004  36.676   9.716  1.00  0.00     0.186 HD
HETATM    7  N3  UNL     1     -22.554  37.957  10.297  1.00  0.00    -0.285 N 
ATOM      8  H3  UNL     1     -22.284  38.161  11.259  1.00  0.00     0.188 HD
HETATM    9  C4  UNL     1     -23.646  38.457   9.706  1.00  0.00     0.138 A 
ENDROOT
BRANCH   9  10
HETATM   10  N4  UNL     1     -24.548  39.256  10.177  1.00  0.00    -0.374 N 
ATOM     11  H4  UNL     1     -25.315  39.592   9.595  1.00  0.00     0.161 HD
BRANCH  10  12
HETATM   12  C5  UNL     1     -24.426  39.653  11.564  1.00  0.00     0.126 C 
BRANCH  12  13
HETATM   13  C6  UNL     1     -23.812  41.032  11.695  1.00  0.00     0.059 C 
BRANCH  13  14
HETATM   14  C7  UNL     1     -22.355  40.969  11.977  1.00  0.00    -0.041 A 
HETATM   15  C8  UNL     1     -21.414  41.276  11.009  1.00  0.00     0.010 A 
HETATM   16  C9  UNL     1     -20.057  41.214  11.282  1.00  0.00     0.018 A 
HETATM   17  C10 UNL     1     -19.618  40.840  12.539  1.00  0.00     0.087 A 
HETATM   18  N5  UNL     1     -20.533  40.547  13.457  1.00  0.00    -0.375 N 
HETATM   19  C11 UNL     1     -21.869  40.601  13.216  1.00  0.00     0.094 A 
ATOM     20  H5  UNL     1     -20.218  40.269  14.387  1.00  0.00     0.164 HD
ENDBRANCH  13  14
ENDBRANCH  12  13
ENDBRANCH  10  12
ENDBRANCH   9  10
TORSDOF 4
ENDMDL
MODEL 3
REMARK VINA RESULT: -6.737561471      1.360      1.588
REMARK  4 active torsions:
REMARK  status: ('A' for Active; 'I' for Inactive)
REMARK    1  A    between atoms: C4_9  and  N4_10 
REMARK    2  A    between atoms: N4_10  and  C5_12 
REMARK    3  A    between atoms: C5_12  and  C6_13 
REMARK    4  A    between atoms: C6_13  and  C7_14 
ROOT
HETATM    1  N1  UNL     1     -21.630  36.842   8.363  1.00  0.00    -0.191 NA
HETATM    2  C1  UNL     1     -22.671  37.331   8.430  1.00  0.00     0.104 C 
HETATM    3  C2  UNL     1     -23.965  37.940   8.528  1.00  0.00     0.106 A 
HETATM    4  C3  UNL     1     -24.951  37.986   7.563  1.00  0.00     0.133 A 
HETATM    5  N2  UNL     1     -26.001  38.641   8.039  1.00  0.00    -0.309 N 
ATOM      6  H2  UNL     1     -26.873  38.826   7.545  1.00  0.00     0.186 HD
HETATM    7  N3  UNL     1     -25.704  39.006   9.272  1.00  0.00    -0.285 N 
ATOM      8  H3  UNL     1     -26.335  39.529   9.878  1.00  0.00     0.188 HD
HETATM    9  C4  UNL     1     -24.477  38.611   9.633  1.00  0.00     0.138 A 
ENDROOT
BRANCH   9  10
HETATM   10  N4  UNL     1     -23.850  38.785  10.751  1.00  0.00    -0.374 N 
ATOM     11  H4  UNL     1     -22.969  38.308  10.945  1.00  0.00     0.161 HD
BRANCH  10  12
HETATM   12  C5  UNL     1     -24.447  39.683  11.717  1.00  0.00     0.126 C 
BRANCH  12  13
HETATM   13  C6  UNL     1     -23.789  41.047  11.689  1.00  0.00     0.059 C 
BRANCH  13  14
HETATM   14  C7  UNL     1     -22.332  40.969  11.966  1.00  0.00    -0.041 A 
HETATM   15  C8  UNL     1     -21.391  41.321  11.014  1.00  0.00     0.010 A 
HETATM   16  C9  UNL     1     -20.034  41.244  11.282  1.00  0.00     0.018 A 
HETATM   17  C10 UNL     1     -19.594  40.810  12.520  1.00  0.00     0.087 A 
HETATM   18  N5  UNL     1     -20.510  40.475  13.424  1.00  0.00    -0.375 N 
HETATM   19  C11 UNL     1     -21.846  40.542  13.186  1.00  0.00     0.094 A 
ATOM     20  H5  UNL     1     -20.194  40.153  14.339  1.00  0.00     0.164 HD
ENDBRANCH  13  14
ENDBRANCH  12  13
ENDBRANCH  10  12
ENDBRANCH   9  10
TORSDOF 4
ENDMDL
MODEL 4
REMARK VINA RESULT: -6.624382009      1.473      1.987
REMARK  4 active torsions:
REMARK  status: ('A' for Active; 'I' for Inactive)
REMARK    1  A    between atoms: C4_9  and  N4_10 
REMARK    2  A    between atoms: N4_10  and  C5_12 
REMARK    3  A    between atoms: C5_12  and  C6_13 
REMARK    4  A    between atoms: C6_13  and  C7_14 
ROOT
HETATM    1  N1  UNL     1     -22.146  36.884   8.088  1.00  0.00    -0.191 NA
HETATM    2  C1  UNL     1     -23.116  36.918   8.711  1.00  0.00     0.104 C 
HETATM    3  C2  UNL     1     -24.315  36.969   9.495  1.00  0.00     0.106 A 
HETATM    4  C3  UNL     1     -25.390  36.104   9.450  1.00  0.00     0.133 A 
HETATM    5  N2  UNL     1     -26.301  36.492  10.331  1.00  0.00    -0.309 N 
ATOM      6  H2  UNL     1     -27.197  36.040  10.514  1.00  0.00     0.186 HD
HETATM    7  N3  UNL     1     -25.831  37.573  10.926  1.00  0.00    -0.285 N 
ATOM      8  H3  UNL     1     -26.330  38.084  11.654  1.00  0.00     0.188 HD
HETATM    9  C4  UNL     1     -24.624  37.918  10.464  1.00  0.00     0.138 A 
ENDROOT
BRANCH   9  10
HETATM   10  N4  UNL     1     -23.862  38.907  10.803  1.00  0.00    -0.374 N 
ATOM     11  H4  UNL     1     -22.945  39.041  10.377  1.00  0.00     0.161 HD
BRANCH  10  12
HETATM   12  C5  UNL     1     -24.362  39.818  11.812  1.00  0.00     0.126 C 
BRANCH  12  13
HETATM   13  C6  UNL     1     -23.660  41.158  11.748  1.00  0.00     0.059 C 
BRANCH  13  14
HETATM   14  C7  UNL     1     -22.203  41.036  12.010  1.00  0.00    -0.041 A 
HETATM   15  C8  UNL     1     -21.262  41.360  11.048  1.00  0.00     0.010 A 
HETATM   16  C9  UNL     1     -19.905  41.243  11.302  1.00  0.00     0.018 A 
HETATM   17  C10 UNL     1     -19.465  40.796  12.536  1.00  0.00     0.087 A 
HETATM   18  N5  UNL     1     -20.380  40.489  13.449  1.00  0.00    -0.375 N 
HETATM   19  C11 UNL     1     -21.717  40.595  13.225  1.00  0.00     0.094 A 
ATOM     20  H5  UNL     1     -20.065  40.158  14.361  1.00  0.00     0.164 HD
ENDBRANCH  13  14
ENDBRANCH  12  13
ENDBRANCH  10  12
ENDBRANCH   9  10
TORSDOF 4
ENDMDL
MODEL 5
REMARK VINA RESULT: -6.412548959      1.540      2.048
REMARK  4 active torsions:
REMARK  status: ('A' for Active; 'I' for Inactive)
REMARK    1  A    between atoms: C4_9  and  N4_10 
REMARK    2  A    between atoms: N4_10  and  C5_12 
REMARK    3  A    between atoms: C5_12  and  C6_13 
REMARK    4  A    between atoms: C6_13  and  C7_14 
ROOT
HETATM    1  N1  UNL     1     -21.840  36.749   8.198  1.00  0.00    -0.191 NA
HETATM    2  C1  UNL     1     -22.855  37.280   8.329  1.00  0.00     0.104 C 
HETATM    3  C2  UNL     1     -24.115  37.940   8.505  1.00  0.00     0.106 A 
HETATM    4  C3  UNL     1     -25.161  38.016   7.607  1.00  0.00     0.133 A 
HETATM    5  N2  UNL     1     -26.150  38.715   8.144  1.00  0.00    -0.309 N 
ATOM      6  H2  UNL     1     -27.046  38.930   7.708  1.00  0.00     0.186 HD
HETATM    7  N3  UNL     1     -25.757  39.080   9.350  1.00  0.00    -0.285 N 
ATOM      8  H3  UNL     1     -26.327  39.633   9.991  1.00  0.00     0.188 HD
HETATM    9  C4  UNL     1     -24.526  38.641   9.634  1.00  0.00     0.138 A 
ENDROOT
BRANCH   9  10
HETATM   10  N4  UNL     1     -23.818  38.800  10.706  1.00  0.00    -0.374 N 
ATOM     11  H4  UNL     1     -22.921  38.330  10.824  1.00  0.00     0.161 HD
BRANCH  10  12
HETATM   12  C5  UNL     1     -24.351  39.673  11.731  1.00  0.00     0.126 C 
BRANCH  12  13
HETATM   13  C6  UNL     1     -23.709  41.044  11.682  1.00  0.00     0.059 C 
BRANCH  13  14
HETATM   14  C7  UNL     1     -22.245  40.982  11.922  1.00  0.00    -0.041 A 
HETATM   15  C8  UNL     1     -21.724  40.575  13.138  1.00  0.00     0.010 A 
HETATM   16  C9  UNL     1     -20.356  40.521  13.352  1.00  0.00     0.018 A 
HETATM   17  C10 UNL     1     -19.481  40.876  12.341  1.00  0.00     0.087 A 
HETATM   18  N5  UNL     1     -19.996  41.265  11.180  1.00  0.00    -0.375 N 
HETATM   19  C11 UNL     1     -21.333  41.327  10.944  1.00  0.00     0.094 A 
ATOM     20  H5  UNL     1     -19.357  41.530  10.429  1.00  0.00     0.164 HD
ENDBRANCH  13  14
ENDBRANCH  12  13
ENDBRANCH  10  12
ENDBRANCH   9  10
TORSDOF 4
ENDMDL
