MODEL 1
REMARK VINA RESULT: -6.984469411      0.000      0.000
REMARK  8 active torsions:
REMARK  status: ('A' for Active; 'I' for Inactive)
REMARK    1  A    between atoms: N1_2  and  C2_5 
REMARK    2  A    between atoms: C2_5  and  C3_6 
REMARK    3  A    between atoms: C4_7  and  C5_8 
REMARK    4  A    between atoms: C5_8  and  C6_9 
REMARK       I    between atoms: N2_10  and  C7_12 
REMARK    5  A    between atoms: C7_12  and  C8_14 
REMARK    6  A    between atoms: C8_14  and  N3_15 
REMARK    7  A    between atoms: N3_15  and  C11_18 
REMARK    8  A    between atoms: C11_18  and  C12_19 
ROOT
HETATM    1  C12 UNL     1      -0.266  14.096  -9.430  1.00  0.00     0.227 C 
HETATM    2  C13 UNL     1       1.016  14.517 -10.059  1.00  0.00     0.080 C 
HETATM    3  C14 UNL     1       0.397  14.335 -11.453  1.00  0.00     0.277 C 
HETATM    4  N4  UNL     1      -0.870  14.363 -10.748  1.00  0.00     0.106 N 
HETATM    5  C15 UNL     1      -1.791  13.465 -11.269  1.00  0.00     0.278 C 
HETATM    6  C16 UNL     1      -2.456  12.504 -10.289  1.00  0.00     0.071 C 
HETATM    7  C17 UNL     1      -1.313  11.825  -9.645  1.00  0.00    -0.021 A 
HETATM    8  C18 UNL     1      -0.260  12.626  -9.247  1.00  0.00     0.058 A 
HETATM    9  N5  UNL     1       0.665  11.773  -8.710  1.00  0.00    -0.343 N 
ATOM     10  H5  UNL     1       1.563  12.064  -8.324  1.00  0.00     0.167 HD
HETATM   11  C19 UNL     1       0.236  10.505  -8.757  1.00  0.00     0.116 A 
HETATM   12  C20 UNL     1      -1.019  10.526  -9.349  1.00  0.00    -0.004 A 
HETATM   13  C21 UNL     1      -1.908   9.353  -9.626  1.00  0.00     0.063 C 
HETATM   14  C22 UNL     1      -1.185   8.276 -10.381  1.00  0.00     0.132 C 
HETATM   15  N6  UNL     1      -0.328   7.481  -9.520  1.00  0.00    -0.338 N 
HETATM   16  C23 UNL     1      -0.482   6.039  -9.528  1.00  0.00     0.154 C 
HETATM   17  C24 UNL     1       0.666   8.016  -8.652  1.00  0.00     0.323 C 
HETATM   18  O2  UNL     1       1.443   7.167  -8.107  1.00  0.00    -0.247 OA
HETATM   19  N7  UNL     1       0.945   9.360  -8.285  1.00  0.00    -0.294 N 
ATOM     20  H7  UNL     1       1.712   9.520  -7.632  1.00  0.00     0.172 HD
ENDROOT
BRANCH   1  21
HETATM   21  C11 UNL     1      -0.914  14.886  -8.409  1.00  0.00     0.285 C 
BRANCH  21  22
HETATM   22  N3  UNL     1      -0.772  16.269  -8.212  1.00  0.00    -0.064 N 
HETATM   23  C9  UNL     1      -1.487  16.566  -6.955  1.00  0.00     0.272 C 
HETATM   24  C10 UNL     1      -1.510  17.051  -9.234  1.00  0.00     0.272 C 
BRANCH  22  25
HETATM   25  C8  UNL     1       0.545  16.802  -8.051  1.00  0.00     0.339 C 
BRANCH  25  26
HETATM   26  C7  UNL     1       0.619  17.998  -7.164  1.00  0.00     0.247 C 
HETATM   27  N2  UNL     1       1.234  18.005  -5.892  1.00  0.00    -0.339 N 
HETATM   28  C6  UNL     1       0.751  18.743  -4.953  1.00  0.00     0.076 C 
ATOM     29  H2  UNL     1       2.057  17.428  -5.718  1.00  0.00     0.167 HD
HETATM   30  O1  UNL     1       0.108  19.104  -7.537  1.00  0.00    -0.271 OA
BRANCH  28  31
HETATM   31  C5  UNL     1       1.411  18.740  -3.611  1.00  0.00     0.138 C 
BRANCH  31  32
HETATM   32  C4  UNL     1       0.357  18.748  -2.579  1.00  0.00    -0.100 C 
HETATM   33  C3  UNL     1      -0.500  18.774  -1.732  1.00  0.00    -0.079 C 
BRANCH  33  34
HETATM   34  C2  UNL     1      -1.534  18.828  -0.685  1.00  0.00     0.325 C 
BRANCH  34  35
HETATM   35  N1  UNL     1      -2.822  18.766  -1.364  1.00  0.00    -0.069 N 
HETATM   36  C1  UNL     1      -3.831  19.522  -0.674  1.00  0.00     0.267 C 
ATOM     37  H12 UNL     1      -3.117  17.801  -1.510  1.00  0.00     0.277 HD
ATOM     38  H11 UNL     1      -2.741  19.059  -2.337  1.00  0.00     0.277 HD
ENDBRANCH  34  35
ENDBRANCH  33  34
ENDBRANCH  31  32
ENDBRANCH  28  31
ENDBRANCH  25  26
ENDBRANCH  22  25
ENDBRANCH  21  22
ENDBRANCH   1  21
TORSDOF 8
ENDMDL
MODEL 2
REMARK VINA RESULT: -6.802428641      1.890      2.304
REMARK  8 active torsions:
REMARK  status: ('A' for Active; 'I' for Inactive)
REMARK    1  A    between atoms: N1_2  and  C2_5 
REMARK    2  A    between atoms: C2_5  and  C3_6 
REMARK    3  A    between atoms: C4_7  and  C5_8 
REMARK    4  A    between atoms: C5_8  and  C6_9 
REMARK       I    between atoms: N2_10  and  C7_12 
REMARK    5  A    between atoms: C7_12  and  C8_14 
REMARK    6  A    between atoms: C8_14  and  N3_15 
REMARK    7  A    between atoms: N3_15  and  C11_18 
REMARK    8  A    between atoms: C11_18  and  C12_19 
ROOT
HETATM    1  C12 UNL     1      -0.370  14.934 -10.709  1.00  0.00     0.227 C 
HETATM    2  C13 UNL     1       0.937  15.211 -11.368  1.00  0.00     0.080 C 
HETATM    3  C14 UNL     1       0.398  14.632 -12.685  1.00  0.00     0.277 C 
HETATM    4  N4  UNL     1      -0.906  14.809 -12.076  1.00  0.00     0.106 N 
HETATM    5  C15 UNL     1      -1.778  13.771 -12.371  1.00  0.00     0.278 C 
HETATM    6  C16 UNL     1      -2.476  13.094 -11.197  1.00  0.00     0.071 C 
HETATM    7  C17 UNL     1      -1.357  12.657 -10.338  1.00  0.00    -0.021 A 
HETATM    8  C18 UNL     1      -0.344  13.572 -10.127  1.00  0.00     0.058 A 
HETATM    9  N5  UNL     1       0.567  12.931  -9.333  1.00  0.00    -0.343 N 
ATOM     10  H5  UNL     1       1.437  13.348  -9.001  1.00  0.00     0.167 HD
HETATM   11  C19 UNL     1       0.168  11.685  -9.049  1.00  0.00     0.116 A 
HETATM   12  C20 UNL     1      -1.053  11.499  -9.682  1.00  0.00    -0.004 A 
HETATM   13  C21 UNL     1      -1.902  10.266  -9.666  1.00  0.00     0.063 C 
HETATM   14  C22 UNL     1      -1.116   9.049 -10.061  1.00  0.00     0.132 C 
HETATM   15  N6  UNL     1      -0.292   8.550  -8.974  1.00  0.00    -0.338 N 
HETATM   16  C23 UNL     1      -0.415   7.157  -8.592  1.00  0.00     0.154 C 
HETATM   17  C24 UNL     1       0.642   9.337  -8.242  1.00  0.00     0.323 C 
HETATM   18  O2  UNL     1       1.405   8.698  -7.448  1.00  0.00    -0.247 OA
HETATM   19  N7  UNL     1       0.873  10.739  -8.247  1.00  0.00    -0.294 N 
ATOM     20  H7  UNL     1       1.600  11.098  -7.628  1.00  0.00     0.172 HD
ENDROOT
BRANCH   1  21
HETATM   21  C11 UNL     1      -1.088  15.951  -9.976  1.00  0.00     0.285 C 
BRANCH  21  22
HETATM   22  N3  UNL     1      -0.726  16.494  -8.733  1.00  0.00    -0.064 N 
HETATM   23  C9  UNL     1      -1.461  15.704  -7.725  1.00  0.00     0.272 C 
HETATM   24  C10 UNL     1      -1.250  17.870  -8.557  1.00  0.00     0.272 C 
BRANCH  22  25
HETATM   25  C8  UNL     1       0.650  16.446  -8.344  1.00  0.00     0.339 C 
BRANCH  25  26
HETATM   26  C7  UNL     1       1.393  17.720  -8.560  1.00  0.00     0.247 C 
HETATM   27  N2  UNL     1       1.985  18.478  -7.525  1.00  0.00    -0.339 N 
HETATM   28  C6  UNL     1       2.018  19.763  -7.613  1.00  0.00     0.076 C 
ATOM     29  H2  UNL     1       2.385  18.010  -6.712  1.00  0.00     0.167 HD
HETATM   30  O1  UNL     1       1.527  18.191  -9.736  1.00  0.00    -0.271 OA
BRANCH  28  31
HETATM   31  C5  UNL     1       2.647  20.553  -6.510  1.00  0.00     0.138 C 
BRANCH  31  32
HETATM   32  C4  UNL     1       2.116  20.057  -5.226  1.00  0.00    -0.100 C 
HETATM   33  C3  UNL     1       1.664  19.649  -4.186  1.00  0.00    -0.079 C 
BRANCH  33  34
HETATM   34  C2  UNL     1       1.087  19.158  -2.924  1.00  0.00     0.325 C 
BRANCH  34  35
HETATM   35  N1  UNL     1       2.206  18.817  -2.055  1.00  0.00    -0.069 N 
HETATM   36  C1  UNL     1       2.568  19.906  -1.189  1.00  0.00     0.267 C 
ATOM     37  H12 UNL     1       3.008  18.492  -2.594  1.00  0.00     0.277 HD
ATOM     38  H11 UNL     1       2.015  17.968  -1.522  1.00  0.00     0.277 HD
ENDBRANCH  34  35
ENDBRANCH  33  34
ENDBRANCH  31  32
ENDBRANCH  28  31
ENDBRANCH  25  26
ENDBRANCH  22  25
ENDBRANCH  21  22
ENDBRANCH   1  21
TORSDOF 8
ENDMDL
MODEL 3
REMARK VINA RESULT: -6.786475626      1.658      2.059
REMARK  8 active torsions:
REMARK  status: ('A' for Active; 'I' for Inactive)
REMARK    1  A    between atoms: N1_2  and  C2_5 
REMARK    2  A    between atoms: C2_5  and  C3_6 
REMARK    3  A    between atoms: C4_7  and  C5_8 
REMARK    4  A    between atoms: C5_8  and  C6_9 
REMARK       I    between atoms: N2_10  and  C7_12 
REMARK    5  A    between atoms: C7_12  and  C8_14 
REMARK    6  A    between atoms: C8_14  and  N3_15 
REMARK    7  A    between atoms: N3_15  and  C11_18 
REMARK    8  A    between atoms: C11_18  and  C12_19 
ROOT
HETATM    1  C12 UNL     1      -0.433  14.058  -9.188  1.00  0.00     0.227 C 
HETATM    2  C13 UNL     1       0.884  14.543  -9.688  1.00  0.00     0.080 C 
HETATM    3  C14 UNL     1       0.393  14.395 -11.135  1.00  0.00     0.277 C 
HETATM    4  N4  UNL     1      -0.930  14.357 -10.543  1.00  0.00     0.106 N 
HETATM    5  C15 UNL     1      -1.772  13.451 -11.173  1.00  0.00     0.278 C 
HETATM    6  C16 UNL     1      -2.485  12.434 -10.289  1.00  0.00     0.071 C 
HETATM    7  C17 UNL     1      -1.379  11.766  -9.573  1.00  0.00    -0.021 A 
HETATM    8  C18 UNL     1      -0.392  12.583  -9.057  1.00  0.00     0.058 A 
HETATM    9  N5  UNL     1       0.512  11.739  -8.472  1.00  0.00    -0.343 N 
ATOM     10  H5  UNL     1       1.363  12.043  -8.000  1.00  0.00     0.167 HD
HETATM   11  C19 UNL     1       0.133  10.461  -8.601  1.00  0.00     0.116 A 
HETATM   12  C20 UNL     1      -1.068  10.466  -9.299  1.00  0.00    -0.004 A 
HETATM   13  C21 UNL     1      -1.889   9.278  -9.693  1.00  0.00     0.063 C 
HETATM   14  C22 UNL     1      -1.067   8.254 -10.421  1.00  0.00     0.132 C 
HETATM   15  N6  UNL     1      -0.261   7.453  -9.516  1.00  0.00    -0.338 N 
HETATM   16  C23 UNL     1      -0.364   6.008  -9.589  1.00  0.00     0.154 C 
HETATM   17  C24 UNL     1       0.636   7.985  -8.547  1.00  0.00     0.323 C 
HETATM   18  O2  UNL     1       1.392   7.140  -7.967  1.00  0.00    -0.247 OA
HETATM   19  N7  UNL     1       0.837   9.322  -8.110  1.00  0.00    -0.294 N 
ATOM     20  H7  UNL     1       1.540   9.480  -7.388  1.00  0.00     0.172 HD
ENDROOT
BRANCH   1  21
HETATM   21  C11 UNL     1      -1.192  14.788  -8.200  1.00  0.00     0.285 C 
BRANCH  21  22
HETATM   22  N3  UNL     1      -2.130  15.802  -8.453  1.00  0.00    -0.064 N 
HETATM   23  C9  UNL     1      -2.321  16.498  -7.165  1.00  0.00     0.272 C 
HETATM   24  C10 UNL     1      -3.472  15.249  -8.760  1.00  0.00     0.272 C 
BRANCH  22  25
HETATM   25  C8  UNL     1      -1.796  16.817  -9.404  1.00  0.00     0.339 C 
BRANCH  25  26
HETATM   26  C7  UNL     1      -0.966  17.926  -8.851  1.00  0.00     0.247 C 
HETATM   27  N2  UNL     1       0.249  17.735  -8.156  1.00  0.00    -0.339 N 
HETATM   28  C6  UNL     1       0.568  18.533  -7.197  1.00  0.00     0.076 C 
ATOM     29  H2  UNL     1       0.871  16.968  -8.412  1.00  0.00     0.167 HD
HETATM   30  O1  UNL     1      -1.338  19.136  -8.992  1.00  0.00    -0.271 OA
BRANCH  28  31
HETATM   31  C5  UNL     1       1.856  18.320  -6.468  1.00  0.00     0.138 C 
BRANCH  31  32
HETATM   32  C4  UNL     1       1.614  18.539  -5.030  1.00  0.00    -0.100 C 
HETATM   33  C3  UNL     1       1.425  18.699  -3.850  1.00  0.00    -0.079 C 
BRANCH  33  34
HETATM   34  C2  UNL     1       1.195  18.868  -2.406  1.00  0.00     0.325 C 
BRANCH  34  35
HETATM   35  N1  UNL     1       2.456  19.315  -1.829  1.00  0.00    -0.069 N 
HETATM   36  C1  UNL     1       2.256  20.235  -0.743  1.00  0.00     0.267 C 
ATOM     37  H12 UNL     1       3.068  19.712  -2.542  1.00  0.00     0.277 HD
ATOM     38  H11 UNL     1       3.033  18.524  -1.543  1.00  0.00     0.277 HD
ENDBRANCH  34  35
ENDBRANCH  33  34
ENDBRANCH  31  32
ENDBRANCH  28  31
ENDBRANCH  25  26
ENDBRANCH  22  25
ENDBRANCH  21  22
ENDBRANCH   1  21
TORSDOF 8
ENDMDL
MODEL 4
REMARK VINA RESULT: -6.773856805      2.164      9.802
REMARK  8 active torsions:
REMARK  status: ('A' for Active; 'I' for Inactive)
REMARK    1  A    between atoms: N1_2  and  C2_5 
REMARK    2  A    between atoms: C2_5  and  C3_6 
REMARK    3  A    between atoms: C4_7  and  C5_8 
REMARK    4  A    between atoms: C5_8  and  C6_9 
REMARK       I    between atoms: N2_10  and  C7_12 
REMARK    5  A    between atoms: C7_12  and  C8_14 
REMARK    6  A    between atoms: C8_14  and  N3_15 
REMARK    7  A    between atoms: N3_15  and  C11_18 
REMARK    8  A    between atoms: C11_18  and  C12_19 
ROOT
HETATM    1  C12 UNL     1       0.135  18.832  -7.200  1.00  0.00     0.227 C 
HETATM    2  C13 UNL     1      -0.342  20.063  -7.890  1.00  0.00     0.080 C 
HETATM    3  C14 UNL     1       0.838  20.853  -7.305  1.00  0.00     0.277 C 
HETATM    4  N4  UNL     1       1.416  19.547  -7.054  1.00  0.00     0.106 N 
HETATM    5  C15 UNL     1       2.093  19.486  -5.844  1.00  0.00     0.278 C 
HETATM    6  C16 UNL     1       1.721  18.352  -4.895  1.00  0.00     0.071 C 
HETATM    7  C17 UNL     1       0.266  18.519  -4.714  1.00  0.00    -0.021 A 
HETATM    8  C18 UNL     1      -0.477  18.760  -5.853  1.00  0.00     0.058 A 
HETATM    9  N5  UNL     1      -1.769  18.898  -5.424  1.00  0.00    -0.343 N 
ATOM     10  H5  UNL     1      -2.563  19.086  -6.036  1.00  0.00     0.167 HD
HETATM   11  C19 UNL     1      -1.855  18.753  -4.096  1.00  0.00     0.116 A 
HETATM   12  C20 UNL     1      -0.568  18.512  -3.633  1.00  0.00    -0.004 A 
HETATM   13  C21 UNL     1      -0.145  18.285  -2.215  1.00  0.00     0.063 C 
HETATM   14  C22 UNL     1      -0.644  19.373  -1.308  1.00  0.00     0.132 C 
HETATM   15  N6  UNL     1      -2.044  19.203  -0.964  1.00  0.00    -0.338 N 
HETATM   16  C23 UNL     1      -2.419  19.194   0.436  1.00  0.00     0.154 C 
HETATM   17  C24 UNL     1      -3.095  19.040  -1.912  1.00  0.00     0.323 C 
HETATM   18  O2  UNL     1      -4.277  19.086  -1.443  1.00  0.00    -0.247 OA
HETATM   19  N7  UNL     1      -3.047  18.834  -3.317  1.00  0.00    -0.294 N 
ATOM     20  H7  UNL     1      -3.936  18.735  -3.808  1.00  0.00     0.172 HD
ENDROOT
BRANCH   1  21
HETATM   21  C11 UNL     1       0.330  17.586  -7.904  1.00  0.00     0.285 C 
BRANCH  21  22
HETATM   22  N3  UNL     1      -0.634  16.897  -8.657  1.00  0.00    -0.064 N 
HETATM   23  C9  UNL     1      -1.709  17.875  -8.918  1.00  0.00     0.272 C 
HETATM   24  C10 UNL     1      -1.304  15.839  -7.862  1.00  0.00     0.272 C 
BRANCH  22  25
HETATM   25  C8  UNL     1      -0.256  16.377  -9.935  1.00  0.00     0.339 C 
BRANCH  25  26
HETATM   26  C7  UNL     1       0.420  15.049  -9.881  1.00  0.00     0.247 C 
HETATM   27  N2  UNL     1      -0.221  13.822 -10.164  1.00  0.00    -0.339 N 
HETATM   28  C6  UNL     1       0.125  12.759  -9.524  1.00  0.00     0.076 C 
ATOM     29  H2  UNL     1      -0.954  13.778 -10.872  1.00  0.00     0.167 HD
HETATM   30  O1  UNL     1       1.651  14.969  -9.565  1.00  0.00    -0.271 OA
BRANCH  28  31
HETATM   31  C5  UNL     1      -0.561  11.466  -9.832  1.00  0.00     0.138 C 
BRANCH  31  32
HETATM   32  C4  UNL     1       0.032  10.415  -8.984  1.00  0.00    -0.100 C 
HETATM   33  C3  UNL     1       0.513   9.543  -8.305  1.00  0.00    -0.079 C 
BRANCH  33  34
HETATM   34  C2  UNL     1       1.087   8.459  -7.491  1.00  0.00     0.325 C 
BRANCH  34  35
HETATM   35  N1  UNL     1       1.302   7.330  -8.387  1.00  0.00    -0.069 N 
HETATM   36  C1  UNL     1       0.065   6.789  -8.880  1.00  0.00     0.267 C 
ATOM     37  H12 UNL     1       1.870   6.608  -7.942  1.00  0.00     0.277 HD
ATOM     38  H11 UNL     1       1.929   7.579  -9.152  1.00  0.00     0.277 HD
ENDBRANCH  34  35
ENDBRANCH  33  34
ENDBRANCH  31  32
ENDBRANCH  28  31
ENDBRANCH  25  26
ENDBRANCH  22  25
ENDBRANCH  21  22
ENDBRANCH   1  21
TORSDOF 8
ENDMDL
MODEL 5
REMARK VINA RESULT: -6.740025264      2.289      2.947
REMARK  8 active torsions:
REMARK  status: ('A' for Active; 'I' for Inactive)
REMARK    1  A    between atoms: N1_2  and  C2_5 
REMARK    2  A    between atoms: C2_5  and  C3_6 
REMARK    3  A    between atoms: C4_7  and  C5_8 
REMARK    4  A    between atoms: C5_8  and  C6_9 
REMARK       I    between atoms: N2_10  and  C7_12 
REMARK    5  A    between atoms: C7_12  and  C8_14 
REMARK    6  A    between atoms: C8_14  and  N3_15 
REMARK    7  A    between atoms: N3_15  and  C11_18 
REMARK    8  A    between atoms: C11_18  and  C12_19 
ROOT
HETATM    1  C12 UNL     1       0.065  16.774  -9.742  1.00  0.00     0.227 C 
HETATM    2  C13 UNL     1       1.304  17.035 -10.526  1.00  0.00     0.080 C 
HETATM    3  C14 UNL     1       0.530  16.800 -11.832  1.00  0.00     0.277 C 
HETATM    4  N4  UNL     1      -0.650  16.990 -11.012  1.00  0.00     0.106 N 
HETATM    5  C15 UNL     1      -1.687  16.136 -11.362  1.00  0.00     0.278 C 
HETATM    6  C16 UNL     1      -2.317  15.314 -10.243  1.00  0.00     0.071 C 
HETATM    7  C17 UNL     1      -1.170  14.591  -9.659  1.00  0.00    -0.021 A 
HETATM    8  C18 UNL     1      -0.023  15.327  -9.435  1.00  0.00     0.058 A 
HETATM    9  N5  UNL     1       0.885  14.442  -8.921  1.00  0.00    -0.343 N 
ATOM     10  H5  UNL     1       1.838  14.685  -8.651  1.00  0.00     0.167 HD
HETATM   11  C19 UNL     1       0.358  13.215  -8.818  1.00  0.00     0.116 A 
HETATM   12  C20 UNL     1      -0.948  13.298  -9.284  1.00  0.00    -0.004 A 
HETATM   13  C21 UNL     1      -1.948  12.187  -9.372  1.00  0.00     0.063 C 
HETATM   14  C22 UNL     1      -1.392  10.998 -10.101  1.00  0.00     0.132 C 
HETATM   15  N6  UNL     1      -0.514  10.201  -9.263  1.00  0.00    -0.338 N 
HETATM   16  C23 UNL     1      -0.779   8.781  -9.133  1.00  0.00     0.154 C 
HETATM   17  C24 UNL     1       0.603  10.715  -8.545  1.00  0.00     0.323 C 
HETATM   18  O2  UNL     1       1.365   9.847  -8.008  1.00  0.00    -0.247 OA
HETATM   19  N7  UNL     1       1.022  12.054  -8.322  1.00  0.00    -0.294 N 
ATOM     20  H7  UNL     1       1.863  12.198  -7.764  1.00  0.00     0.172 HD
ENDROOT
BRANCH   1  21
HETATM   21  C11 UNL     1      -0.409  17.692  -8.733  1.00  0.00     0.285 C 
BRANCH  21  22
HETATM   22  N3  UNL     1       0.385  18.494  -7.897  1.00  0.00    -0.064 N 
HETATM   23  C9  UNL     1      -0.523  18.994  -6.846  1.00  0.00     0.272 C 
HETATM   24  C10 UNL     1       0.843  19.726  -8.586  1.00  0.00     0.272 C 
BRANCH  22  25
HETATM   25  C8  UNL     1       1.483  17.886  -7.212  1.00  0.00     0.339 C 
BRANCH  25  26
HETATM   26  C7  UNL     1       1.951  18.638  -6.013  1.00  0.00     0.247 C 
HETATM   27  N2  UNL     1       1.686  18.250  -4.681  1.00  0.00    -0.339 N 
HETATM   28  C6  UNL     1       1.510  19.150  -3.776  1.00  0.00     0.076 C 
ATOM     29  H2  UNL     1       1.635  17.261  -4.436  1.00  0.00     0.167 HD
HETATM   30  O1  UNL     1       2.635  19.704  -6.152  1.00  0.00    -0.271 OA
BRANCH  28  31
HETATM   31  C5  UNL     1       1.230  18.725  -2.370  1.00  0.00     0.138 C 
BRANCH  31  32
HETATM   32  C4  UNL     1       1.189  19.933  -1.523  1.00  0.00    -0.100 C 
HETATM   33  C3  UNL     1       1.147  20.930  -0.848  1.00  0.00    -0.079 C 
BRANCH  33  34
HETATM   34  C2  UNL     1       1.096  22.163  -0.045  1.00  0.00     0.325 C 
BRANCH  34  35
HETATM   35  N1  UNL     1       1.709  21.855   1.240  1.00  0.00    -0.069 N 
HETATM   36  C1  UNL     1       0.745  21.398   2.202  1.00  0.00     0.267 C 
ATOM     37  H12 UNL     1       2.240  22.649   1.596  1.00  0.00     0.277 HD
ATOM     38  H11 UNL     1       2.472  21.186   1.134  1.00  0.00     0.277 HD
ENDBRANCH  34  35
ENDBRANCH  33  34
ENDBRANCH  31  32
ENDBRANCH  28  31
ENDBRANCH  25  26
ENDBRANCH  22  25
ENDBRANCH  21  22
ENDBRANCH   1  21
TORSDOF 8
ENDMDL
