MODEL 1
REMARK VINA RESULT: -6.609200575      0.000      0.000
REMARK  9 active torsions:
REMARK  status: ('A' for Active; 'I' for Inactive)
REMARK    1  A    between atoms: C3_3  and  N1_4 
REMARK    2  A    between atoms: N2_7  and  C6_8 
REMARK    3  A    between atoms: C7_9  and  O1_10 
REMARK    4  A    between atoms: C7_9  and  N3_12 
REMARK    5  A    between atoms: N3_12  and  C8_14 
REMARK    6  A    between atoms: C13_19  and  C14_20 
REMARK    7  A    between atoms: C14_20  and  S1_21 
REMARK    8  A    between atoms: S1_21  and  N4_22 
REMARK    9  A    between atoms: C22_33  and  O3_34 
ROOT
HETATM    1  C1  UNL     1      -1.000  10.250  -9.633  1.00  0.00     0.013 C 
HETATM    2  C2  UNL     1      -1.335  11.342 -10.034  1.00  0.00    -0.089 C 
HETATM    3  C3  UNL     1      -1.746  12.647 -10.541  1.00  0.00     0.332 C 
ENDROOT
BRANCH   3   4
HETATM    4  N1  UNL     1      -1.153  13.737  -9.881  1.00  0.00    -0.027 N 
HETATM    5  C4  UNL     1      -2.092  14.733  -9.385  1.00  0.00     0.269 C 
HETATM    6  C5  UNL     1      -1.090  15.831  -8.996  1.00  0.00     0.276 C 
HETATM    7  N2  UNL     1       0.086  15.546  -9.752  1.00  0.00     0.011 N 
HETATM    8  C21 UNL     1      -0.363  14.619 -10.767  1.00  0.00     0.483 C 
HETATM    9  C22 UNL     1       0.864  14.553  -8.944  1.00  0.00     0.357 C 
HETATM   10  C23 UNL     1      -0.197  13.459  -8.858  1.00  0.00     0.302 C 
BRANCH   7  11
HETATM   11  C6  UNL     1       0.902  16.604 -10.158  1.00  0.00     0.263 C 
HETATM   12  C7  UNL     1       1.440  17.501  -9.158  1.00  0.00     0.160 C 
BRANCH  12  13
HETATM   13  O1  UNL     1       2.189  18.452  -9.665  1.00  0.00    -0.345 OA
ATOM     14  H1  UNL     1       2.200  19.242  -9.137  1.00  0.00     0.219 HD
ENDBRANCH  12  13
BRANCH  12  15
HETATM   15  N3  UNL     1       1.306  17.540  -7.763  1.00  0.00    -0.365 N 
ATOM     16  H3  UNL     1       1.330  16.671  -7.231  1.00  0.00     0.162 HD
BRANCH  15  17
HETATM   17  C8  UNL     1       1.133  18.830  -7.051  1.00  0.00     0.088 C 
HETATM   18  C9  UNL     1      -0.334  18.973  -6.816  1.00  0.00     0.030 C 
HETATM   19  C10 UNL     1      -0.760  20.240  -6.162  1.00  0.00    -0.012 C 
HETATM   20  C11 UNL     1      -1.411  20.090  -4.819  1.00  0.00     0.005 C 
HETATM   21  C17 UNL     1       0.290  21.320  -6.168  1.00  0.00     0.009 C 
HETATM   22  C12 UNL     1      -0.789  19.099  -3.909  1.00  0.00     0.011 C 
HETATM   23  C13 UNL     1       0.692  19.275  -3.714  1.00  0.00    -0.027 C 
HETATM   24  C15 UNL     1       1.056  20.700  -3.861  1.00  0.00     0.015 C 
HETATM   25  C20 UNL     1       1.485  18.335  -4.593  1.00  0.00     0.017 C 
HETATM   26  C16 UNL     1       1.429  21.151  -5.253  1.00  0.00    -0.013 C 
HETATM   27  C18 UNL     1       2.547  20.293  -5.736  1.00  0.00     0.011 C 
HETATM   28  C19 UNL     1       2.009  18.881  -5.852  1.00  0.00     0.009 C 
BRANCH  23  29
HETATM   29  C14 UNL     1       1.006  18.856  -2.291  1.00  0.00     0.141 C 
BRANCH  29  30
HETATM   30  S1  UNL     1       1.977  19.935  -1.374  1.00  0.00     0.108 S 
HETATM   31  O2  UNL     1       1.338  21.199  -0.602  1.00  0.00    -0.236 OA
BRANCH  30  32
HETATM   32  N4  UNL     1       3.611  19.598  -1.203  1.00  0.00    -0.350 N 
ATOM     33  H42 UNL     1       4.109  19.116  -1.952  1.00  0.00     0.166 HD
ATOM     34  H41 UNL     1       4.096  19.939  -0.372  1.00  0.00     0.166 HD
ENDBRANCH  30  32
ENDBRANCH  29  30
ENDBRANCH  23  29
ENDBRANCH  15  17
ENDBRANCH  12  15
ENDBRANCH   7  11
BRANCH   9  35
HETATM   35  O3  UNL     1       1.901  14.078  -9.737  1.00  0.00    -0.368 OA
ATOM     36  H3  UNL     1       2.623  13.850  -9.164  1.00  0.00     0.212 HD
ENDBRANCH   9  35
ENDBRANCH   3   4
TORSDOF 9
ENDMDL
MODEL 2
REMARK VINA RESULT: -6.562493125      1.430      1.814
REMARK  9 active torsions:
REMARK  status: ('A' for Active; 'I' for Inactive)
REMARK    1  A    between atoms: C3_3  and  N1_4 
REMARK    2  A    between atoms: N2_7  and  C6_8 
REMARK    3  A    between atoms: C7_9  and  O1_10 
REMARK    4  A    between atoms: C7_9  and  N3_12 
REMARK    5  A    between atoms: N3_12  and  C8_14 
REMARK    6  A    between atoms: C13_19  and  C14_20 
REMARK    7  A    between atoms: C14_20  and  S1_21 
REMARK    8  A    between atoms: S1_21  and  N4_22 
REMARK    9  A    between atoms: C22_33  and  O3_34 
ROOT
HETATM    1  C1  UNL     1       0.765   9.412  -8.207  1.00  0.00     0.013 C 
HETATM    2  C2  UNL     1       0.006  10.078  -8.873  1.00  0.00    -0.089 C 
HETATM    3  C3  UNL     1      -0.915  10.861  -9.692  1.00  0.00     0.332 C 
ENDROOT
BRANCH   3   4
HETATM    4  N1  UNL     1      -0.750  12.252  -9.580  1.00  0.00    -0.027 N 
HETATM    5  C4  UNL     1      -1.971  13.025  -9.752  1.00  0.00     0.269 C 
HETATM    6  C5  UNL     1      -1.353  14.431  -9.829  1.00  0.00     0.276 C 
HETATM    7  N2  UNL     1       0.008  14.218 -10.199  1.00  0.00     0.011 N 
HETATM    8  C21 UNL     1       0.035  12.855 -10.680  1.00  0.00     0.483 C 
HETATM    9  C22 UNL     1       0.747  13.965  -8.922  1.00  0.00     0.357 C 
HETATM   10  C23 UNL     1      -0.046  12.752  -8.444  1.00  0.00     0.302 C 
BRANCH   7  11
HETATM   11  C6  UNL     1       0.659  15.187 -10.965  1.00  0.00     0.263 C 
HETATM   12  C7  UNL     1       1.306  16.295 -10.297  1.00  0.00     0.160 C 
BRANCH  12  13
HETATM   13  O1  UNL     1       1.880  17.135 -11.125  1.00  0.00    -0.345 OA
ATOM     14  H1  UNL     1       1.259  17.638 -11.640  1.00  0.00     0.219 HD
ENDBRANCH  12  13
BRANCH  12  15
HETATM   15  N3  UNL     1       1.429  16.631  -8.941  1.00  0.00    -0.365 N 
ATOM     16  H3  UNL     1       1.939  16.011  -8.313  1.00  0.00     0.162 HD
BRANCH  15  17
HETATM   17  C8  UNL     1       0.826  17.879  -8.409  1.00  0.00     0.088 C 
HETATM   18  C9  UNL     1      -0.550  17.510  -7.964  1.00  0.00     0.030 C 
HETATM   19  C10 UNL     1      -1.378  18.631  -7.443  1.00  0.00    -0.012 C 
HETATM   20  C11 UNL     1      -1.790  18.520  -6.005  1.00  0.00     0.005 C 
HETATM   21  C17 UNL     1      -0.845  19.999  -7.779  1.00  0.00     0.009 C 
HETATM   22  C12 UNL     1      -0.747  18.033  -5.072  1.00  0.00     0.011 C 
HETATM   23  C13 UNL     1       0.555  18.783  -5.148  1.00  0.00    -0.027 C 
HETATM   24  C15 UNL     1       0.312  20.180  -5.561  1.00  0.00     0.015 C 
HETATM   25  C20 UNL     1       1.571  18.049  -5.996  1.00  0.00     0.017 C 
HETATM   26  C16 UNL     1       0.348  20.451  -7.046  1.00  0.00    -0.013 C 
HETATM   27  C18 UNL     1       1.663  19.992  -7.572  1.00  0.00     0.011 C 
HETATM   28  C19 UNL     1       1.718  18.488  -7.389  1.00  0.00     0.009 C 
BRANCH  23  29
HETATM   29  C14 UNL     1       1.140  18.802  -3.749  1.00  0.00     0.141 C 
BRANCH  29  30
HETATM   30  S1  UNL     1       1.849  20.281  -3.239  1.00  0.00     0.108 S 
HETATM   31  O2  UNL     1       1.256  21.116  -1.992  1.00  0.00    -0.236 OA
BRANCH  30  32
HETATM   32  N4  UNL     1       3.249  20.805  -3.998  1.00  0.00    -0.350 N 
ATOM     33  H42 UNL     1       3.744  20.178  -4.634  1.00  0.00     0.166 HD
ATOM     34  H41 UNL     1       3.549  21.770  -3.858  1.00  0.00     0.166 HD
ENDBRANCH  30  32
ENDBRANCH  29  30
ENDBRANCH  23  29
ENDBRANCH  15  17
ENDBRANCH  12  15
ENDBRANCH   7  11
BRANCH   9  35
HETATM   35  O3  UNL     1       2.026  13.533  -9.248  1.00  0.00    -0.368 OA
ATOM     36  H3  UNL     1       2.575  14.302  -9.349  1.00  0.00     0.212 HD
ENDBRANCH   9  35
ENDBRANCH   3   4
TORSDOF 9
ENDMDL
MODEL 3
REMARK VINA RESULT: -6.373951591      1.566      2.055
REMARK  9 active torsions:
REMARK  status: ('A' for Active; 'I' for Inactive)
REMARK    1  A    between atoms: C3_3  and  N1_4 
REMARK    2  A    between atoms: N2_7  and  C6_8 
REMARK    3  A    between atoms: C7_9  and  O1_10 
REMARK    4  A    between atoms: C7_9  and  N3_12 
REMARK    5  A    between atoms: N3_12  and  C8_14 
REMARK    6  A    between atoms: C13_19  and  C14_20 
REMARK    7  A    between atoms: C14_20  and  S1_21 
REMARK    8  A    between atoms: S1_21  and  N4_22 
REMARK    9  A    between atoms: C22_33  and  O3_34 
ROOT
HETATM    1  C1  UNL     1       0.771   9.705  -8.117  1.00  0.00     0.013 C 
HETATM    2  C2  UNL     1       0.059  10.317  -8.881  1.00  0.00    -0.089 C 
HETATM    3  C3  UNL     1      -0.802  11.034  -9.816  1.00  0.00     0.332 C 
ENDROOT
BRANCH   3   4
HETATM    4  N1  UNL     1      -0.713  12.433  -9.727  1.00  0.00    -0.027 N 
HETATM    5  C4  UNL     1      -1.987  13.131  -9.836  1.00  0.00     0.269 C 
HETATM    6  C5  UNL     1      -1.459  14.569  -9.962  1.00  0.00     0.276 C 
HETATM    7  N2  UNL     1      -0.111  14.432 -10.408  1.00  0.00     0.011 N 
HETATM    8  C21 UNL     1      -0.030  13.067 -10.876  1.00  0.00     0.483 C 
HETATM    9  C22 UNL     1       0.714  14.240  -9.173  1.00  0.00     0.357 C 
HETATM   10  C23 UNL     1       0.022  12.990  -8.638  1.00  0.00     0.302 C 
BRANCH   7  11
HETATM   11  C6  UNL     1       0.437  15.428 -11.220  1.00  0.00     0.263 C 
HETATM   12  C7  UNL     1       0.368  16.807 -10.786  1.00  0.00     0.160 C 
BRANCH  12  13
HETATM   13  O1  UNL     1       0.916  17.644 -11.635  1.00  0.00    -0.345 OA
ATOM     14  H1  UNL     1       0.379  18.408 -11.808  1.00  0.00     0.219 HD
ENDBRANCH  12  13
BRANCH  12  15
HETATM   15  N3  UNL     1      -0.171  17.404  -9.639  1.00  0.00    -0.365 N 
ATOM     16  H3  UNL     1      -1.019  17.019  -9.223  1.00  0.00     0.162 HD
BRANCH  15  17
HETATM   17  C8  UNL     1       0.476  18.588  -9.021  1.00  0.00     0.088 C 
HETATM   18  C9  UNL     1      -0.628  19.380  -8.403  1.00  0.00     0.030 C 
HETATM   19  C10 UNL     1      -0.220  20.663  -7.768  1.00  0.00    -0.012 C 
HETATM   20  C11 UNL     1      -0.454  20.758  -6.290  1.00  0.00     0.005 C 
HETATM   21  C17 UNL     1       1.157  21.133  -8.159  1.00  0.00     0.009 C 
HETATM   22  C12 UNL     1      -0.124  19.545  -5.506  1.00  0.00     0.011 C 
HETATM   23  C13 UNL     1       1.259  19.006  -5.744  1.00  0.00    -0.027 C 
HETATM   24  C15 UNL     1       2.176  20.106  -6.109  1.00  0.00     0.015 C 
HETATM   25  C20 UNL     1       1.247  17.854  -6.724  1.00  0.00     0.017 C 
HETATM   26  C16 UNL     1       2.300  20.407  -7.584  1.00  0.00    -0.013 C 
HETATM   27  C18 UNL     1       2.711  19.157  -8.281  1.00  0.00     0.011 C 
HETATM   28  C19 UNL     1       1.578  18.163  -8.120  1.00  0.00     0.009 C 
BRANCH  23  29
HETATM   29  C14 UNL     1       1.738  18.413  -4.434  1.00  0.00     0.141 C 
BRANCH  29  30
HETATM   30  S1  UNL     1       1.102  19.113  -3.000  1.00  0.00     0.108 S 
HETATM   31  O2  UNL     1      -0.003  18.350  -2.106  1.00  0.00    -0.236 OA
BRANCH  30  32
HETATM   32  N4  UNL     1       1.727  20.578  -2.477  1.00  0.00    -0.350 N 
ATOM     33  H42 UNL     1       1.717  21.384  -3.102  1.00  0.00     0.166 HD
ATOM     34  H41 UNL     1       2.053  20.653  -1.512  1.00  0.00     0.166 HD
ENDBRANCH  30  32
ENDBRANCH  29  30
ENDBRANCH  23  29
ENDBRANCH  15  17
ENDBRANCH  12  15
ENDBRANCH   7  11
BRANCH   9  35
HETATM   35  O3  UNL     1       1.996  13.881  -9.569  1.00  0.00    -0.368 OA
ATOM     36  H3  UNL     1       1.918  13.318 -10.330  1.00  0.00     0.212 HD
ENDBRANCH   9  35
ENDBRANCH   3   4
TORSDOF 9
ENDMDL
MODEL 4
REMARK VINA RESULT: -6.322545091      2.174      2.677
REMARK  9 active torsions:
REMARK  status: ('A' for Active; 'I' for Inactive)
REMARK    1  A    between atoms: C3_3  and  N1_4 
REMARK    2  A    between atoms: N2_7  and  C6_8 
REMARK    3  A    between atoms: C7_9  and  O1_10 
REMARK    4  A    between atoms: C7_9  and  N3_12 
REMARK    5  A    between atoms: N3_12  and  C8_14 
REMARK    6  A    between atoms: C13_19  and  C14_20 
REMARK    7  A    between atoms: C14_20  and  S1_21 
REMARK    8  A    between atoms: S1_21  and  N4_22 
REMARK    9  A    between atoms: C22_33  and  O3_34 
ROOT
HETATM    1  C1  UNL     1       0.762   9.740  -8.227  1.00  0.00     0.013 C 
HETATM    2  C2  UNL     1      -0.010  10.415  -8.870  1.00  0.00    -0.089 C 
HETATM    3  C3  UNL     1      -0.946  11.209  -9.660  1.00  0.00     0.332 C 
ENDROOT
BRANCH   3   4
HETATM    4  N1  UNL     1      -0.768  12.598  -9.544  1.00  0.00    -0.027 N 
HETATM    5  C4  UNL     1      -2.003  13.368  -9.505  1.00  0.00     0.269 C 
HETATM    6  C5  UNL     1      -1.408  14.778  -9.646  1.00  0.00     0.276 C 
HETATM    7  N2  UNL     1      -0.122  14.581 -10.230  1.00  0.00     0.011 N 
HETATM    8  C21 UNL     1      -0.167  13.229 -10.739  1.00  0.00     0.483 C 
HETATM    9  C22 UNL     1       0.809  14.305  -9.090  1.00  0.00     0.357 C 
HETATM   10  C23 UNL     1       0.103  13.078  -8.521  1.00  0.00     0.302 C 
BRANCH   7  11
HETATM   11  C6  UNL     1       0.399  15.571 -11.067  1.00  0.00     0.263 C 
HETATM   12  C7  UNL     1       1.147  16.664 -10.484  1.00  0.00     0.160 C 
BRANCH  12  13
HETATM   13  O1  UNL     1       1.582  17.525 -11.373  1.00  0.00    -0.345 OA
ATOM     14  H1  UNL     1       2.528  17.524 -11.464  1.00  0.00     0.219 HD
ENDBRANCH  12  13
BRANCH  12  15
HETATM   15  N3  UNL     1       1.487  16.966  -9.158  1.00  0.00    -0.365 N 
ATOM     16  H3  UNL     1       2.281  16.497  -8.723  1.00  0.00     0.162 HD
BRANCH  15  17
HETATM   17  C8  UNL     1       0.708  17.961  -8.381  1.00  0.00     0.088 C 
HETATM   18  C9  UNL     1       0.340  17.284  -7.103  1.00  0.00     0.030 C 
HETATM   19  C10 UNL     1      -0.509  18.079  -6.176  1.00  0.00    -0.012 C 
HETATM   20  C11 UNL     1       0.109  18.406  -4.848  1.00  0.00     0.005 C 
HETATM   21  C17 UNL     1      -1.159  19.280  -6.813  1.00  0.00     0.009 C 
HETATM   22  C12 UNL     1       1.534  18.807  -4.883  1.00  0.00     0.011 C 
HETATM   23  C13 UNL     1       1.846  19.917  -5.849  1.00  0.00    -0.027 C 
HETATM   24  C15 UNL     1       0.670  20.796  -6.008  1.00  0.00     0.015 C 
HETATM   25  C20 UNL     1       2.404  19.382  -7.150  1.00  0.00     0.017 C 
HETATM   26  C16 UNL     1      -0.292  20.430  -7.112  1.00  0.00    -0.013 C 
HETATM   27  C18 UNL     1       0.469  20.372  -8.391  1.00  0.00     0.011 C 
HETATM   28  C19 UNL     1       1.464  19.236  -8.268  1.00  0.00     0.009 C 
BRANCH  23  29
HETATM   29  C14 UNL     1       2.966  20.737  -5.240  1.00  0.00     0.141 C 
BRANCH  29  30
HETATM   30  S1  UNL     1       3.182  22.321  -5.868  1.00  0.00     0.108 S 
HETATM   31  O2  UNL     1       2.558  23.614  -5.132  1.00  0.00    -0.236 OA
BRANCH  30  32
HETATM   32  N4  UNL     1       4.150  22.523  -7.222  1.00  0.00    -0.350 N 
ATOM     33  H42 UNL     1       3.893  22.070  -8.099  1.00  0.00     0.166 HD
ATOM     34  H41 UNL     1       4.952  23.150  -7.160  1.00  0.00     0.166 HD
ENDBRANCH  30  32
ENDBRANCH  29  30
ENDBRANCH  23  29
ENDBRANCH  15  17
ENDBRANCH  12  15
ENDBRANCH   7  11
BRANCH   9  35
HETATM   35  O3  UNL     1       2.023  13.888  -9.622  1.00  0.00    -0.368 OA
ATOM     36  H3  UNL     1       2.311  13.130  -9.129  1.00  0.00     0.212 HD
ENDBRANCH   9  35
ENDBRANCH   3   4
TORSDOF 9
ENDMDL
MODEL 5
REMARK VINA RESULT: -6.276907303      0.778      1.236
REMARK  9 active torsions:
REMARK  status: ('A' for Active; 'I' for Inactive)
REMARK    1  A    between atoms: C3_3  and  N1_4 
REMARK    2  A    between atoms: N2_7  and  C6_8 
REMARK    3  A    between atoms: C7_9  and  O1_10 
REMARK    4  A    between atoms: C7_9  and  N3_12 
REMARK    5  A    between atoms: N3_12  and  C8_14 
REMARK    6  A    between atoms: C13_19  and  C14_20 
REMARK    7  A    between atoms: C14_20  and  S1_21 
REMARK    8  A    between atoms: S1_21  and  N4_22 
REMARK    9  A    between atoms: C22_33  and  O3_34 
ROOT
HETATM    1  C1  UNL     1      -0.352   9.883  -9.249  1.00  0.00     0.013 C 
HETATM    2  C2  UNL     1      -0.910  10.877  -9.656  1.00  0.00    -0.089 C 
HETATM    3  C3  UNL     1      -1.592  12.061 -10.167  1.00  0.00     0.332 C 
ENDROOT
BRANCH   3   4
HETATM    4  N1  UNL     1      -1.087  13.277  -9.676  1.00  0.00    -0.027 N 
HETATM    5  C4  UNL     1      -2.102  14.248  -9.294  1.00  0.00     0.269 C 
HETATM    6  C5  UNL     1      -1.194  15.471  -9.084  1.00  0.00     0.276 C 
HETATM    7  N2  UNL     1      -0.010  15.185  -9.827  1.00  0.00     0.011 N 
HETATM    8  C21 UNL     1      -0.392  14.094 -10.695  1.00  0.00     0.483 C 
HETATM    9  C22 UNL     1       0.865  14.382  -8.915  1.00  0.00     0.357 C 
HETATM   10  C23 UNL     1      -0.093  13.224  -8.653  1.00  0.00     0.302 C 
BRANCH   7  11
HETATM   11  C6  UNL     1       0.704  16.244 -10.394  1.00  0.00     0.263 C 
HETATM   12  C7  UNL     1       1.323  17.221  -9.525  1.00  0.00     0.160 C 
BRANCH  12  13
HETATM   13  O1  UNL     1       1.962  18.163 -10.178  1.00  0.00    -0.345 OA
ATOM     14  H1  UNL     1       2.792  18.397  -9.780  1.00  0.00     0.219 HD
ENDBRANCH  12  13
BRANCH  12  15
HETATM   15  N3  UNL     1       1.363  17.344  -8.129  1.00  0.00    -0.365 N 
ATOM     16  H3  UNL     1       1.956  16.717  -7.586  1.00  0.00     0.162 HD
BRANCH  15  17
HETATM   17  C8  UNL     1       0.553  18.373  -7.432  1.00  0.00     0.088 C 
HETATM   18  C9  UNL     1      -0.169  17.656  -6.341  1.00  0.00     0.030 C 
HETATM   19  C10 UNL     1      -1.104  18.486  -5.534  1.00  0.00    -0.012 C 
HETATM   20  C11 UNL     1      -0.764  18.618  -4.079  1.00  0.00     0.005 C 
HETATM   21  C17 UNL     1      -1.447  19.812  -6.162  1.00  0.00     0.009 C 
HETATM   22  C12 UNL     1       0.671  18.819  -3.769  1.00  0.00     0.011 C 
HETATM   23  C13 UNL     1       1.321  19.946  -4.523  1.00  0.00    -0.027 C 
HETATM   24  C15 UNL     1       0.322  20.991  -4.831  1.00  0.00     0.015 C 
HETATM   25  C20 UNL     1       2.087  19.443  -5.726  1.00  0.00     0.017 C 
HETATM   26  C16 UNL     1      -0.405  20.850  -6.147  1.00  0.00    -0.013 C 
HETATM   27  C18 UNL     1       0.610  20.787  -7.234  1.00  0.00     0.011 C 
HETATM   28  C19 UNL     1       1.411  19.517  -7.027  1.00  0.00     0.009 C 
BRANCH  23  29
HETATM   29  C14 UNL     1       2.365  20.552  -3.606  1.00  0.00     0.141 C 
BRANCH  29  30
HETATM   30  S1  UNL     1       2.124  20.329  -1.921  1.00  0.00     0.108 S 
HETATM   31  O2  UNL     1       0.807  20.886  -1.174  1.00  0.00    -0.236 OA
BRANCH  30  32
HETATM   32  N4  UNL     1       3.243  19.419  -1.063  1.00  0.00    -0.350 N 
ATOM     33  H42 UNL     1       3.458  18.469  -1.364  1.00  0.00     0.166 HD
ATOM     34  H41 UNL     1       3.737  19.859  -0.286  1.00  0.00     0.166 HD
ENDBRANCH  30  32
ENDBRANCH  29  30
ENDBRANCH  23  29
ENDBRANCH  15  17
ENDBRANCH  12  15
ENDBRANCH   7  11
BRANCH   9  35
HETATM   35  O3  UNL     1       1.927  13.893  -9.665  1.00  0.00    -0.368 OA
ATOM     36  H3  UNL     1       2.577  14.582  -9.731  1.00  0.00     0.212 HD
ENDBRANCH   9  35
ENDBRANCH   3   4
TORSDOF 9
ENDMDL
