MODEL 1
REMARK VINA RESULT: -7.337699542      0.000      0.000
REMARK  8 active torsions:
REMARK  status: ('A' for Active; 'I' for Inactive)
REMARK    1  A    between atoms: N1_1  and  C1_4 
REMARK    2  A    between atoms: C2_11  and  S1_12 
REMARK    3  A    between atoms: S1_12  and  N5_13 
REMARK    4  A    between atoms: S1_12  and  N6_17 
REMARK    5  A    between atoms: N6_17  and  C3_19 
REMARK    6  A    between atoms: C3_19  and  C4_20 
REMARK    7  A    between atoms: C4_20  and  C5_21 
REMARK    8  A    between atoms: C5_21  and  N7_22 
ROOT
HETATM    1  S1  UNL     1      32.160   2.249  35.008  1.00  0.00     0.167 S 
HETATM    2  O1  UNL     1      32.742   1.608  33.794  1.00  0.00    -0.221 OA
ENDROOT
BRANCH   1   3
HETATM    3  C2  UNL     1      30.672   1.482  35.507  1.00  0.00     0.232 A 
HETATM    4  N4  UNL     1      29.842   0.888  34.631  1.00  0.00    -0.260 N 
HETATM    5  N3  UNL     1      28.710   0.302  34.986  1.00  0.00    -0.226 N 
ATOM      6  H4  UNL     1      30.098   0.890  33.644  1.00  0.00     0.190 HD
HETATM    7  N2  UNL     1      28.362   0.290  36.260  1.00  0.00    -0.118 N 
ATOM      8  H3  UNL     1      28.113  -0.135  34.284  1.00  0.00     0.209 HD
HETATM    9  C1  UNL     1      29.161   0.871  37.171  1.00  0.00     0.693 A 
ATOM     10  H2  UNL     1      27.493  -0.158  36.551  1.00  0.00     0.207 HD
HETATM   11  N8  UNL     1      30.317   1.469  36.803  1.00  0.00    -0.163 N 
ATOM     12  H8  UNL     1      30.914   1.907  37.504  1.00  0.00     0.186 HD
BRANCH   9  13
HETATM   13  N1  UNL     1      28.782   0.834  38.399  1.00  0.00    -0.233 N 
ATOM     14  H12 UNL     1      28.602  -0.048  38.878  1.00  0.00     0.174 HD
ATOM     15  H11 UNL     1      28.667   1.726  38.881  1.00  0.00     0.174 HD
ENDBRANCH   9  13
ENDBRANCH   1   3
BRANCH   1  16
HETATM   16  N5  UNL     1      31.868   3.733  34.679  1.00  0.00    -0.339 N 
ATOM     17  H52 UNL     1      31.553   4.078  33.773  1.00  0.00     0.167 HD
ATOM     18  H51 UNL     1      32.045   4.294  35.513  1.00  0.00     0.167 HD
ENDBRANCH   1  16
BRANCH   1  19
HETATM   19  N6  UNL     1      33.349   2.214  36.260  1.00  0.00    -0.330 N 
ATOM     20  H6  UNL     1      33.233   1.824  37.196  1.00  0.00     0.171 HD
BRANCH  19  21
HETATM   21  C3  UNL     1      34.542   2.843  35.734  1.00  0.00     0.132 C 
BRANCH  21  22
HETATM   22  C4  UNL     1      35.382   3.499  36.805  1.00  0.00     0.047 C 
BRANCH  22  23
HETATM   23  C5  UNL     1      36.232   4.568  36.142  1.00  0.00     0.231 C 
BRANCH  23  24
HETATM   24  N7  UNL     1      35.495   5.742  35.793  1.00  0.00    -0.079 N 
ATOM     25  H73 UNL     1      35.317   6.316  36.617  1.00  0.00     0.274 HD
ATOM     26  H72 UNL     1      36.077   6.389  35.260  1.00  0.00     0.274 HD
ATOM     27  H71 UNL     1      34.628   5.543  35.295  1.00  0.00     0.274 HD
ENDBRANCH  23  24
ENDBRANCH  22  23
ENDBRANCH  21  22
ENDBRANCH  19  21
ENDBRANCH   1  19
TORSDOF 8
ENDMDL
MODEL 2
REMARK VINA RESULT: -6.927927673      1.529      2.480
REMARK  8 active torsions:
REMARK  status: ('A' for Active; 'I' for Inactive)
REMARK    1  A    between atoms: N1_1  and  C1_4 
REMARK    2  A    between atoms: C2_11  and  S1_12 
REMARK    3  A    between atoms: S1_12  and  N5_13 
REMARK    4  A    between atoms: S1_12  and  N6_17 
REMARK    5  A    between atoms: N6_17  and  C3_19 
REMARK    6  A    between atoms: C3_19  and  C4_20 
REMARK    7  A    between atoms: C4_20  and  C5_21 
REMARK    8  A    between atoms: C5_21  and  N7_22 
ROOT
HETATM    1  S1  UNL     1      31.689   2.525  36.348  1.00  0.00     0.167 S 
HETATM    2  O1  UNL     1      31.682   3.955  35.925  1.00  0.00    -0.221 OA
ENDROOT
BRANCH   1   3
HETATM    3  C2  UNL     1      30.495   1.579  35.491  1.00  0.00     0.232 A 
HETATM    4  N4  UNL     1      29.572   0.841  36.130  1.00  0.00    -0.260 N 
HETATM    5  N3  UNL     1      28.658   0.118  35.502  1.00  0.00    -0.226 N 
ATOM      6  H4  UNL     1      29.575   0.838  37.150  1.00  0.00     0.190 HD
HETATM    7  N2  UNL     1      28.639   0.110  34.182  1.00  0.00    -0.118 N 
ATOM      8  H3  UNL     1      27.978  -0.427  36.032  1.00  0.00     0.209 HD
HETATM    9  C1  UNL     1      29.543   0.833  33.501  1.00  0.00     0.693 A 
ATOM     10  H2  UNL     1      27.941  -0.443  33.682  1.00  0.00     0.207 HD
HETATM   11  N8  UNL     1      30.474   1.571  34.147  1.00  0.00    -0.163 N 
ATOM     12  H8  UNL     1      31.156   2.115  33.619  1.00  0.00     0.186 HD
BRANCH   9  13
HETATM   13  N1  UNL     1      29.485   0.795  32.217  1.00  0.00    -0.233 N 
ATOM     14  H12 UNL     1      30.194   1.242  31.636  1.00  0.00     0.174 HD
ATOM     15  H11 UNL     1      28.700   0.298  31.797  1.00  0.00     0.174 HD
ENDBRANCH   9  13
ENDBRANCH   1   3
BRANCH   1  16
HETATM   16  N5  UNL     1      31.376   2.466  37.863  1.00  0.00    -0.339 N 
ATOM     17  H52 UNL     1      31.626   3.188  38.538  1.00  0.00     0.167 HD
ATOM     18  H51 UNL     1      30.884   1.594  38.062  1.00  0.00     0.167 HD
ENDBRANCH   1  16
BRANCH   1  19
HETATM   19  N6  UNL     1      33.284   1.901  36.119  1.00  0.00    -0.330 N 
ATOM     20  H6  UNL     1      33.577   0.931  36.234  1.00  0.00     0.171 HD
BRANCH  19  21
HETATM   21  C3  UNL     1      34.126   3.014  35.734  1.00  0.00     0.132 C 
BRANCH  21  22
HETATM   22  C4  UNL     1      35.170   3.348  36.773  1.00  0.00     0.047 C 
BRANCH  22  23
HETATM   23  C5  UNL     1      36.080   4.416  36.194  1.00  0.00     0.231 C 
BRANCH  23  24
HETATM   24  N7  UNL     1      35.384   5.595  35.785  1.00  0.00    -0.079 N 
ATOM     25  H73 UNL     1      35.956   6.425  35.937  1.00  0.00     0.274 HD
ATOM     26  H72 UNL     1      35.300   5.632  34.769  1.00  0.00     0.274 HD
ATOM     27  H71 UNL     1      34.470   5.699  36.226  1.00  0.00     0.274 HD
ENDBRANCH  23  24
ENDBRANCH  22  23
ENDBRANCH  21  22
ENDBRANCH  19  21
ENDBRANCH   1  19
TORSDOF 8
ENDMDL
MODEL 3
REMARK VINA RESULT: -6.852121785      1.657      6.165
REMARK  8 active torsions:
REMARK  status: ('A' for Active; 'I' for Inactive)
REMARK    1  A    between atoms: N1_1  and  C1_4 
REMARK    2  A    between atoms: C2_11  and  S1_12 
REMARK    3  A    between atoms: S1_12  and  N5_13 
REMARK    4  A    between atoms: S1_12  and  N6_17 
REMARK    5  A    between atoms: N6_17  and  C3_19 
REMARK    6  A    between atoms: C3_19  and  C4_20 
REMARK    7  A    between atoms: C4_20  and  C5_21 
REMARK    8  A    between atoms: C5_21  and  N7_22 
ROOT
HETATM    1  S1  UNL     1      32.095   2.548  35.062  1.00  0.00     0.167 S 
HETATM    2  O1  UNL     1      31.240   3.669  34.577  1.00  0.00    -0.221 OA
ENDROOT
BRANCH   1   3
HETATM    3  C2  UNL     1      33.580   3.118  35.785  1.00  0.00     0.232 A 
HETATM    4  N4  UNL     1      34.221   2.430  36.746  1.00  0.00    -0.260 N 
HETATM    5  N3  UNL     1      35.345   2.842  37.308  1.00  0.00    -0.226 N 
ATOM      6  H4  UNL     1      33.819   1.545  37.056  1.00  0.00     0.190 HD
HETATM    7  N2  UNL     1      35.880   3.985  36.917  1.00  0.00    -0.118 N 
ATOM      8  H3  UNL     1      35.794   2.284  38.033  1.00  0.00     0.209 HD
HETATM    9  C1  UNL     1      35.274   4.707  35.959  1.00  0.00     0.693 A 
ATOM     10  H2  UNL     1      36.746   4.317  37.340  1.00  0.00     0.207 HD
HETATM   11  N8  UNL     1      34.124   4.281  35.389  1.00  0.00    -0.163 N 
ATOM     12  H8  UNL     1      33.674   4.838  34.663  1.00  0.00     0.186 HD
BRANCH   9  13
HETATM   13  N1  UNL     1      35.830   5.812  35.612  1.00  0.00    -0.233 N 
ATOM     14  H12 UNL     1      36.721   5.830  35.116  1.00  0.00     0.174 HD
ATOM     15  H11 UNL     1      35.345   6.677  35.851  1.00  0.00     0.174 HD
ENDBRANCH   9  13
ENDBRANCH   1   3
BRANCH   1  16
HETATM   16  N5  UNL     1      32.445   1.648  33.851  1.00  0.00    -0.339 N 
ATOM     17  H52 UNL     1      32.240   1.874  32.878  1.00  0.00     0.167 HD
ATOM     18  H51 UNL     1      32.909   0.806  34.193  1.00  0.00     0.167 HD
ENDBRANCH   1  16
BRANCH   1  19
HETATM   19  N6  UNL     1      31.167   1.599  36.167  1.00  0.00    -0.330 N 
ATOM     20  H6  UNL     1      31.428   0.691  36.554  1.00  0.00     0.171 HD
BRANCH  19  21
HETATM   21  C3  UNL     1      29.950   2.332  36.442  1.00  0.00     0.132 C 
BRANCH  21  22
HETATM   22  C4  UNL     1      28.704   1.504  36.233  1.00  0.00     0.047 C 
BRANCH  22  23
HETATM   23  C5  UNL     1      28.538   1.280  34.741  1.00  0.00     0.231 C 
BRANCH  23  24
HETATM   24  N7  UNL     1      28.457  -0.100  34.379  1.00  0.00    -0.079 N 
ATOM     25  H73 UNL     1      29.010  -0.674  35.015  1.00  0.00     0.274 HD
ATOM     26  H72 UNL     1      27.529  -0.473  34.579  1.00  0.00     0.274 HD
ATOM     27  H71 UNL     1      28.718  -0.281  33.410  1.00  0.00     0.274 HD
ENDBRANCH  23  24
ENDBRANCH  22  23
ENDBRANCH  21  22
ENDBRANCH  19  21
ENDBRANCH   1  19
TORSDOF 8
ENDMDL
MODEL 4
REMARK VINA RESULT: -6.795771222      3.133      5.374
REMARK  8 active torsions:
REMARK  status: ('A' for Active; 'I' for Inactive)
REMARK    1  A    between atoms: N1_1  and  C1_4 
REMARK    2  A    between atoms: C2_11  and  S1_12 
REMARK    3  A    between atoms: S1_12  and  N5_13 
REMARK    4  A    between atoms: S1_12  and  N6_17 
REMARK    5  A    between atoms: N6_17  and  C3_19 
REMARK    6  A    between atoms: C3_19  and  C4_20 
REMARK    7  A    between atoms: C4_20  and  C5_21 
REMARK    8  A    between atoms: C5_21  and  N7_22 
ROOT
HETATM    1  S1  UNL     1      29.367   1.069  37.455  1.00  0.00     0.167 S 
HETATM    2  O1  UNL     1      27.979   1.442  37.058  1.00  0.00    -0.221 OA
ENDROOT
BRANCH   1   3
HETATM    3  C2  UNL     1      30.508   1.300  36.152  1.00  0.00     0.232 A 
HETATM    4  N4  UNL     1      30.185   1.075  34.867  1.00  0.00    -0.260 N 
HETATM    5  N3  UNL     1      31.033   1.243  33.864  1.00  0.00    -0.226 N 
ATOM      6  H4  UNL     1      29.239   0.759  34.654  1.00  0.00     0.190 HD
HETATM    7  N2  UNL     1      32.262   1.653  34.121  1.00  0.00    -0.118 N 
ATOM      8  H3  UNL     1      30.740   1.059  32.905  1.00  0.00     0.209 HD
HETATM    9  C1  UNL     1      32.629   1.891  35.392  1.00  0.00     0.693 A 
ATOM     10  H2  UNL     1      32.928   1.788  33.360  1.00  0.00     0.207 HD
HETATM   11  N8  UNL     1      31.759   1.717  36.413  1.00  0.00    -0.163 N 
ATOM     12  H8  UNL     1      32.051   1.900  37.373  1.00  0.00     0.186 HD
BRANCH   9  13
HETATM   13  N1  UNL     1      33.835   2.288  35.594  1.00  0.00    -0.233 N 
ATOM     14  H12 UNL     1      34.229   2.348  36.533  1.00  0.00     0.174 HD
ATOM     15  H11 UNL     1      34.389   2.542  34.776  1.00  0.00     0.174 HD
ENDBRANCH   9  13
ENDBRANCH   1   3
BRANCH   1  16
HETATM   16  N5  UNL     1      29.370  -0.426  37.858  1.00  0.00    -0.339 N 
ATOM     17  H52 UNL     1      29.438  -0.771  38.815  1.00  0.00     0.167 HD
ATOM     18  H51 UNL     1      29.294  -0.994  37.013  1.00  0.00     0.167 HD
ENDBRANCH   1  16
BRANCH   1  19
HETATM   19  N6  UNL     1      29.796   1.989  38.853  1.00  0.00    -0.330 N 
ATOM     20  H6  UNL     1      30.210   1.627  39.712  1.00  0.00     0.171 HD
BRANCH  19  21
HETATM   21  C3  UNL     1      29.457   3.368  38.576  1.00  0.00     0.132 C 
BRANCH  21  22
HETATM   22  C4  UNL     1      29.592   4.261  39.787  1.00  0.00     0.047 C 
BRANCH  22  23
HETATM   23  C5  UNL     1      28.291   4.193  40.565  1.00  0.00     0.231 C 
BRANCH  23  24
HETATM   24  N7  UNL     1      28.252   5.079  41.686  1.00  0.00    -0.079 N 
ATOM     25  H73 UNL     1      27.694   5.906  41.474  1.00  0.00     0.274 HD
ATOM     26  H72 UNL     1      27.690   4.685  42.440  1.00  0.00     0.274 HD
ATOM     27  H71 UNL     1      29.176   5.344  42.024  1.00  0.00     0.274 HD
ENDBRANCH  23  24
ENDBRANCH  22  23
ENDBRANCH  21  22
ENDBRANCH  19  21
ENDBRANCH   1  19
TORSDOF 8
ENDMDL
MODEL 5
REMARK VINA RESULT: -6.737935160      0.816      1.693
REMARK  8 active torsions:
REMARK  status: ('A' for Active; 'I' for Inactive)
REMARK    1  A    between atoms: N1_1  and  C1_4 
REMARK    2  A    between atoms: C2_11  and  S1_12 
REMARK    3  A    between atoms: S1_12  and  N5_13 
REMARK    4  A    between atoms: S1_12  and  N6_17 
REMARK    5  A    between atoms: N6_17  and  C3_19 
REMARK    6  A    between atoms: C3_19  and  C4_20 
REMARK    7  A    between atoms: C4_20  and  C5_21 
REMARK    8  A    between atoms: C5_21  and  N7_22 
ROOT
HETATM    1  S1  UNL     1      32.426   2.266  34.994  1.00  0.00     0.167 S 
HETATM    2  O1  UNL     1      32.357   1.391  33.788  1.00  0.00    -0.221 OA
ENDROOT
BRANCH   1   3
HETATM    3  C2  UNL     1      31.230   1.833  36.191  1.00  0.00     0.232 A 
HETATM    4  N4  UNL     1      31.265   2.310  37.447  1.00  0.00    -0.260 N 
HETATM    5  N3  UNL     1      30.370   1.996  38.370  1.00  0.00    -0.226 N 
ATOM      6  H4  UNL     1      32.020   2.947  37.701  1.00  0.00     0.190 HD
HETATM    7  N2  UNL     1      29.386   1.173  38.058  1.00  0.00    -0.118 N 
ATOM      8  H3  UNL     1      30.440   2.385  39.310  1.00  0.00     0.209 HD
HETATM    9  C1  UNL     1      29.309   0.671  36.814  1.00  0.00     0.693 A 
ATOM     10  H2  UNL     1      28.687   0.920  38.758  1.00  0.00     0.207 HD
HETATM   11  N8  UNL     1      30.227   0.995  35.875  1.00  0.00    -0.163 N 
ATOM     12  H8  UNL     1      30.158   0.607  34.934  1.00  0.00     0.186 HD
BRANCH   9  13
HETATM   13  N1  UNL     1      28.334  -0.126  36.557  1.00  0.00    -0.233 N 
ATOM     14  H12 UNL     1      28.254  -1.037  37.008  1.00  0.00     0.174 HD
ATOM     15  H11 UNL     1      27.637   0.188  35.881  1.00  0.00     0.174 HD
ENDBRANCH   9  13
ENDBRANCH   1   3
BRANCH   1  16
HETATM   16  N5  UNL     1      32.176   3.727  34.547  1.00  0.00    -0.339 N 
ATOM     17  H52 UNL     1      31.498   4.012  33.840  1.00  0.00     0.167 HD
ATOM     18  H51 UNL     1      32.796   4.342  35.074  1.00  0.00     0.167 HD
ENDBRANCH   1  16
BRANCH   1  19
HETATM   19  N6  UNL     1      34.030   2.182  35.631  1.00  0.00    -0.330 N 
ATOM     20  H6  UNL     1      34.576   1.335  35.788  1.00  0.00     0.171 HD
BRANCH  19  21
HETATM   21  C3  UNL     1      34.453   3.539  35.903  1.00  0.00     0.132 C 
BRANCH  21  22
HETATM   22  C4  UNL     1      35.757   3.608  36.662  1.00  0.00     0.047 C 
BRANCH  22  23
HETATM   23  C5  UNL     1      36.559   4.772  36.108  1.00  0.00     0.231 C 
BRANCH  23  24
HETATM   24  N7  UNL     1      35.769   5.935  35.853  1.00  0.00    -0.079 N 
ATOM     25  H73 UNL     1      36.223   6.539  35.169  1.00  0.00     0.274 HD
ATOM     26  H72 UNL     1      34.926   5.693  35.331  1.00  0.00     0.274 HD
ATOM     27  H71 UNL     1      35.533   6.458  36.696  1.00  0.00     0.274 HD
ENDBRANCH  23  24
ENDBRANCH  22  23
ENDBRANCH  21  22
ENDBRANCH  19  21
ENDBRANCH   1  19
TORSDOF 8
ENDMDL
