MODEL 1
REMARK VINA RESULT: -7.351218702      0.000      0.000
REMARK  7 active torsions:
REMARK  status: ('A' for Active; 'I' for Inactive)
REMARK    1  A    between atoms: N1_1  and  C1_5 
REMARK    2  A    between atoms: C1_5  and  C2_6 
REMARK    3  A    between atoms: C2_6  and  C3_7 
REMARK    4  A    between atoms: N2_9  and  C5_10 
REMARK    5  A    between atoms: C5_10  and  C6_11 
REMARK    6  A    between atoms: C8_16  and  N4_17 
REMARK    7  A    between atoms: C9_21  and  O1_22 
ROOT
HETATM    1  C6  UNL     1      30.767   1.746  34.638  1.00  0.00     0.236 C 
HETATM    2  N3  UNL     1      30.495   0.929  35.807  1.00  0.00    -0.065 N 
ATOM      3  H31 UNL     1      31.157   1.053  36.573  1.00  0.00     0.277 HD
ATOM      4  H32 UNL     1      30.668  -0.067  35.677  1.00  0.00     0.277 HD
HETATM    5  C7  UNL     1      29.128   1.262  36.137  1.00  0.00     0.268 C 
HETATM    6  C8  UNL     1      28.458   1.160  34.784  1.00  0.00     0.239 C 
HETATM    7  C9  UNL     1      29.458   1.860  33.892  1.00  0.00     0.182 C 
ENDROOT
BRANCH   1   8
HETATM    8  C5  UNL     1      31.257   3.076  35.138  1.00  0.00     0.181 C 
BRANCH   8   9
HETATM    9  N2  UNL     1      32.503   2.973  35.862  1.00  0.00    -0.283 N 
HETATM   10  C4  UNL     1      33.630   3.596  35.481  1.00  0.00     0.134 A 
HETATM   11  C3  UNL     1      34.642   3.295  36.382  1.00  0.00     0.042 A 
HETATM   12  N6  UNL     1      34.075   2.489  37.285  1.00  0.00    -0.287 N 
HETATM   13  N5  UNL     1      32.795   2.301  36.966  1.00  0.00    -0.020 NA
ATOM     14  H6  UNL     1      34.547   2.081  38.092  1.00  0.00     0.184 HD
BRANCH  11  15
HETATM   15  C2  UNL     1      36.045   3.787  36.317  1.00  0.00     0.087 C 
BRANCH  15  16
HETATM   16  C1  UNL     1      36.041   5.287  36.037  1.00  0.00     0.235 C 
BRANCH  16  17
HETATM   17  N1  UNL     1      37.256   5.653  35.345  1.00  0.00    -0.079 N 
ATOM     18  H13 UNL     1      37.723   4.845  34.933  1.00  0.00     0.274 HD
ATOM     19  H12 UNL     1      37.069   6.168  34.485  1.00  0.00     0.274 HD
ATOM     20  H11 UNL     1      37.866   6.170  35.979  1.00  0.00     0.274 HD
ENDBRANCH  16  17
ENDBRANCH  15  16
ENDBRANCH  11  15
ENDBRANCH   8   9
ENDBRANCH   1   8
BRANCH   7  21
HETATM   21  O1  UNL     1      29.515   1.237  32.650  1.00  0.00    -0.391 OA
ATOM     22  H1  UNL     1      28.747   1.426  32.125  1.00  0.00     0.210 HD
ENDBRANCH   7  21
BRANCH   6  23
HETATM   23  N4  UNL     1      28.351  -0.259  34.470  1.00  0.00    -0.071 N 
ATOM     24  H43 UNL     1      28.996  -0.839  35.009  1.00  0.00     0.274 HD
ATOM     25  H42 UNL     1      27.485  -0.681  34.807  1.00  0.00     0.274 HD
ATOM     26  H41 UNL     1      28.477  -0.350  33.463  1.00  0.00     0.274 HD
ENDBRANCH   6  23
TORSDOF 7
ENDMDL
MODEL 2
REMARK VINA RESULT: -6.863017746      1.145      1.214
REMARK  7 active torsions:
REMARK  status: ('A' for Active; 'I' for Inactive)
REMARK    1  A    between atoms: N1_1  and  C1_5 
REMARK    2  A    between atoms: C1_5  and  C2_6 
REMARK    3  A    between atoms: C2_6  and  C3_7 
REMARK    4  A    between atoms: N2_9  and  C5_10 
REMARK    5  A    between atoms: C5_10  and  C6_11 
REMARK    6  A    between atoms: C8_16  and  N4_17 
REMARK    7  A    between atoms: C9_21  and  O1_22 
ROOT
HETATM    1  C6  UNL     1      30.630   1.202  36.102  1.00  0.00     0.236 C 
HETATM    2  N3  UNL     1      29.565   0.445  36.737  1.00  0.00    -0.065 N 
ATOM      3  H31 UNL     1      29.647   0.368  37.751  1.00  0.00     0.277 HD
ATOM      4  H32 UNL     1      29.590  -0.557  36.551  1.00  0.00     0.277 HD
HETATM    5  C7  UNL     1      28.366   1.111  36.281  1.00  0.00     0.268 C 
HETATM    6  C8  UNL     1      28.632   1.230  34.797  1.00  0.00     0.239 C 
HETATM    7  C9  UNL     1      30.077   1.675  34.779  1.00  0.00     0.182 C 
ENDROOT
BRANCH   1   8
HETATM    8  C5  UNL     1      30.965   2.342  37.023  1.00  0.00     0.181 C 
BRANCH   8   9
HETATM    9  N2  UNL     1      32.388   2.538  37.171  1.00  0.00    -0.283 N 
HETATM   10  C4  UNL     1      33.204   2.824  36.144  1.00  0.00     0.134 A 
HETATM   11  C3  UNL     1      34.503   2.950  36.617  1.00  0.00     0.042 A 
HETATM   12  N6  UNL     1      34.416   2.729  37.933  1.00  0.00    -0.287 N 
HETATM   13  N5  UNL     1      33.147   2.483  38.256  1.00  0.00    -0.020 NA
ATOM     14  H6  UNL     1      35.199   2.747  38.588  1.00  0.00     0.184 HD
BRANCH  11  15
HETATM   15  C2  UNL     1      35.705   3.263  35.798  1.00  0.00     0.087 C 
BRANCH  15  16
HETATM   16  C1  UNL     1      36.294   4.594  36.255  1.00  0.00     0.235 C 
BRANCH  16  17
HETATM   17  N1  UNL     1      35.470   5.679  35.772  1.00  0.00    -0.079 N 
ATOM     18  H13 UNL     1      34.488   5.558  36.021  1.00  0.00     0.274 HD
ATOM     19  H12 UNL     1      35.643   6.548  36.277  1.00  0.00     0.274 HD
ATOM     20  H11 UNL     1      35.602   5.785  34.766  1.00  0.00     0.274 HD
ENDBRANCH  16  17
ENDBRANCH  15  16
ENDBRANCH  11  15
ENDBRANCH   8   9
ENDBRANCH   1   8
BRANCH   7  21
HETATM   21  O1  UNL     1      30.745   1.100  33.704  1.00  0.00    -0.391 OA
ATOM     22  H1  UNL     1      30.845   1.710  32.983  1.00  0.00     0.210 HD
ENDBRANCH   7  21
BRANCH   6  23
HETATM   23  N4  UNL     1      28.468  -0.102  34.229  1.00  0.00    -0.071 N 
ATOM     24  H43 UNL     1      28.846  -0.186  33.285  1.00  0.00     0.274 HD
ATOM     25  H42 UNL     1      29.064  -0.802  34.670  1.00  0.00     0.274 HD
ATOM     26  H41 UNL     1      27.475  -0.327  34.285  1.00  0.00     0.274 HD
ENDBRANCH   6  23
TORSDOF 7
ENDMDL
MODEL 3
REMARK VINA RESULT: -6.775851987      2.460      3.134
REMARK  7 active torsions:
REMARK  status: ('A' for Active; 'I' for Inactive)
REMARK    1  A    between atoms: N1_1  and  C1_5 
REMARK    2  A    between atoms: C1_5  and  C2_6 
REMARK    3  A    between atoms: C2_6  and  C3_7 
REMARK    4  A    between atoms: N2_9  and  C5_10 
REMARK    5  A    between atoms: C5_10  and  C6_11 
REMARK    6  A    between atoms: C8_16  and  N4_17 
REMARK    7  A    between atoms: C9_21  and  O1_22 
ROOT
HETATM    1  C6  UNL     1      29.296   2.170  36.451  1.00  0.00     0.236 C 
HETATM    2  N3  UNL     1      28.405   1.148  36.970  1.00  0.00    -0.065 N 
ATOM      3  H31 UNL     1      28.102   0.460  36.281  1.00  0.00     0.277 HD
ATOM      4  H32 UNL     1      27.470   1.481  37.204  1.00  0.00     0.277 HD
HETATM    5  C7  UNL     1      29.141   0.597  38.084  1.00  0.00     0.268 C 
HETATM    6  C8  UNL     1      29.594   1.852  38.798  1.00  0.00     0.239 C 
HETATM    7  C9  UNL     1      30.048   2.715  37.642  1.00  0.00     0.182 C 
ENDROOT
BRANCH   1   8
HETATM    8  C5  UNL     1      30.204   1.496  35.461  1.00  0.00     0.181 C 
BRANCH   8   9
HETATM    9  N2  UNL     1      31.412   2.248  35.212  1.00  0.00    -0.283 N 
HETATM   10  C4  UNL     1      32.628   1.846  35.616  1.00  0.00     0.134 A 
HETATM   11  C3  UNL     1      33.571   2.786  35.223  1.00  0.00     0.042 A 
HETATM   12  N6  UNL     1      32.873   3.733  34.586  1.00  0.00    -0.287 N 
HETATM   13  N5  UNL     1      31.582   3.403  34.585  1.00  0.00    -0.020 NA
ATOM     14  H6  UNL     1      33.268   4.576  34.168  1.00  0.00     0.184 HD
BRANCH  11  15
HETATM   15  C2  UNL     1      35.035   2.714  35.477  1.00  0.00     0.087 C 
BRANCH  15  16
HETATM   16  C1  UNL     1      35.390   3.627  36.646  1.00  0.00     0.235 C 
BRANCH  16  17
HETATM   17  N1  UNL     1      35.779   4.925  36.145  1.00  0.00    -0.079 N 
ATOM     18  H13 UNL     1      34.996   5.428  35.727  1.00  0.00     0.274 HD
ATOM     19  H12 UNL     1      35.989   5.581  36.897  1.00  0.00     0.274 HD
ATOM     20  H11 UNL     1      36.560   4.821  35.497  1.00  0.00     0.274 HD
ENDBRANCH  16  17
ENDBRANCH  15  16
ENDBRANCH  11  15
ENDBRANCH   8   9
ENDBRANCH   1   8
BRANCH   7  21
HETATM   21  O1  UNL     1      29.736   4.048  37.885  1.00  0.00    -0.391 OA
ATOM     22  H1  UNL     1      28.812   4.224  37.755  1.00  0.00     0.210 HD
ENDBRANCH   7  21
BRANCH   6  23
HETATM   23  N4  UNL     1      28.422   2.407  39.461  1.00  0.00    -0.071 N 
ATOM     24  H43 UNL     1      28.654   2.994  40.263  1.00  0.00     0.274 HD
ATOM     25  H42 UNL     1      27.950   3.124  38.909  1.00  0.00     0.274 HD
ATOM     26  H41 UNL     1      27.817   1.622  39.700  1.00  0.00     0.274 HD
ENDBRANCH   6  23
TORSDOF 7
ENDMDL
MODEL 4
REMARK VINA RESULT: -6.722200954      1.202      1.333
REMARK  7 active torsions:
REMARK  status: ('A' for Active; 'I' for Inactive)
REMARK    1  A    between atoms: N1_1  and  C1_5 
REMARK    2  A    between atoms: C1_5  and  C2_6 
REMARK    3  A    between atoms: C2_6  and  C3_7 
REMARK    4  A    between atoms: N2_9  and  C5_10 
REMARK    5  A    between atoms: C5_10  and  C6_11 
REMARK    6  A    between atoms: C8_16  and  N4_17 
REMARK    7  A    between atoms: C9_21  and  O1_22 
ROOT
HETATM    1  C6  UNL     1      30.448   1.375  35.088  1.00  0.00     0.236 C 
HETATM    2  N3  UNL     1      30.813   0.917  36.417  1.00  0.00    -0.065 N 
ATOM      3  H31 UNL     1      31.786   1.089  36.672  1.00  0.00     0.277 HD
ATOM      4  H32 UNL     1      30.855  -0.097  36.519  1.00  0.00     0.277 HD
HETATM    5  C7  UNL     1      29.846   1.566  37.272  1.00  0.00     0.268 C 
HETATM    6  C8  UNL     1      28.554   1.280  36.538  1.00  0.00     0.239 C 
HETATM    7  C9  UNL     1      28.948   1.554  35.104  1.00  0.00     0.182 C 
ENDROOT
BRANCH   1   8
HETATM    8  C5  UNL     1      31.176   2.669  34.857  1.00  0.00     0.181 C 
BRANCH   8   9
HETATM    9  N2  UNL     1      32.585   2.577  35.162  1.00  0.00    -0.283 N 
HETATM   10  C4  UNL     1      33.274   3.557  35.768  1.00  0.00     0.134 A 
HETATM   11  C3  UNL     1      34.596   3.160  35.915  1.00  0.00     0.042 A 
HETATM   12  N6  UNL     1      34.652   1.935  35.382  1.00  0.00    -0.287 N 
HETATM   13  N5  UNL     1      33.444   1.594  34.933  1.00  0.00    -0.020 NA
ATOM     14  H6  UNL     1      35.487   1.353  35.327  1.00  0.00     0.184 HD
BRANCH  11  15
HETATM   15  C2  UNL     1      35.684   3.960  36.540  1.00  0.00     0.087 C 
BRANCH  15  16
HETATM   16  C1  UNL     1      35.670   5.371  35.959  1.00  0.00     0.235 C 
BRANCH  16  17
HETATM   17  N1  UNL     1      36.982   5.697  35.449  1.00  0.00    -0.079 N 
ATOM     18  H13 UNL     1      37.413   4.911  34.963  1.00  0.00     0.274 HD
ATOM     19  H12 UNL     1      36.940   6.348  34.665  1.00  0.00     0.274 HD
ATOM     20  H11 UNL     1      37.566   6.047  36.209  1.00  0.00     0.274 HD
ENDBRANCH  16  17
ENDBRANCH  15  16
ENDBRANCH  11  15
ENDBRANCH   8   9
ENDBRANCH   1   8
BRANCH   7  21
HETATM   21  O1  UNL     1      28.312   0.660  34.250  1.00  0.00    -0.391 OA
ATOM     22  H1  UNL     1      27.385   0.851  34.166  1.00  0.00     0.210 HD
ENDBRANCH   7  21
BRANCH   6  23
HETATM   23  N4  UNL     1      28.247  -0.128  36.756  1.00  0.00    -0.071 N 
ATOM     24  H43 UNL     1      27.697  -0.541  36.002  1.00  0.00     0.274 HD
ATOM     25  H42 UNL     1      29.062  -0.735  36.669  1.00  0.00     0.274 HD
ATOM     26  H41 UNL     1      27.793  -0.194  37.667  1.00  0.00     0.274 HD
ENDBRANCH   6  23
TORSDOF 7
ENDMDL
MODEL 5
REMARK VINA RESULT: -6.435600466      3.099      4.592
REMARK  7 active torsions:
REMARK  status: ('A' for Active; 'I' for Inactive)
REMARK    1  A    between atoms: N1_1  and  C1_5 
REMARK    2  A    between atoms: C1_5  and  C2_6 
REMARK    3  A    between atoms: C2_6  and  C3_7 
REMARK    4  A    between atoms: N2_9  and  C5_10 
REMARK    5  A    between atoms: C5_10  and  C6_11 
REMARK    6  A    between atoms: C8_16  and  N4_17 
REMARK    7  A    between atoms: C9_21  and  O1_22 
ROOT
HETATM    1  C6  UNL     1      30.880   1.395  35.147  1.00  0.00     0.236 C 
HETATM    2  N3  UNL     1      29.799   0.761  35.881  1.00  0.00    -0.065 N 
ATOM      3  H31 UNL     1      29.778   0.980  36.877  1.00  0.00     0.277 HD
ATOM      4  H32 UNL     1      29.900  -0.248  35.995  1.00  0.00     0.277 HD
HETATM    5  C7  UNL     1      28.618   1.167  35.153  1.00  0.00     0.268 C 
HETATM    6  C8  UNL     1      29.033   0.885  33.725  1.00  0.00     0.239 C 
HETATM    7  C9  UNL     1      30.444   1.427  33.702  1.00  0.00     0.182 C 
ENDROOT
BRANCH   1   8
HETATM    8  C5  UNL     1      31.050   2.772  35.724  1.00  0.00     0.181 C 
BRANCH   8   9
HETATM    9  N2  UNL     1      30.804   2.814  37.147  1.00  0.00    -0.283 N 
HETATM   10  C4  UNL     1      29.711   3.374  37.690  1.00  0.00     0.134 A 
HETATM   11  C3  UNL     1      29.775   3.250  39.071  1.00  0.00     0.042 A 
HETATM   12  N6  UNL     1      30.925   2.609  39.309  1.00  0.00    -0.287 N 
HETATM   13  N5  UNL     1      31.534   2.353  38.152  1.00  0.00    -0.020 NA
ATOM     14  H6  UNL     1      31.280   2.357  40.232  1.00  0.00     0.184 HD
BRANCH  11  15
HETATM   15  C2  UNL     1      28.758   3.740  40.041  1.00  0.00     0.087 C 
BRANCH  15  16
HETATM   16  C1  UNL     1      29.212   5.079  40.613  1.00  0.00     0.235 C 
BRANCH  16  17
HETATM   17  N1  UNL     1      28.374   5.434  41.736  1.00  0.00    -0.079 N 
ATOM     18  H13 UNL     1      27.386   5.263  41.549  1.00  0.00     0.274 HD
ATOM     19  H12 UNL     1      28.488   4.791  42.519  1.00  0.00     0.274 HD
ATOM     20  H11 UNL     1      28.553   6.402  42.003  1.00  0.00     0.274 HD
ENDBRANCH  16  17
ENDBRANCH  15  16
ENDBRANCH  11  15
ENDBRANCH   8   9
ENDBRANCH   1   8
BRANCH   7  21
HETATM   21  O1  UNL     1      31.253   0.631  32.899  1.00  0.00    -0.391 OA
ATOM     22  H1  UNL     1      31.787   0.037  33.415  1.00  0.00     0.210 HD
ENDBRANCH   7  21
BRANCH   6  23
HETATM   23  N4  UNL     1      29.005  -0.562  33.555  1.00  0.00    -0.071 N 
ATOM     24  H43 UNL     1      28.065  -0.956  33.613  1.00  0.00     0.274 HD
ATOM     25  H42 UNL     1      29.210  -0.858  32.600  1.00  0.00     0.274 HD
ATOM     26  H41 UNL     1      29.648  -0.953  34.243  1.00  0.00     0.274 HD
ENDBRANCH   6  23
TORSDOF 7
ENDMDL
