MODEL 1
REMARK VINA RESULT: -6.975584894      0.000      0.000
REMARK  6 active torsions:
REMARK  status: ('A' for Active; 'I' for Inactive)
REMARK    1  A    between atoms: N1_1  and  C1_4 
REMARK    2  A    between atoms: N5_11  and  C3_12 
REMARK    3  A    between atoms: C3_12  and  N6_13 
REMARK    4  A    between atoms: N6_13  and  C4_16 
REMARK    5  A    between atoms: C4_16  and  C5_17 
REMARK    6  A    between atoms: C5_17  and  N7_18 
ROOT
HETATM    1  C3  UNL     1      31.998   1.793  36.732  1.00  0.00     0.384 C 
ENDROOT
BRANCH   1   2
HETATM    2  N5  UNL     1      33.253   2.475  36.694  1.00  0.00    -0.234 N 
HETATM    3  C1  UNL     1      33.752   3.258  35.748  1.00  0.00     0.162 A 
HETATM    4  C2  UNL     1      35.002   3.688  36.161  1.00  0.00     0.177 A 
HETATM    5  N2  UNL     1      35.907   4.529  35.500  1.00  0.00    -0.077 NA
HETATM    6  N3  UNL     1      35.197   3.134  37.359  1.00  0.00    -0.270 N 
HETATM    7  N4  UNL     1      34.145   2.410  37.669  1.00  0.00    -0.236 N 
ATOM      8  H3  UNL     1      36.027   3.253  37.940  1.00  0.00     0.190 HD
ATOM      9  H4  UNL     1      34.034   1.877  38.532  1.00  0.00     0.208 HD
BRANCH   3  10
HETATM   10  N1  UNL     1      33.194   3.564  34.653  1.00  0.00    -0.381 N 
ATOM     11  H12 UNL     1      32.811   4.475  34.403  1.00  0.00     0.157 HD
ATOM     12  H11 UNL     1      33.050   2.932  33.865  1.00  0.00     0.157 HD
ENDBRANCH   3  10
ENDBRANCH   1   2
BRANCH   1  13
HETATM   13  N6  UNL     1      31.043   2.372  37.645  1.00  0.00    -0.056 N 
ATOM     14  H62 UNL     1      30.752   1.730  38.383  1.00  0.00     0.279 HD
ATOM     15  H61 UNL     1      31.447   3.088  38.249  1.00  0.00     0.279 HD
BRANCH  13  16
HETATM   16  C4  UNL     1      29.936   2.859  36.844  1.00  0.00     0.255 C 
BRANCH  16  17
HETATM   17  C5  UNL     1      28.923   1.780  36.560  1.00  0.00     0.175 C 
BRANCH  17  18
HETATM   18  N7  UNL     1      28.993   1.266  35.219  1.00  0.00    -0.302 N 
HETATM   19  C6  UNL     1      29.500   1.958  34.183  1.00  0.00     0.111 A 
HETATM   20  C7  UNL     1      29.399   1.143  33.058  1.00  0.00     0.037 A 
HETATM   21  C8  UNL     1      28.821  -0.037  33.468  1.00  0.00     0.108 A 
HETATM   22  N8  UNL     1      28.592   0.078  34.777  1.00  0.00    -0.310 N 
ATOM     23  H8  UNL     1      28.168  -0.645  35.358  1.00  0.00     0.186 HD
ENDBRANCH  17  18
ENDBRANCH  16  17
ENDBRANCH  13  16
ENDBRANCH   1  13
TORSDOF 6
ENDMDL
MODEL 2
REMARK VINA RESULT: -6.920079413      2.292      3.897
REMARK  6 active torsions:
REMARK  status: ('A' for Active; 'I' for Inactive)
REMARK    1  A    between atoms: N1_1  and  C1_4 
REMARK    2  A    between atoms: N5_11  and  C3_12 
REMARK    3  A    between atoms: C3_12  and  N6_13 
REMARK    4  A    between atoms: N6_13  and  C4_16 
REMARK    5  A    between atoms: C4_16  and  C5_17 
REMARK    6  A    between atoms: C5_17  and  N7_18 
ROOT
HETATM    1  C3  UNL     1      30.538   1.985  35.856  1.00  0.00     0.384 C 
ENDROOT
BRANCH   1   2
HETATM    2  N5  UNL     1      31.958   2.120  35.953  1.00  0.00    -0.234 N 
HETATM    3  C1  UNL     1      32.878   1.977  35.010  1.00  0.00     0.162 A 
HETATM    4  C2  UNL     1      34.119   2.208  35.582  1.00  0.00     0.177 A 
HETATM    5  N2  UNL     1      35.385   2.172  34.983  1.00  0.00    -0.077 NA
HETATM    6  N3  UNL     1      33.879   2.483  36.865  1.00  0.00    -0.270 N 
HETATM    7  N4  UNL     1      32.584   2.428  37.077  1.00  0.00    -0.236 N 
ATOM      8  H3  UNL     1      34.587   2.702  37.566  1.00  0.00     0.190 HD
ATOM      9  H4  UNL     1      32.129   2.598  37.975  1.00  0.00     0.208 HD
BRANCH   3  10
HETATM   10  N1  UNL     1      32.672   1.681  33.796  1.00  0.00    -0.381 N 
ATOM     11  H12 UNL     1      32.848   0.779  33.354  1.00  0.00     0.157 HD
ATOM     12  H11 UNL     1      32.299   2.314  33.087  1.00  0.00     0.157 HD
ENDBRANCH   3  10
ENDBRANCH   1   2
BRANCH   1  13
HETATM   13  N6  UNL     1      30.037   0.711  36.311  1.00  0.00    -0.056 N 
ATOM     14  H62 UNL     1      29.782   0.084  35.547  1.00  0.00     0.279 HD
ATOM     15  H61 UNL     1      30.758   0.121  36.726  1.00  0.00     0.279 HD
BRANCH  13  16
HETATM   16  C4  UNL     1      28.937   0.989  37.213  1.00  0.00     0.255 C 
BRANCH  16  17
HETATM   17  C5  UNL     1      29.389   1.084  38.647  1.00  0.00     0.175 C 
BRANCH  17  18
HETATM   18  N7  UNL     1      29.132   2.366  39.246  1.00  0.00    -0.302 N 
HETATM   19  C6  UNL     1      30.014   3.383  39.232  1.00  0.00     0.111 A 
HETATM   20  C7  UNL     1      29.419   4.449  39.902  1.00  0.00     0.037 A 
HETATM   21  C8  UNL     1      28.173   4.025  40.304  1.00  0.00     0.108 A 
HETATM   22  N8  UNL     1      28.040   2.764  39.889  1.00  0.00    -0.310 N 
ATOM     23  H8  UNL     1      27.214   2.186  40.044  1.00  0.00     0.186 HD
ENDBRANCH  17  18
ENDBRANCH  16  17
ENDBRANCH  13  16
ENDBRANCH   1  13
TORSDOF 6
ENDMDL
MODEL 3
REMARK VINA RESULT: -6.806523494      2.444      4.703
REMARK  6 active torsions:
REMARK  status: ('A' for Active; 'I' for Inactive)
REMARK    1  A    between atoms: N1_1  and  C1_4 
REMARK    2  A    between atoms: N5_11  and  C3_12 
REMARK    3  A    between atoms: C3_12  and  N6_13 
REMARK    4  A    between atoms: N6_13  and  C4_16 
REMARK    5  A    between atoms: C4_16  and  C5_17 
REMARK    6  A    between atoms: C5_17  and  N7_18 
ROOT
HETATM    1  C3  UNL     1      28.841   1.334  35.026  1.00  0.00     0.384 C 
ENDROOT
BRANCH   1   2
HETATM    2  N5  UNL     1      30.173   1.412  34.516  1.00  0.00    -0.234 N 
HETATM    3  C1  UNL     1      31.191   2.147  34.941  1.00  0.00     0.162 A 
HETATM    4  C2  UNL     1      32.281   1.882  34.128  1.00  0.00     0.177 A 
HETATM    5  N2  UNL     1      33.575   2.418  34.188  1.00  0.00    -0.077 NA
HETATM    6  N3  UNL     1      31.858   0.983  33.238  1.00  0.00    -0.270 N 
HETATM    7  N4  UNL     1      30.596   0.708  33.478  1.00  0.00    -0.236 N 
ATOM      8  H3  UNL     1      32.423   0.575  32.493  1.00  0.00     0.190 HD
ATOM      9  H4  UNL     1      30.028   0.050  32.944  1.00  0.00     0.208 HD
BRANCH   3  10
HETATM   10  N1  UNL     1      31.180   2.955  35.916  1.00  0.00    -0.381 N 
ATOM     11  H12 UNL     1      31.193   2.710  36.905  1.00  0.00     0.157 HD
ATOM     12  H11 UNL     1      31.154   3.972  35.842  1.00  0.00     0.157 HD
ENDBRANCH   3  10
ENDBRANCH   1   2
BRANCH   1  13
HETATM   13  N6  UNL     1      28.658   0.325  36.040  1.00  0.00    -0.056 N 
ATOM     14  H62 UNL     1      28.072  -0.452  35.732  1.00  0.00     0.279 HD
ATOM     15  H61 UNL     1      29.502  -0.216  36.225  1.00  0.00     0.279 HD
BRANCH  13  16
HETATM   16  C4  UNL     1      28.142   0.998  37.216  1.00  0.00     0.255 C 
BRANCH  16  17
HETATM   17  C5  UNL     1      29.203   1.196  38.267  1.00  0.00     0.175 C 
BRANCH  17  18
HETATM   18  N7  UNL     1      29.029   2.398  39.039  1.00  0.00    -0.302 N 
HETATM   19  C6  UNL     1      29.930   3.397  39.072  1.00  0.00     0.111 A 
HETATM   20  C7  UNL     1      29.421   4.379  39.917  1.00  0.00     0.037 A 
HETATM   21  C8  UNL     1      28.204   3.924  40.373  1.00  0.00     0.108 A 
HETATM   22  N8  UNL     1      28.006   2.727  39.820  1.00  0.00    -0.310 N 
ATOM     23  H8  UNL     1      27.183   2.144  39.975  1.00  0.00     0.186 HD
ENDBRANCH  17  18
ENDBRANCH  16  17
ENDBRANCH  13  16
ENDBRANCH   1  13
TORSDOF 6
ENDMDL
MODEL 4
REMARK VINA RESULT: -6.789112938      1.269      1.858
REMARK  6 active torsions:
REMARK  status: ('A' for Active; 'I' for Inactive)
REMARK    1  A    between atoms: N1_1  and  C1_4 
REMARK    2  A    between atoms: N5_11  and  C3_12 
REMARK    3  A    between atoms: C3_12  and  N6_13 
REMARK    4  A    between atoms: N6_13  and  C4_16 
REMARK    5  A    between atoms: C4_16  and  C5_17 
REMARK    6  A    between atoms: C5_17  and  N7_18 
ROOT
HETATM    1  C3  UNL     1      31.333   2.466  37.739  1.00  0.00     0.384 C 
ENDROOT
BRANCH   1   2
HETATM    2  N5  UNL     1      32.292   2.255  36.702  1.00  0.00    -0.234 N 
HETATM    3  C1  UNL     1      33.603   2.453  36.721  1.00  0.00     0.162 A 
HETATM    4  C2  UNL     1      34.108   2.105  35.478  1.00  0.00     0.177 A 
HETATM    5  N2  UNL     1      35.433   2.145  35.024  1.00  0.00    -0.077 NA
HETATM    6  N3  UNL     1      33.057   1.707  34.760  1.00  0.00    -0.270 N 
HETATM    7  N4  UNL     1      31.975   1.800  35.500  1.00  0.00    -0.236 N 
ATOM      8  H3  UNL     1      33.088   1.383  33.793  1.00  0.00     0.190 HD
ATOM      9  H4  UNL     1      31.033   1.559  35.194  1.00  0.00     0.208 HD
BRANCH   3  10
HETATM   10  N1  UNL     1      34.285   2.884  37.697  1.00  0.00    -0.381 N 
ATOM     11  H12 UNL     1      35.156   3.411  37.641  1.00  0.00     0.157 HD
ATOM     12  H11 UNL     1      34.052   2.760  38.682  1.00  0.00     0.157 HD
ENDBRANCH   3  10
ENDBRANCH   1   2
BRANCH   1  13
HETATM   13  N6  UNL     1      30.403   1.377  37.910  1.00  0.00    -0.056 N 
ATOM     14  H62 UNL     1      30.610   0.574  37.314  1.00  0.00     0.279 HD
ATOM     15  H61 UNL     1      30.503   0.900  38.806  1.00  0.00     0.279 HD
BRANCH  13  16
HETATM   16  C4  UNL     1      29.075   1.918  37.696  1.00  0.00     0.255 C 
BRANCH  16  17
HETATM   17  C5  UNL     1      28.222   1.013  36.846  1.00  0.00     0.175 C 
BRANCH  17  18
HETATM   18  N7  UNL     1      28.599   1.006  35.458  1.00  0.00    -0.302 N 
HETATM   19  C6  UNL     1      28.914   2.118  34.768  1.00  0.00     0.111 A 
HETATM   20  C7  UNL     1      29.221   1.719  33.469  1.00  0.00     0.037 A 
HETATM   21  C8  UNL     1      29.075   0.352  33.424  1.00  0.00     0.108 A 
HETATM   22  N8  UNL     1      28.699  -0.039  34.643  1.00  0.00    -0.310 N 
ATOM     23  H8  UNL     1      28.514  -1.005  34.912  1.00  0.00     0.186 HD
ENDBRANCH  17  18
ENDBRANCH  16  17
ENDBRANCH  13  16
ENDBRANCH   1  13
TORSDOF 6
ENDMDL
MODEL 5
REMARK VINA RESULT: -6.682149328      2.425      4.518
REMARK  6 active torsions:
REMARK  status: ('A' for Active; 'I' for Inactive)
REMARK    1  A    between atoms: N1_1  and  C1_4 
REMARK    2  A    between atoms: N5_11  and  C3_12 
REMARK    3  A    between atoms: C3_12  and  N6_13 
REMARK    4  A    between atoms: N6_13  and  C4_16 
REMARK    5  A    between atoms: C4_16  and  C5_17 
REMARK    6  A    between atoms: C5_17  and  N7_18 
ROOT
HETATM    1  C3  UNL     1      28.795   1.496  35.113  1.00  0.00     0.384 C 
ENDROOT
BRANCH   1   2
HETATM    2  N5  UNL     1      30.117   1.522  34.573  1.00  0.00    -0.234 N 
HETATM    3  C1  UNL     1      31.156   2.260  34.938  1.00  0.00     0.162 A 
HETATM    4  C2  UNL     1      32.224   1.933  34.119  1.00  0.00     0.177 A 
HETATM    5  N2  UNL     1      33.528   2.448  34.124  1.00  0.00    -0.077 NA
HETATM    6  N3  UNL     1      31.767   0.997  33.286  1.00  0.00    -0.270 N 
HETATM    7  N4  UNL     1      30.506   0.757  33.565  1.00  0.00    -0.236 N 
ATOM      8  H3  UNL     1      32.310   0.540  32.552  1.00  0.00     0.190 HD
ATOM      9  H4  UNL     1      29.915   0.083  33.078  1.00  0.00     0.208 HD
BRANCH   3  10
HETATM   10  N1  UNL     1      31.179   3.118  35.869  1.00  0.00    -0.381 N 
ATOM     11  H12 UNL     1      31.983   3.362  36.447  1.00  0.00     0.157 HD
ATOM     12  H11 UNL     1      30.387   3.686  36.171  1.00  0.00     0.157 HD
ENDBRANCH   3  10
ENDBRANCH   1   2
BRANCH   1  13
HETATM   13  N6  UNL     1      28.464   0.271  35.799  1.00  0.00    -0.056 N 
ATOM     14  H62 UNL     1      27.729  -0.264  35.334  1.00  0.00     0.279 HD
ATOM     15  H61 UNL     1      29.197  -0.436  35.734  1.00  0.00     0.279 HD
BRANCH  13  16
HETATM   16  C4  UNL     1      28.134   0.628  37.165  1.00  0.00     0.255 C 
BRANCH  16  17
HETATM   17  C5  UNL     1      29.320   0.505  38.086  1.00  0.00     0.175 C 
BRANCH  17  18
HETATM   18  N7  UNL     1      29.734   1.757  38.659  1.00  0.00    -0.302 N 
HETATM   19  C6  UNL     1      28.886   2.765  38.937  1.00  0.00     0.111 A 
HETATM   20  C7  UNL     1      29.645   3.801  39.474  1.00  0.00     0.037 A 
HETATM   21  C8  UNL     1      30.951   3.371  39.500  1.00  0.00     0.108 A 
HETATM   22  N8  UNL     1      30.962   2.134  38.999  1.00  0.00    -0.310 N 
ATOM     23  H8  UNL     1      31.797   1.557  38.893  1.00  0.00     0.186 HD
ENDBRANCH  17  18
ENDBRANCH  16  17
ENDBRANCH  13  16
ENDBRANCH   1  13
TORSDOF 6
ENDMDL
