MODEL 1
REMARK VINA RESULT: -7.042773834      0.000      0.000
REMARK  7 active torsions:
REMARK  status: ('A' for Active; 'I' for Inactive)
REMARK    1  A    between atoms: N1_1  and  C1_4 
REMARK    2  A    between atoms: N6_16  and  C5_17 
REMARK    3  A    between atoms: C5_17  and  C6_18 
REMARK    4  A    between atoms: C6_18  and  N7_19 
REMARK    5  A    between atoms: N7_19  and  C7_22 
REMARK    6  A    between atoms: C7_22  and  C8_23 
REMARK    7  A    between atoms: C8_23  and  N8_24 
ROOT
HETATM    1  C1  UNL     1      30.186   1.308  33.961  1.00  0.00     0.132 A 
HETATM    2  N2  UNL     1      31.424   1.822  34.056  1.00  0.00    -0.337 N 
ATOM      3  H2  UNL     1      31.947   1.998  33.198  1.00  0.00     0.168 HD
HETATM    4  C2  UNL     1      32.008   2.114  35.239  1.00  0.00     0.183 A 
HETATM    5  N3  UNL     1      31.318   1.879  36.369  1.00  0.00    -0.335 N 
ATOM      6  H3  UNL     1      31.752   2.096  37.267  1.00  0.00     0.168 HD
HETATM    7  C3  UNL     1      30.060   1.359  36.354  1.00  0.00     0.157 A 
HETATM    8  C4  UNL     1      29.478   1.066  35.140  1.00  0.00     0.139 A 
HETATM    9  N4  UNL     1      28.260   0.583  35.404  1.00  0.00    -0.279 N 
ATOM     10  H4  UNL     1      27.580   0.275  34.709  1.00  0.00     0.189 HD
HETATM   11  N5  UNL     1      28.083   0.571  36.716  1.00  0.00    -0.238 N 
ATOM     12  H5  UNL     1      27.243   0.251  37.199  1.00  0.00     0.208 HD
HETATM   13  N6  UNL     1      29.169   1.038  37.292  1.00  0.00    -0.258 N 
ENDROOT
BRANCH  13  14
HETATM   14  C5  UNL     1      29.383   1.186  38.719  1.00  0.00     0.180 C 
BRANCH  14  15
HETATM   15  C6  UNL     1      28.904   2.508  39.215  1.00  0.00     0.254 C 
BRANCH  15  16
HETATM   16  N7  UNL     1      29.969   3.431  39.458  1.00  0.00    -0.072 N 
ATOM     17  H72 UNL     1      30.645   3.056  40.123  1.00  0.00     0.277 HD
ATOM     18  H71 UNL     1      30.581   3.519  38.646  1.00  0.00     0.277 HD
BRANCH  16  19
HETATM   19  C7  UNL     1      29.471   4.698  39.876  1.00  0.00     0.259 C 
BRANCH  19  20
HETATM   20  C8  UNL     1      28.482   4.580  41.026  1.00  0.00     0.257 C 
BRANCH  20  21
HETATM   21  N8  UNL     1      28.351   5.794  41.769  1.00  0.00    -0.078 N 
ATOM     22  H83 UNL     1      28.977   5.800  42.575  1.00  0.00     0.274 HD
ATOM     23  H82 UNL     1      28.740   6.583  41.252  1.00  0.00     0.274 HD
ATOM     24  H81 UNL     1      27.390   5.981  42.053  1.00  0.00     0.274 HD
ENDBRANCH  20  21
ENDBRANCH  19  20
ENDBRANCH  16  19
ENDBRANCH  15  16
ENDBRANCH  14  15
ENDBRANCH  13  14
BRANCH   1  25
HETATM   25  N1  UNL     1      29.623   1.033  32.827  1.00  0.00    -0.383 N 
ATOM     26  H12 UNL     1      29.887   1.574  32.003  1.00  0.00     0.157 HD
ATOM     27  H11 UNL     1      28.928   0.295  32.717  1.00  0.00     0.157 HD
ENDBRANCH   1  25
TORSDOF 7
ENDMDL
MODEL 2
REMARK VINA RESULT: -6.937266230      2.571      5.166
REMARK  7 active torsions:
REMARK  status: ('A' for Active; 'I' for Inactive)
REMARK    1  A    between atoms: N1_1  and  C1_4 
REMARK    2  A    between atoms: N6_16  and  C5_17 
REMARK    3  A    between atoms: C5_17  and  C6_18 
REMARK    4  A    between atoms: C6_18  and  N7_19 
REMARK    5  A    between atoms: N7_19  and  C7_22 
REMARK    6  A    between atoms: C7_22  and  C8_23 
REMARK    7  A    between atoms: C8_23  and  N8_24 
ROOT
HETATM    1  C1  UNL     1      28.760   0.841  37.408  1.00  0.00     0.132 A 
HETATM    2  N2  UNL     1      29.056   1.370  38.607  1.00  0.00    -0.337 N 
ATOM      3  H2  UNL     1      28.449   1.156  39.398  1.00  0.00     0.168 HD
HETATM    4  C2  UNL     1      30.123   2.175  38.810  1.00  0.00     0.183 A 
HETATM    5  N3  UNL     1      30.921   2.457  37.764  1.00  0.00    -0.335 N 
ATOM      6  H3  UNL     1      31.728   3.064  37.908  1.00  0.00     0.168 HD
HETATM    7  C3  UNL     1      30.685   1.959  36.519  1.00  0.00     0.157 A 
HETATM    8  C4  UNL     1      29.594   1.140  36.328  1.00  0.00     0.139 A 
HETATM    9  N4  UNL     1      29.598   0.789  35.039  1.00  0.00    -0.279 N 
ATOM     10  H4  UNL     1      28.914   0.183  34.586  1.00  0.00     0.189 HD
HETATM   11  N5  UNL     1      30.636   1.357  34.446  1.00  0.00    -0.238 N 
ATOM     12  H5  UNL     1      30.885   1.262  33.461  1.00  0.00     0.208 HD
HETATM   13  N6  UNL     1      31.295   2.066  35.339  1.00  0.00    -0.258 N 
ENDROOT
BRANCH  13  14
HETATM   14  C5  UNL     1      32.492   2.846  35.095  1.00  0.00     0.180 C 
BRANCH  14  15
HETATM   15  C6  UNL     1      33.715   2.149  35.587  1.00  0.00     0.254 C 
BRANCH  15  16
HETATM   16  N7  UNL     1      34.357   2.842  36.661  1.00  0.00    -0.072 N 
ATOM     17  H72 UNL     1      33.721   3.495  37.118  1.00  0.00     0.277 HD
ATOM     18  H71 UNL     1      34.540   2.223  37.450  1.00  0.00     0.277 HD
BRANCH  16  19
HETATM   19  C7  UNL     1      35.546   3.492  36.220  1.00  0.00     0.259 C 
BRANCH  19  20
HETATM   20  C8  UNL     1      35.365   4.996  36.081  1.00  0.00     0.257 C 
BRANCH  20  21
HETATM   21  N8  UNL     1      36.556   5.658  35.648  1.00  0.00    -0.078 N 
ATOM     22  H83 UNL     1      36.341   6.562  35.227  1.00  0.00     0.274 HD
ATOM     23  H82 UNL     1      37.110   5.974  36.444  1.00  0.00     0.274 HD
ATOM     24  H81 UNL     1      37.117   5.087  35.016  1.00  0.00     0.274 HD
ENDBRANCH  20  21
ENDBRANCH  19  20
ENDBRANCH  16  19
ENDBRANCH  15  16
ENDBRANCH  14  15
ENDBRANCH  13  14
BRANCH   1  25
HETATM   25  N1  UNL     1      27.742   0.063  37.213  1.00  0.00    -0.383 N 
ATOM     26  H12 UNL     1      27.116  -0.130  37.995  1.00  0.00     0.157 HD
ATOM     27  H11 UNL     1      27.534  -0.362  36.310  1.00  0.00     0.157 HD
ENDBRANCH   1  25
TORSDOF 7
ENDMDL
MODEL 3
REMARK VINA RESULT: -6.916613764      2.757      5.143
REMARK  7 active torsions:
REMARK  status: ('A' for Active; 'I' for Inactive)
REMARK    1  A    between atoms: N1_1  and  C1_4 
REMARK    2  A    between atoms: N6_16  and  C5_17 
REMARK    3  A    between atoms: C5_17  and  C6_18 
REMARK    4  A    between atoms: C6_18  and  N7_19 
REMARK    5  A    between atoms: N7_19  and  C7_22 
REMARK    6  A    between atoms: C7_22  and  C8_23 
REMARK    7  A    between atoms: C8_23  and  N8_24 
ROOT
HETATM    1  C1  UNL     1      28.628   0.678  36.225  1.00  0.00     0.132 A 
HETATM    2  N2  UNL     1      28.396   0.352  34.942  1.00  0.00    -0.337 N 
ATOM      3  H2  UNL     1      27.560  -0.188  34.720  1.00  0.00     0.168 HD
HETATM    4  C2  UNL     1      29.223   0.708  33.934  1.00  0.00     0.183 A 
HETATM    5  N3  UNL     1      30.326   1.418  34.231  1.00  0.00    -0.335 N 
ATOM      6  H3  UNL     1      30.956   1.690  33.476  1.00  0.00     0.168 HD
HETATM    7  C3  UNL     1      30.629   1.785  35.507  1.00  0.00     0.157 A 
HETATM    8  C4  UNL     1      29.776   1.415  36.524  1.00  0.00     0.139 A 
HETATM    9  N4  UNL     1      30.294   1.901  37.655  1.00  0.00    -0.279 N 
ATOM     10  H4  UNL     1      29.892   1.794  38.587  1.00  0.00     0.189 HD
HETATM   11  N5  UNL     1      31.416   2.543  37.369  1.00  0.00    -0.238 N 
ATOM     12  H5  UNL     1      32.021   3.012  38.042  1.00  0.00     0.208 HD
HETATM   13  N6  UNL     1      31.621   2.473  36.070  1.00  0.00    -0.258 N 
ENDROOT
BRANCH  13  14
HETATM   14  C5  UNL     1      32.742   3.045  35.351  1.00  0.00     0.180 C 
BRANCH  14  15
HETATM   15  C6  UNL     1      33.794   2.026  35.067  1.00  0.00     0.254 C 
BRANCH  15  16
HETATM   16  N7  UNL     1      35.034   2.310  35.720  1.00  0.00    -0.072 N 
ATOM     17  H72 UNL     1      35.329   1.536  36.315  1.00  0.00     0.277 HD
ATOM     18  H71 UNL     1      35.813   2.308  35.062  1.00  0.00     0.277 HD
BRANCH  16  19
HETATM   19  C7  UNL     1      34.968   3.532  36.448  1.00  0.00     0.259 C 
BRANCH  19  20
HETATM   20  C8  UNL     1      36.141   4.452  36.142  1.00  0.00     0.257 C 
BRANCH  20  21
HETATM   21  N8  UNL     1      35.732   5.787  35.834  1.00  0.00    -0.078 N 
ATOM     22  H83 UNL     1      36.130   6.097  34.948  1.00  0.00     0.274 HD
ATOM     23  H82 UNL     1      34.742   5.818  35.590  1.00  0.00     0.274 HD
ATOM     24  H81 UNL     1      35.945   6.446  36.581  1.00  0.00     0.274 HD
ENDBRANCH  20  21
ENDBRANCH  19  20
ENDBRANCH  16  19
ENDBRANCH  15  16
ENDBRANCH  14  15
ENDBRANCH  13  14
BRANCH   1  25
HETATM   25  N1  UNL     1      27.832   0.344  37.192  1.00  0.00    -0.383 N 
ATOM     26  H12 UNL     1      26.956  -0.128  36.966  1.00  0.00     0.157 HD
ATOM     27  H11 UNL     1      28.044   0.527  38.173  1.00  0.00     0.157 HD
ENDBRANCH   1  25
TORSDOF 7
ENDMDL
MODEL 4
REMARK VINA RESULT: -6.800174913      1.301      1.816
REMARK  7 active torsions:
REMARK  status: ('A' for Active; 'I' for Inactive)
REMARK    1  A    between atoms: N1_1  and  C1_4 
REMARK    2  A    between atoms: N6_16  and  C5_17 
REMARK    3  A    between atoms: C5_17  and  C6_18 
REMARK    4  A    between atoms: C6_18  and  N7_19 
REMARK    5  A    between atoms: N7_19  and  C7_22 
REMARK    6  A    between atoms: C7_22  and  C8_23 
REMARK    7  A    between atoms: C8_23  and  N8_24 
ROOT
HETATM    1  C1  UNL     1      29.264   1.053  35.138  1.00  0.00     0.132 A 
HETATM    2  N2  UNL     1      30.196   1.724  34.441  1.00  0.00    -0.337 N 
ATOM      3  H2  UNL     1      30.305   1.518  33.448  1.00  0.00     0.168 HD
HETATM    4  C2  UNL     1      30.996   2.660  34.998  1.00  0.00     0.183 A 
HETATM    5  N3  UNL     1      30.852   2.928  36.308  1.00  0.00    -0.335 N 
ATOM      6  H3  UNL     1      31.453   3.633  36.737  1.00  0.00     0.168 HD
HETATM    7  C3  UNL     1      29.931   2.289  37.081  1.00  0.00     0.157 A 
HETATM    8  C4  UNL     1      29.122   1.338  36.498  1.00  0.00     0.139 A 
HETATM    9  N4  UNL     1      28.316   0.878  37.459  1.00  0.00    -0.279 N 
ATOM     10  H4  UNL     1      27.599   0.162  37.342  1.00  0.00     0.189 HD
HETATM   11  N5  UNL     1      28.601   1.505  38.590  1.00  0.00    -0.238 N 
ATOM     12  H5  UNL     1      28.141   1.352  39.487  1.00  0.00     0.208 HD
HETATM   13  N6  UNL     1      29.578   2.358  38.364  1.00  0.00    -0.258 N 
ENDROOT
BRANCH  13  14
HETATM   14  C5  UNL     1      30.187   3.238  39.342  1.00  0.00     0.180 C 
BRANCH  14  15
HETATM   15  C6  UNL     1      29.371   4.468  39.562  1.00  0.00     0.254 C 
BRANCH  15  16
HETATM   16  N7  UNL     1      28.370   4.297  40.569  1.00  0.00    -0.072 N 
ATOM     17  H72 UNL     1      27.435   4.468  40.199  1.00  0.00     0.277 HD
ATOM     18  H71 UNL     1      28.259   3.316  40.825  1.00  0.00     0.277 HD
BRANCH  16  19
HETATM   19  C7  UNL     1      28.638   5.107  41.709  1.00  0.00     0.259 C 
BRANCH  19  20
HETATM   20  C8  UNL     1      28.929   6.554  41.334  1.00  0.00     0.257 C 
BRANCH  20  21
HETATM   21  N8  UNL     1      28.261   7.489  42.184  1.00  0.00    -0.078 N 
ATOM     22  H83 UNL     1      28.899   7.868  42.885  1.00  0.00     0.274 HD
ATOM     23  H82 UNL     1      28.040   8.348  41.681  1.00  0.00     0.274 HD
ATOM     24  H81 UNL     1      27.428   7.098  42.623  1.00  0.00     0.274 HD
ENDBRANCH  20  21
ENDBRANCH  19  20
ENDBRANCH  16  19
ENDBRANCH  15  16
ENDBRANCH  14  15
ENDBRANCH  13  14
BRANCH   1  25
HETATM   25  N1  UNL     1      28.491   0.160  34.604  1.00  0.00    -0.383 N 
ATOM     26  H12 UNL     1      27.686  -0.173  35.134  1.00  0.00     0.157 HD
ATOM     27  H11 UNL     1      28.649  -0.223  33.672  1.00  0.00     0.157 HD
ENDBRANCH   1  25
TORSDOF 7
ENDMDL
MODEL 5
REMARK VINA RESULT: -6.693884699      3.238      5.498
REMARK  7 active torsions:
REMARK  status: ('A' for Active; 'I' for Inactive)
REMARK    1  A    between atoms: N1_1  and  C1_4 
REMARK    2  A    between atoms: N6_16  and  C5_17 
REMARK    3  A    between atoms: C5_17  and  C6_18 
REMARK    4  A    between atoms: C6_18  and  N7_19 
REMARK    5  A    between atoms: N7_19  and  C7_22 
REMARK    6  A    between atoms: C7_22  and  C8_23 
REMARK    7  A    between atoms: C8_23  and  N8_24 
ROOT
HETATM    1  C1  UNL     1      29.033   1.618  36.003  1.00  0.00     0.132 A 
HETATM    2  N2  UNL     1      29.015   1.903  37.317  1.00  0.00    -0.337 N 
ATOM      3  H2  UNL     1      28.120   1.892  37.806  1.00  0.00     0.168 HD
HETATM    4  C2  UNL     1      30.131   2.203  38.018  1.00  0.00     0.183 A 
HETATM    5  N3  UNL     1      31.309   2.218  37.370  1.00  0.00    -0.335 N 
ATOM      6  H3  UNL     1      32.157   2.444  37.891  1.00  0.00     0.168 HD
HETATM    7  C3  UNL     1      31.408   1.942  36.040  1.00  0.00     0.157 A 
HETATM    8  C4  UNL     1      30.261   1.637  35.339  1.00  0.00     0.139 A 
HETATM    9  N4  UNL     1      30.633   1.404  34.077  1.00  0.00    -0.279 N 
ATOM     10  H4  UNL     1      30.009   1.152  33.311  1.00  0.00     0.189 HD
HETATM   11  N5  UNL     1      31.945   1.555  33.985  1.00  0.00    -0.238 N 
ATOM     12  H5  UNL     1      32.499   1.438  33.137  1.00  0.00     0.208 HD
HETATM   13  N6  UNL     1      32.416   1.881  35.171  1.00  0.00    -0.258 N 
ENDROOT
BRANCH  13  14
HETATM   14  C5  UNL     1      33.805   2.138  35.497  1.00  0.00     0.180 C 
BRANCH  14  15
HETATM   15  C6  UNL     1      34.086   3.600  35.598  1.00  0.00     0.254 C 
BRANCH  15  16
HETATM   16  N7  UNL     1      35.346   3.882  36.214  1.00  0.00    -0.072 N 
ATOM     17  H72 UNL     1      35.345   3.629  37.202  1.00  0.00     0.277 HD
ATOM     18  H71 UNL     1      36.072   3.244  35.889  1.00  0.00     0.277 HD
BRANCH  16  19
HETATM   19  C7  UNL     1      35.722   5.242  36.023  1.00  0.00     0.259 C 
BRANCH  19  20
HETATM   20  C8  UNL     1      37.216   5.400  35.780  1.00  0.00     0.257 C 
BRANCH  20  21
HETATM   21  N8  UNL     1      37.714   6.672  36.204  1.00  0.00    -0.078 N 
ATOM     22  H83 UNL     1      38.585   6.903  35.725  1.00  0.00     0.274 HD
ATOM     23  H82 UNL     1      37.127   7.429  35.853  1.00  0.00     0.274 HD
ATOM     24  H81 UNL     1      37.825   6.734  37.215  1.00  0.00     0.274 HD
ENDBRANCH  20  21
ENDBRANCH  19  20
ENDBRANCH  16  19
ENDBRANCH  15  16
ENDBRANCH  14  15
ENDBRANCH  13  14
BRANCH   1  25
HETATM   25  N1  UNL     1      27.965   1.324  35.332  1.00  0.00    -0.383 N 
ATOM     26  H12 UNL     1      27.318   0.635  35.715  1.00  0.00     0.157 HD
ATOM     27  H11 UNL     1      27.737   1.754  34.435  1.00  0.00     0.157 HD
ENDBRANCH   1  25
TORSDOF 7
ENDMDL
