MODEL 1
REMARK VINA RESULT: -5.875214263      0.000      0.000
REMARK  5 active torsions:
REMARK  status: ('A' for Active; 'I' for Inactive)
REMARK    1  A    between atoms: N1_1  and  C1_4 
REMARK    2  A    between atoms: C2_7  and  N3_8 
REMARK    3  A    between atoms: C6_15  and  N5_16 
REMARK       I    between atoms: N5_16  and  C7_18 
REMARK    4  A    between atoms: C7_18  and  C8_20 
REMARK    5  A    between atoms: C8_20  and  N6_21 
ROOT
HETATM    1  C1  UNL     1      41.452  38.917  17.748  1.00  0.00     0.680 A 
HETATM    2  N2  UNL     1      42.533  39.659  18.033  1.00  0.00    -0.174 N 
ATOM      3  H2  UNL     1      43.453  39.242  17.893  1.00  0.00     0.186 HD
HETATM    4  C2  UNL     1      42.471  40.930  18.495  1.00  0.00     0.153 A 
HETATM    5  C6  UNL     1      41.206  41.439  18.663  1.00  0.00     0.149 A 
HETATM    6  C9  UNL     1      40.114  40.684  18.374  1.00  0.00     0.290 A 
HETATM    7  O2  UNL     1      38.975  41.186  18.542  1.00  0.00    -0.265 OA
HETATM    8  N7  UNL     1      40.205  39.438  17.922  1.00  0.00    -0.154 N 
ATOM      9  H7  UNL     1      39.371  38.890  17.711  1.00  0.00     0.187 HD
ENDROOT
BRANCH   5  10
HETATM   10  N5  UNL     1      41.022  42.776  19.129  1.00  0.00    -0.318 N 
HETATM   11  C7  UNL     1      40.851  43.002  20.508  1.00  0.00     0.247 C 
HETATM   12  O1  UNL     1      40.865  42.045  21.304  1.00  0.00    -0.271 OA
ATOM     13  H5  UNL     1      41.016  43.556  18.473  1.00  0.00     0.169 HD
BRANCH  11  14
HETATM   14  C8  UNL     1      40.657  44.377  21.001  1.00  0.00     0.332 C 
BRANCH  14  15
HETATM   15  N6  UNL     1      41.946  44.891  21.428  1.00  0.00    -0.071 N 
ATOM     16  H63 UNL     1      42.324  44.389  22.232  1.00  0.00     0.274 HD
ATOM     17  H62 UNL     1      42.694  44.675  20.769  1.00  0.00     0.274 HD
ATOM     18  H61 UNL     1      41.848  45.891  21.599  1.00  0.00     0.274 HD
ENDBRANCH  14  15
ENDBRANCH  11  14
ENDBRANCH   5  10
BRANCH   4  19
HETATM   19  N3  UNL     1      43.632  41.678  18.807  1.00  0.00    -0.340 N 
HETATM   20  C3  UNL     1      44.272  41.979  20.073  1.00  0.00     0.154 C 
HETATM   21  C4  UNL     1      44.576  43.457  19.901  1.00  0.00     0.254 C 
HETATM   22  N4  UNL     1      45.025  43.506  18.523  1.00  0.00    -0.058 N 
HETATM   23  C5  UNL     1      44.506  42.360  17.834  1.00  0.00     0.358 C 
ATOM     24  H42 UNL     1      44.783  44.383  18.063  1.00  0.00     0.279 HD
ATOM     25  H41 UNL     1      46.039  43.582  18.445  1.00  0.00     0.279 HD
ENDBRANCH   4  19
BRANCH   1  26
HETATM   26  N1  UNL     1      41.531  37.717  17.308  1.00  0.00    -0.234 N 
ATOM     27  H12 UNL     1      41.342  36.963  17.969  1.00  0.00     0.174 HD
ATOM     28  H11 UNL     1      41.770  37.497  16.341  1.00  0.00     0.174 HD
ENDBRANCH   1  26
TORSDOF 5
ENDMDL
MODEL 2
REMARK VINA RESULT: -5.788474924      1.935      3.423
REMARK  5 active torsions:
REMARK  status: ('A' for Active; 'I' for Inactive)
REMARK    1  A    between atoms: N1_1  and  C1_4 
REMARK    2  A    between atoms: C2_7  and  N3_8 
REMARK    3  A    between atoms: C6_15  and  N5_16 
REMARK       I    between atoms: N5_16  and  C7_18 
REMARK    4  A    between atoms: C7_18  and  C8_20 
REMARK    5  A    between atoms: C8_20  and  N6_21 
ROOT
HETATM    1  C1  UNL     1      42.021  38.919  17.607  1.00  0.00     0.680 A 
HETATM    2  N2  UNL     1      41.316  39.985  18.013  1.00  0.00    -0.174 N 
ATOM      3  H2  UNL     1      40.298  39.922  17.998  1.00  0.00     0.186 HD
HETATM    4  C2  UNL     1      41.877  41.141  18.440  1.00  0.00     0.153 A 
HETATM    5  C6  UNL     1      43.251  41.169  18.438  1.00  0.00     0.149 A 
HETATM    6  C9  UNL     1      43.963  40.087  18.027  1.00  0.00     0.290 A 
HETATM    7  O2  UNL     1      45.216  40.153  18.040  1.00  0.00    -0.265 OA
HETATM    8  N7  UNL     1      43.383  38.965  17.612  1.00  0.00    -0.154 N 
ATOM      9  H7  UNL     1      43.939  38.166  17.308  1.00  0.00     0.187 HD
ENDROOT
BRANCH   5  10
HETATM   10  N5  UNL     1      43.949  42.331  18.885  1.00  0.00    -0.318 N 
HETATM   11  C7  UNL     1      44.184  42.500  20.262  1.00  0.00     0.247 C 
HETATM   12  O1  UNL     1      43.790  41.641  21.073  1.00  0.00    -0.271 OA
ATOM     13  H5  UNL     1      44.272  43.029  18.215  1.00  0.00     0.169 HD
BRANCH  11  14
HETATM   14  C8  UNL     1      44.900  43.698  20.736  1.00  0.00     0.332 C 
BRANCH  14  15
HETATM   15  N6  UNL     1      43.987  44.474  21.556  1.00  0.00    -0.071 N 
ATOM     16  H63 UNL     1      43.859  45.425  21.211  1.00  0.00     0.274 HD
ATOM     17  H62 UNL     1      43.019  44.166  21.469  1.00  0.00     0.274 HD
ATOM     18  H61 UNL     1      44.324  44.447  22.518  1.00  0.00     0.274 HD
ENDBRANCH  14  15
ENDBRANCH  11  14
ENDBRANCH   5  10
BRANCH   4  19
HETATM   19  N3  UNL     1      41.101  42.256  18.840  1.00  0.00    -0.340 N 
HETATM   20  C3  UNL     1      40.780  43.497  18.163  1.00  0.00     0.154 C 
HETATM   21  C4  UNL     1      40.989  44.501  19.284  1.00  0.00     0.254 C 
HETATM   22  N4  UNL     1      40.405  43.805  20.414  1.00  0.00    -0.058 N 
HETATM   23  C5  UNL     1      40.397  42.399  20.128  1.00  0.00     0.358 C 
ATOM     24  H42 UNL     1      40.874  44.023  21.293  1.00  0.00     0.279 HD
ATOM     25  H41 UNL     1      39.480  44.159  20.657  1.00  0.00     0.279 HD
ENDBRANCH   4  19
BRANCH   1  26
HETATM   26  N1  UNL     1      41.472  37.833  17.210  1.00  0.00    -0.234 N 
ATOM     27  H12 UNL     1      40.468  37.857  17.028  1.00  0.00     0.174 HD
ATOM     28  H11 UNL     1      41.994  36.968  17.072  1.00  0.00     0.174 HD
ENDBRANCH   1  26
TORSDOF 5
ENDMDL
MODEL 3
REMARK VINA RESULT: -5.362132745      1.338      1.499
REMARK  5 active torsions:
REMARK  status: ('A' for Active; 'I' for Inactive)
REMARK    1  A    between atoms: N1_1  and  C1_4 
REMARK    2  A    between atoms: C2_7  and  N3_8 
REMARK    3  A    between atoms: C6_15  and  N5_16 
REMARK       I    between atoms: N5_16  and  C7_18 
REMARK    4  A    between atoms: C7_18  and  C8_20 
REMARK    5  A    between atoms: C8_20  and  N6_21 
ROOT
HETATM    1  C1  UNL     1      41.444  38.942  17.759  1.00  0.00     0.680 A 
HETATM    2  N2  UNL     1      42.517  39.686  18.067  1.00  0.00    -0.174 N 
ATOM      3  H2  UNL     1      43.441  39.272  17.942  1.00  0.00     0.186 HD
HETATM    4  C2  UNL     1      42.443  40.954  18.537  1.00  0.00     0.153 A 
HETATM    5  C6  UNL     1      41.174  41.458  18.684  1.00  0.00     0.149 A 
HETATM    6  C9  UNL     1      40.090  40.703  18.371  1.00  0.00     0.290 A 
HETATM    7  O2  UNL     1      38.947  41.200  18.521  1.00  0.00    -0.265 OA
HETATM    8  N7  UNL     1      40.193  39.459  17.912  1.00  0.00    -0.154 N 
ATOM      9  H7  UNL     1      39.364  38.911  17.683  1.00  0.00     0.187 HD
ENDROOT
BRANCH   5  10
HETATM   10  N5  UNL     1      40.979  42.791  19.155  1.00  0.00    -0.318 N 
HETATM   11  C7  UNL     1      40.949  43.848  18.226  1.00  0.00     0.247 C 
HETATM   12  O1  UNL     1      41.088  43.614  17.011  1.00  0.00    -0.271 OA
ATOM     13  H5  UNL     1      40.862  42.976  20.152  1.00  0.00     0.169 HD
BRANCH  11  14
HETATM   14  C8  UNL     1      40.753  45.229  18.701  1.00  0.00     0.332 C 
BRANCH  14  15
HETATM   15  N6  UNL     1      42.060  45.839  18.868  1.00  0.00    -0.071 N 
ATOM     16  H63 UNL     1      42.751  45.193  19.250  1.00  0.00     0.274 HD
ATOM     17  H62 UNL     1      42.525  46.025  17.980  1.00  0.00     0.274 HD
ATOM     18  H61 UNL     1      41.949  46.677  19.438  1.00  0.00     0.274 HD
ENDBRANCH  14  15
ENDBRANCH  11  14
ENDBRANCH   5  10
BRANCH   4  19
HETATM   19  N3  UNL     1      43.597  41.703  18.874  1.00  0.00    -0.340 N 
HETATM   20  C3  UNL     1      44.236  41.962  20.149  1.00  0.00     0.154 C 
HETATM   21  C4  UNL     1      44.523  43.449  20.033  1.00  0.00     0.254 C 
HETATM   22  N4  UNL     1      44.969  43.555  18.657  1.00  0.00    -0.058 N 
HETATM   23  C5  UNL     1      44.460  42.431  17.925  1.00  0.00     0.358 C 
ATOM     24  H42 UNL     1      44.715  44.447  18.231  1.00  0.00     0.279 HD
ATOM     25  H41 UNL     1      45.981  43.647  18.580  1.00  0.00     0.279 HD
ENDBRANCH   4  19
BRANCH   1  26
HETATM   26  N1  UNL     1      41.534  37.745  17.313  1.00  0.00    -0.234 N 
ATOM     27  H12 UNL     1      42.388  37.496  16.813  1.00  0.00     0.174 HD
ATOM     28  H11 UNL     1      40.798  37.051  17.441  1.00  0.00     0.174 HD
ENDBRANCH   1  26
TORSDOF 5
ENDMDL
MODEL 4
REMARK VINA RESULT: -5.257826205      1.207      1.680
REMARK  5 active torsions:
REMARK  status: ('A' for Active; 'I' for Inactive)
REMARK    1  A    between atoms: N1_1  and  C1_4 
REMARK    2  A    between atoms: C2_7  and  N3_8 
REMARK    3  A    between atoms: C6_15  and  N5_16 
REMARK       I    between atoms: N5_16  and  C7_18 
REMARK    4  A    between atoms: C7_18  and  C8_20 
REMARK    5  A    between atoms: C8_20  and  N6_21 
ROOT
HETATM    1  C1  UNL     1      41.680  38.824  17.209  1.00  0.00     0.680 A 
HETATM    2  N2  UNL     1      42.609  39.762  16.973  1.00  0.00    -0.174 N 
ATOM      3  H2  UNL     1      43.433  39.497  16.432  1.00  0.00     0.186 HD
HETATM    4  C2  UNL     1      42.517  41.039  17.413  1.00  0.00     0.153 A 
HETATM    5  C6  UNL     1      41.386  41.337  18.135  1.00  0.00     0.149 A 
HETATM    6  C9  UNL     1      40.447  40.384  18.372  1.00  0.00     0.290 A 
HETATM    7  O2  UNL     1      39.429  40.696  19.037  1.00  0.00    -0.265 OA
HETATM    8  N7  UNL     1      40.566  39.137  17.927  1.00  0.00    -0.154 N 
ATOM      9  H7  UNL     1      39.847  38.439  18.118  1.00  0.00     0.187 HD
ENDROOT
BRANCH   5  10
HETATM   10  N5  UNL     1      41.176  42.658  18.633  1.00  0.00    -0.318 N 
HETATM   11  C7  UNL     1      41.650  42.989  19.916  1.00  0.00     0.247 C 
HETATM   12  O1  UNL     1      42.247  42.137  20.599  1.00  0.00    -0.271 OA
ATOM     13  H5  UNL     1      40.690  43.353  18.066  1.00  0.00     0.169 HD
BRANCH  11  14
HETATM   14  C8  UNL     1      41.436  44.348  20.442  1.00  0.00     0.332 C 
BRANCH  14  15
HETATM   15  N6  UNL     1      42.517  44.652  21.363  1.00  0.00    -0.071 N 
ATOM     16  H63 UNL     1      43.305  45.113  20.908  1.00  0.00     0.274 HD
ATOM     17  H62 UNL     1      42.280  45.398  22.016  1.00  0.00     0.274 HD
ATOM     18  H61 UNL     1      42.785  43.787  21.834  1.00  0.00     0.274 HD
ENDBRANCH  14  15
ENDBRANCH  11  14
ENDBRANCH   5  10
BRANCH   4  19
HETATM   19  N3  UNL     1      43.528  41.999  17.165  1.00  0.00    -0.340 N 
HETATM   20  C3  UNL     1      43.649  43.028  16.151  1.00  0.00     0.154 C 
HETATM   21  C4  UNL     1      45.100  42.856  15.735  1.00  0.00     0.254 C 
HETATM   22  N4  UNL     1      45.748  42.639  17.014  1.00  0.00    -0.058 N 
HETATM   23  C5  UNL     1      44.766  42.170  17.949  1.00  0.00     0.358 C 
ATOM     24  H42 UNL     1      46.552  42.015  16.945  1.00  0.00     0.279 HD
ATOM     25  H41 UNL     1      46.241  43.467  17.348  1.00  0.00     0.279 HD
ENDBRANCH   4  19
BRANCH   1  26
HETATM   26  N1  UNL     1      41.784  37.621  16.781  1.00  0.00    -0.234 N 
ATOM     27  H12 UNL     1      42.315  37.474  15.922  1.00  0.00     0.174 HD
ATOM     28  H11 UNL     1      41.365  36.825  17.262  1.00  0.00     0.174 HD
ENDBRANCH   1  26
TORSDOF 5
ENDMDL
MODEL 5
REMARK VINA RESULT: -4.879218403      2.105      3.590
REMARK  5 active torsions:
REMARK  status: ('A' for Active; 'I' for Inactive)
REMARK    1  A    between atoms: N1_1  and  C1_4 
REMARK    2  A    between atoms: C2_7  and  N3_8 
REMARK    3  A    between atoms: C6_15  and  N5_16 
REMARK       I    between atoms: N5_16  and  C7_18 
REMARK    4  A    between atoms: C7_18  and  C8_20 
REMARK    5  A    between atoms: C8_20  and  N6_21 
ROOT
HETATM    1  C1  UNL     1      41.547  39.802  17.903  1.00  0.00     0.680 A 
HETATM    2  N2  UNL     1      41.127  40.885  18.574  1.00  0.00    -0.174 N 
ATOM      3  H2  UNL     1      40.124  41.002  18.719  1.00  0.00     0.186 HD
HETATM    4  C2  UNL     1      41.958  41.832  19.069  1.00  0.00     0.153 A 
HETATM    5  C6  UNL     1      43.297  41.621  18.844  1.00  0.00     0.149 A 
HETATM    6  C9  UNL     1      43.719  40.524  18.164  1.00  0.00     0.290 A 
HETATM    7  O2  UNL     1      44.951  40.369  17.978  1.00  0.00    -0.265 OA
HETATM    8  N7  UNL     1      42.878  39.610  17.688  1.00  0.00    -0.154 N 
ATOM      9  H7  UNL     1      43.219  38.794  17.180  1.00  0.00     0.187 HD
ENDROOT
BRANCH   5  10
HETATM   10  N5  UNL     1      44.265  42.547  19.337  1.00  0.00    -0.318 N 
HETATM   11  C7  UNL     1      44.671  42.461  20.682  1.00  0.00     0.247 C 
HETATM   12  O1  UNL     1      44.191  41.585  21.424  1.00  0.00    -0.271 OA
ATOM     13  H5  UNL     1      44.658  43.261  18.723  1.00  0.00     0.169 HD
BRANCH  11  14
HETATM   14  C8  UNL     1      45.666  43.415  21.203  1.00  0.00     0.332 C 
BRANCH  14  15
HETATM   15  N6  UNL     1      45.177  43.931  22.470  1.00  0.00    -0.071 N 
ATOM     16  H63 UNL     1      44.449  43.346  22.879  1.00  0.00     0.274 HD
ATOM     17  H62 UNL     1      45.860  43.845  23.221  1.00  0.00     0.274 HD
ATOM     18  H61 UNL     1      44.872  44.893  22.323  1.00  0.00     0.274 HD
ENDBRANCH  14  15
ENDBRANCH  11  14
ENDBRANCH   5  10
BRANCH   4  19
HETATM   19  N3  UNL     1      41.479  42.975  19.755  1.00  0.00    -0.340 N 
HETATM   20  C3  UNL     1      41.020  43.157  21.117  1.00  0.00     0.154 C 
HETATM   21  C4  UNL     1      39.775  43.999  20.893  1.00  0.00     0.254 C 
HETATM   22  N4  UNL     1      40.224  44.917  19.864  1.00  0.00    -0.058 N 
HETATM   23  C5  UNL     1      41.340  44.327  19.183  1.00  0.00     0.358 C 
ATOM     24  H42 UNL     1      39.474  45.187  19.227  1.00  0.00     0.279 HD
ATOM     25  H41 UNL     1      40.435  45.844  20.232  1.00  0.00     0.279 HD
ENDBRANCH   4  19
BRANCH   1  26
HETATM   26  N1  UNL     1      40.744  38.915  17.445  1.00  0.00    -0.234 N 
ATOM     27  H12 UNL     1      41.014  38.442  16.582  1.00  0.00     0.174 HD
ATOM     28  H11 UNL     1      39.868  38.672  17.906  1.00  0.00     0.174 HD
ENDBRANCH   1  26
TORSDOF 5
ENDMDL
