MODEL 1
REMARK VINA RESULT: -8.182523165      0.000      0.000
REMARK  12 active torsions:
REMARK  status: ('A' for Active; 'I' for Inactive)
REMARK       I    between atoms: N1_2  and  C2_3 
REMARK    1  A    between atoms: N1_2  and  C5_16 
REMARK    2  A    between atoms: C2_3  and  C3_5 
REMARK    3  A    between atoms: C3_5  and  N2_6 
REMARK    4  A    between atoms: N2_6  and  C4_8 
REMARK    5  A    between atoms: C7_20  and  N8_21 
REMARK    6  A    between atoms: N8_21  and  C8_23 
REMARK    7  A    between atoms: C8_23  and  C9_24 
REMARK    8  A    between atoms: C9_24  and  O2_25 
REMARK    9  A    between atoms: C10_29  and  N10_30 
REMARK   10  A    between atoms: N10_30  and  C11_32 
REMARK   11  A    between atoms: C13_34  and  N11_35 
REMARK   12  A    between atoms: C14_36  and  N12_37 
ROOT
HETATM    1  N11 UNL     1      -7.445  19.484  32.919  1.00  0.00    -0.159 N 
HETATM    2  C14 UNL     1      -6.232  19.590  33.526  1.00  0.00     0.680 A 
HETATM    3  N13 UNL     1      -5.772  18.384  33.821  1.00  0.00    -0.185 N 
ATOM      4  H13 UNL     1      -4.885  18.174  34.280  1.00  0.00     0.184 HD
HETATM    5  C15 UNL     1      -6.675  17.494  33.413  1.00  0.00     0.131 A 
HETATM    6  C16 UNL     1      -6.697  16.106  33.474  1.00  0.00     0.146 A 
HETATM    7  C17 UNL     1      -5.595  15.390  34.067  1.00  0.00     0.120 C 
HETATM    8  N14 UNL     1      -4.698  14.828  34.545  1.00  0.00    -0.190 NA
HETATM    9  N15 UNL     1      -7.780  15.498  32.959  1.00  0.00    -0.342 N 
ATOM     10  H15 UNL     1      -7.833  14.479  32.986  1.00  0.00     0.167 HD
HETATM   11  C18 UNL     1      -8.793  16.186  32.412  1.00  0.00     0.183 A 
HETATM   12  N16 UNL     1      -8.756  17.530  32.361  1.00  0.00    -0.336 N 
ATOM     13  H16 UNL     1      -9.532  18.042  31.942  1.00  0.00     0.168 HD
HETATM   14  C19 UNL     1      -7.719  18.193  32.849  1.00  0.00     0.155 A 
ENDROOT
BRANCH   2  15
HETATM   15  N12 UNL     1      -5.576  20.684  33.798  1.00  0.00    -0.234 N 
ATOM     16 2H12 UNL     1      -4.986  20.783  34.624  1.00  0.00     0.174 HD
ATOM     17 1H12 UNL     1      -5.559  21.547  33.255  1.00  0.00     0.174 HD
ENDBRANCH   2  15
BRANCH   1  18
HETATM   18  C13 UNL     1      -8.170  20.646  32.491  1.00  0.00     0.134 A 
HETATM   19  C11 UNL     1      -7.598  21.736  31.689  1.00  0.00     0.109 A 
HETATM   20  C12 UNL     1      -8.377  20.696  30.979  1.00  0.00     0.055 A 
BRANCH  19  21
HETATM   21  N10 UNL     1      -8.104  23.052  31.903  1.00  0.00    -0.367 N 
ATOM     22  H10 UNL     1      -8.798  23.379  31.231  1.00  0.00     0.161 HD
BRANCH  21  23
HETATM   23  C10 UNL     1      -7.795  23.872  32.833  1.00  0.00     0.146 A 
HETATM   24  C5  UNL     1      -8.777  24.677  33.347  1.00  0.00     0.097 A 
HETATM   25  C6  UNL     1      -8.503  25.577  34.348  1.00  0.00     0.139 A 
HETATM   26  N7  UNL     1      -7.221  25.629  34.801  1.00  0.00    -0.200 N 
HETATM   27  C7  UNL     1      -6.235  24.852  34.318  1.00  0.00     0.679 A 
ATOM     28  H7  UNL     1      -6.996  26.291  35.544  1.00  0.00     0.183 HD
HETATM   29  N9  UNL     1      -6.542  23.984  33.336  1.00  0.00    -0.175 N 
ATOM     30  H9  UNL     1      -5.806  23.389  32.958  1.00  0.00     0.186 HD
BRANCH  24  31
HETATM   31  N1  UNL     1     -10.109  24.548  32.804  1.00  0.00    -0.317 N 
HETATM   32  C1  UNL     1     -10.498  25.480  31.773  1.00  0.00     0.159 C 
HETATM   33  C2  UNL     1     -10.970  23.547  33.278  1.00  0.00     0.242 C 
HETATM   34  O1  UNL     1     -10.517  22.773  34.194  1.00  0.00    -0.271 OA
BRANCH  33  35
HETATM   35  C3  UNL     1     -12.335  23.286  32.845  1.00  0.00     0.241 C 
BRANCH  35  36
HETATM   36  N2  UNL     1     -12.780  21.939  32.959  1.00  0.00    -0.215 N 
ATOM     37  H2  UNL     1     -13.509  21.717  33.638  1.00  0.00     0.178 HD
BRANCH  36  38
HETATM   38  C4  UNL     1     -12.290  20.987  32.232  1.00  0.00     0.707 A 
HETATM   39  N3  UNL     1     -12.217  21.033  30.888  1.00  0.00    -0.118 N 
HETATM   40  N4  UNL     1     -11.674  19.911  30.499  1.00  0.00    -0.212 N 
ATOM     41  H3  UNL     1     -12.527  21.798  30.288  1.00  0.00     0.207 HD
HETATM   42  N5  UNL     1     -11.393  19.142  31.546  1.00  0.00     0.009 NA
ATOM     43  H4  UNL     1     -11.491  19.659  29.528  1.00  0.00     0.206 HD
HETATM   44  N6  UNL     1     -11.777  19.812  32.629  1.00  0.00    -0.114 N 
ATOM     45  H6  UNL     1     -11.696  19.489  33.593  1.00  0.00     0.203 HD
ENDBRANCH  36  38
ENDBRANCH  35  36
ENDBRANCH  33  35
ENDBRANCH  24  31
BRANCH  27  46
HETATM   46  N8  UNL     1      -5.049  24.980  34.822  1.00  0.00    -0.224 N 
ATOM     47  H8  UNL     1      -4.993  25.176  35.822  1.00  0.00     0.177 HD
BRANCH  46  48
HETATM   48  C8  UNL     1      -3.817  24.873  34.119  1.00  0.00     0.164 C 
BRANCH  48  49
HETATM   49  C9  UNL     1      -3.148  23.528  34.293  1.00  0.00     0.184 C 
BRANCH  49  50
HETATM   50  O2  UNL     1      -3.986  22.744  35.081  1.00  0.00    -0.399 OA
ATOM     51  H2  UNL     1      -4.452  22.154  34.501  1.00  0.00     0.209 HD
ENDBRANCH  49  50
ENDBRANCH  48  49
ENDBRANCH  46  48
ENDBRANCH  27  46
ENDBRANCH  21  23
ENDBRANCH  19  21
ENDBRANCH   1  18
TORSDOF 12
ENDMDL
MODEL 2
REMARK VINA RESULT: -8.174478920      2.418      4.134
REMARK  12 active torsions:
REMARK  status: ('A' for Active; 'I' for Inactive)
REMARK       I    between atoms: N1_2  and  C2_3 
REMARK    1  A    between atoms: N1_2  and  C5_16 
REMARK    2  A    between atoms: C2_3  and  C3_5 
REMARK    3  A    between atoms: C3_5  and  N2_6 
REMARK    4  A    between atoms: N2_6  and  C4_8 
REMARK    5  A    between atoms: C7_20  and  N8_21 
REMARK    6  A    between atoms: N8_21  and  C8_23 
REMARK    7  A    between atoms: C8_23  and  C9_24 
REMARK    8  A    between atoms: C9_24  and  O2_25 
REMARK    9  A    between atoms: C10_29  and  N10_30 
REMARK   10  A    between atoms: N10_30  and  C11_32 
REMARK   11  A    between atoms: C13_34  and  N11_35 
REMARK   12  A    between atoms: C14_36  and  N12_37 
ROOT
HETATM    1  N11 UNL     1      -6.699  20.941  34.004  1.00  0.00    -0.159 N 
HETATM    2  C14 UNL     1      -7.265  19.821  34.530  1.00  0.00     0.680 A 
HETATM    3  N13 UNL     1      -6.362  19.149  35.228  1.00  0.00    -0.185 N 
ATOM      4  H13 UNL     1      -6.519  18.272  35.727  1.00  0.00     0.184 HD
HETATM    5  C15 UNL     1      -5.214  19.821  35.161  1.00  0.00     0.131 A 
HETATM    6  C16 UNL     1      -3.962  19.566  35.706  1.00  0.00     0.146 A 
HETATM    7  C17 UNL     1      -3.748  18.388  36.508  1.00  0.00     0.120 C 
HETATM    8  N14 UNL     1      -3.592  17.436  37.156  1.00  0.00    -0.190 NA
HETATM    9  N15 UNL     1      -2.996  20.464  35.442  1.00  0.00    -0.342 N 
ATOM     10  H15 UNL     1      -2.063  20.311  35.825  1.00  0.00     0.167 HD
HETATM   11  C18 UNL     1      -3.220  21.553  34.692  1.00  0.00     0.183 A 
HETATM   12  N16 UNL     1      -4.438  21.786  34.172  1.00  0.00    -0.336 N 
ATOM     13  H16 UNL     1      -4.596  22.617  33.604  1.00  0.00     0.168 HD
HETATM   14  C19 UNL     1      -5.435  20.942  34.393  1.00  0.00     0.155 A 
ENDROOT
BRANCH   2  15
HETATM   15  N12 UNL     1      -8.500  19.422  34.401  1.00  0.00    -0.234 N 
ATOM     16 2H12 UNL     1      -9.298  20.042  34.534  1.00  0.00     0.174 HD
ATOM     17 1H12 UNL     1      -8.826  18.486  34.160  1.00  0.00     0.174 HD
ENDBRANCH   2  15
BRANCH   1  18
HETATM   18  C13 UNL     1      -7.459  21.856  33.201  1.00  0.00     0.134 A 
HETATM   19  C11 UNL     1      -7.041  23.227  32.880  1.00  0.00     0.109 A 
HETATM   20  C12 UNL     1      -6.789  22.178  31.867  1.00  0.00     0.055 A 
BRANCH  19  21
HETATM   21  N10 UNL     1      -8.063  24.210  32.719  1.00  0.00    -0.367 N 
ATOM     22  H10 UNL     1      -8.223  24.536  31.765  1.00  0.00     0.161 HD
BRANCH  21  23
HETATM   23  C10 UNL     1      -8.801  24.732  33.621  1.00  0.00     0.146 A 
HETATM   24  C5  UNL     1     -10.147  24.475  33.593  1.00  0.00     0.097 A 
HETATM   25  C6  UNL     1     -10.990  25.009  34.537  1.00  0.00     0.139 A 
HETATM   26  N7  UNL     1     -10.429  25.797  35.494  1.00  0.00    -0.200 N 
HETATM   27  C7  UNL     1      -9.112  26.068  35.549  1.00  0.00     0.679 A 
ATOM     28  H7  UNL     1     -11.037  26.203  36.205  1.00  0.00     0.183 HD
HETATM   29  N9  UNL     1      -8.319  25.527  34.606  1.00  0.00    -0.175 N 
ATOM     30  H9  UNL     1      -7.319  25.724  34.633  1.00  0.00     0.186 HD
BRANCH  24  31
HETATM   31  N1  UNL     1     -10.650  23.625  32.539  1.00  0.00    -0.317 N 
HETATM   32  C1  UNL     1     -10.918  24.240  31.261  1.00  0.00     0.159 C 
HETATM   33  C2  UNL     1     -10.860  22.258  32.776  1.00  0.00     0.242 C 
HETATM   34  O1  UNL     1     -10.584  21.819  33.949  1.00  0.00    -0.271 OA
BRANCH  33  35
HETATM   35  C3  UNL     1     -11.364  21.271  31.832  1.00  0.00     0.241 C 
BRANCH  35  36
HETATM   36  N2  UNL     1     -10.410  20.734  30.922  1.00  0.00    -0.215 N 
ATOM     37  H2  UNL     1     -10.240  21.221  30.042  1.00  0.00     0.178 HD
BRANCH  36  38
HETATM   38  C4  UNL     1      -9.753  19.647  31.174  1.00  0.00     0.707 A 
HETATM   39  N3  UNL     1      -8.531  19.378  30.675  1.00  0.00    -0.118 N 
HETATM   40  N4  UNL     1      -8.183  18.207  31.137  1.00  0.00    -0.212 N 
ATOM     41  H3  UNL     1      -7.982  19.974  30.055  1.00  0.00     0.207 HD
HETATM   42  N5  UNL     1      -9.137  17.711  31.917  1.00  0.00     0.009 NA
ATOM     43  H4  UNL     1      -7.302  17.738  30.927  1.00  0.00     0.206 HD
HETATM   44  N6  UNL     1     -10.118  18.609  31.942  1.00  0.00    -0.114 N 
ATOM     45  H6  UNL     1     -10.996  18.523  32.455  1.00  0.00     0.203 HD
ENDBRANCH  36  38
ENDBRANCH  35  36
ENDBRANCH  33  35
ENDBRANCH  24  31
BRANCH  27  46
HETATM   46  N8  UNL     1      -8.681  26.828  36.505  1.00  0.00    -0.224 N 
ATOM     47  H8  UNL     1      -7.672  26.858  36.649  1.00  0.00     0.177 HD
BRANCH  46  48
HETATM   48  C8  UNL     1      -9.479  27.625  37.373  1.00  0.00     0.164 C 
BRANCH  48  49
HETATM   49  C9  UNL     1      -9.877  28.951  36.763  1.00  0.00     0.184 C 
BRANCH  49  50
HETATM   50  O2  UNL     1     -11.161  28.804  36.247  1.00  0.00    -0.399 OA
ATOM     51  H2  UNL     1     -11.176  29.221  35.394  1.00  0.00     0.209 HD
ENDBRANCH  49  50
ENDBRANCH  48  49
ENDBRANCH  46  48
ENDBRANCH  27  46
ENDBRANCH  21  23
ENDBRANCH  19  21
ENDBRANCH   1  18
TORSDOF 12
ENDMDL
MODEL 3
REMARK VINA RESULT: -8.171750804      2.035      6.365
REMARK  12 active torsions:
REMARK  status: ('A' for Active; 'I' for Inactive)
REMARK       I    between atoms: N1_2  and  C2_3 
REMARK    1  A    between atoms: N1_2  and  C5_16 
REMARK    2  A    between atoms: C2_3  and  C3_5 
REMARK    3  A    between atoms: C3_5  and  N2_6 
REMARK    4  A    between atoms: N2_6  and  C4_8 
REMARK    5  A    between atoms: C7_20  and  N8_21 
REMARK    6  A    between atoms: N8_21  and  C8_23 
REMARK    7  A    between atoms: C8_23  and  C9_24 
REMARK    8  A    between atoms: C9_24  and  O2_25 
REMARK    9  A    between atoms: C10_29  and  N10_30 
REMARK   10  A    between atoms: N10_30  and  C11_32 
REMARK   11  A    between atoms: C13_34  and  N11_35 
REMARK   12  A    between atoms: C14_36  and  N12_37 
ROOT
HETATM    1  N11 UNL     1      -8.247  23.817  33.501  1.00  0.00    -0.159 N 
HETATM    2  C14 UNL     1      -7.865  25.079  33.834  1.00  0.00     0.680 A 
HETATM    3  N13 UNL     1      -8.900  25.747  34.320  1.00  0.00    -0.185 N 
ATOM      4  H13 UNL     1      -8.893  26.713  34.647  1.00  0.00     0.184 HD
HETATM    5  C15 UNL     1      -9.952  24.930  34.307  1.00  0.00     0.131 A 
HETATM    6  C16 UNL     1     -11.271  25.117  34.702  1.00  0.00     0.146 A 
HETATM    7  C17 UNL     1     -11.693  26.386  35.238  1.00  0.00     0.120 C 
HETATM    8  N14 UNL     1     -12.017  27.413  35.674  1.00  0.00    -0.190 NA
HETATM    9  N15 UNL     1     -12.099  24.067  34.552  1.00  0.00    -0.342 N 
ATOM     10  H15 UNL     1     -13.075  24.166  34.831  1.00  0.00     0.167 HD
HETATM   11  C18 UNL     1     -11.682  22.895  34.049  1.00  0.00     0.183 A 
HETATM   12  N16 UNL     1     -10.401  22.731  33.672  1.00  0.00    -0.336 N 
ATOM     13  H16 UNL     1     -10.097  21.836  33.291  1.00  0.00     0.168 HD
HETATM   14  C19 UNL     1      -9.533  23.724  33.792  1.00  0.00     0.155 A 
ENDROOT
BRANCH   2  15
HETATM   15  N12 UNL     1      -6.677  25.605  33.716  1.00  0.00    -0.234 N 
ATOM     16 2H12 UNL     1      -5.954  25.206  33.118  1.00  0.00     0.174 HD
ATOM     17 1H12 UNL     1      -6.321  26.442  34.177  1.00  0.00     0.174 HD
ENDBRANCH   2  15
BRANCH   1  18
HETATM   18  C13 UNL     1      -7.315  22.875  32.949  1.00  0.00     0.134 A 
HETATM   19  C11 UNL     1      -7.633  21.476  32.635  1.00  0.00     0.109 A 
HETATM   20  C12 UNL     1      -7.666  22.453  31.524  1.00  0.00     0.055 A 
BRANCH  19  21
HETATM   21  N10 UNL     1      -6.588  20.513  32.770  1.00  0.00    -0.367 N 
ATOM     22  H10 UNL     1      -6.615  19.730  32.116  1.00  0.00     0.161 HD
BRANCH  21  23
HETATM   23  C10 UNL     1      -5.624  20.512  33.608  1.00  0.00     0.146 A 
HETATM   24  C5  UNL     1      -5.382  19.368  34.323  1.00  0.00     0.097 A 
HETATM   25  C6  UNL     1      -4.359  19.307  35.237  1.00  0.00     0.139 A 
HETATM   26  N7  UNL     1      -3.603  20.427  35.397  1.00  0.00    -0.200 N 
HETATM   27  C7  UNL     1      -3.814  21.565  34.710  1.00  0.00     0.679 A 
ATOM     28  H7  UNL     1      -2.838  20.403  36.071  1.00  0.00     0.183 HD
HETATM   29  N9  UNL     1      -4.827  21.585  33.824  1.00  0.00    -0.175 N 
ATOM     30  H9  UNL     1      -5.001  22.440  33.297  1.00  0.00     0.186 HD
BRANCH  24  31
HETATM   31  N1  UNL     1      -6.237  18.228  34.083  1.00  0.00    -0.317 N 
HETATM   32  C1  UNL     1      -5.676  17.121  33.347  1.00  0.00     0.159 C 
HETATM   33  C2  UNL     1      -7.557  18.224  34.559  1.00  0.00     0.242 C 
HETATM   34  O1  UNL     1      -7.948  19.261  35.204  1.00  0.00    -0.271 OA
BRANCH  33  35
HETATM   35  C3  UNL     1      -8.544  17.167  34.399  1.00  0.00     0.241 C 
BRANCH  35  36
HETATM   36  N2  UNL     1      -8.906  16.846  33.061  1.00  0.00    -0.215 N 
ATOM     37  H2  UNL     1      -9.054  15.868  32.811  1.00  0.00     0.178 HD
BRANCH  36  38
HETATM   38  C4  UNL     1      -9.052  17.754  32.150  1.00  0.00     0.707 A 
HETATM   39  N3  UNL     1      -8.169  17.967  31.156  1.00  0.00    -0.118 N 
HETATM   40  N4  UNL     1      -8.638  18.951  30.436  1.00  0.00    -0.212 N 
ATOM     41  H3  UNL     1      -7.299  17.458  30.995  1.00  0.00     0.207 HD
HETATM   42  N5  UNL     1      -9.795  19.379  30.930  1.00  0.00     0.009 NA
ATOM     43  H4  UNL     1      -8.181  19.336  29.610  1.00  0.00     0.206 HD
HETATM   44  N6  UNL     1     -10.055  18.634  32.000  1.00  0.00    -0.114 N 
ATOM     45  H6  UNL     1     -10.875  18.716  32.603  1.00  0.00     0.203 HD
ENDBRANCH  36  38
ENDBRANCH  35  36
ENDBRANCH  33  35
ENDBRANCH  24  31
BRANCH  27  46
HETATM   46  N8  UNL     1      -3.034  22.572  34.937  1.00  0.00    -0.224 N 
ATOM     47  H8  UNL     1      -2.139  22.370  35.382  1.00  0.00     0.177 HD
BRANCH  46  48
HETATM   48  C8  UNL     1      -3.302  23.934  34.624  1.00  0.00     0.164 C 
BRANCH  48  49
HETATM   49  C9  UNL     1      -3.057  24.270  33.169  1.00  0.00     0.184 C 
BRANCH  49  50
HETATM   50  O2  UNL     1      -4.294  24.295  32.532  1.00  0.00    -0.399 OA
ATOM     51  H2  UNL     1      -4.297  23.597  31.889  1.00  0.00     0.209 HD
ENDBRANCH  49  50
ENDBRANCH  48  49
ENDBRANCH  46  48
ENDBRANCH  27  46
ENDBRANCH  21  23
ENDBRANCH  19  21
ENDBRANCH   1  18
TORSDOF 12
ENDMDL
MODEL 4
REMARK VINA RESULT: -8.129683210      2.264      6.601
REMARK  12 active torsions:
REMARK  status: ('A' for Active; 'I' for Inactive)
REMARK       I    between atoms: N1_2  and  C2_3 
REMARK    1  A    between atoms: N1_2  and  C5_16 
REMARK    2  A    between atoms: C2_3  and  C3_5 
REMARK    3  A    between atoms: C3_5  and  N2_6 
REMARK    4  A    between atoms: N2_6  and  C4_8 
REMARK    5  A    between atoms: C7_20  and  N8_21 
REMARK    6  A    between atoms: N8_21  and  C8_23 
REMARK    7  A    between atoms: C8_23  and  C9_24 
REMARK    8  A    between atoms: C9_24  and  O2_25 
REMARK    9  A    between atoms: C10_29  and  N10_30 
REMARK   10  A    between atoms: N10_30  and  C11_32 
REMARK   11  A    between atoms: C13_34  and  N11_35 
REMARK   12  A    between atoms: C14_36  and  N12_37 
ROOT
HETATM    1  N11 UNL     1      -7.623  24.437  33.997  1.00  0.00    -0.159 N 
HETATM    2  C14 UNL     1      -6.733  25.323  34.521  1.00  0.00     0.680 A 
HETATM    3  N13 UNL     1      -7.358  26.152  35.343  1.00  0.00    -0.185 N 
ATOM      4  H13 UNL     1      -6.929  26.914  35.869  1.00  0.00     0.184 HD
HETATM    5  C15 UNL     1      -8.646  25.814  35.359  1.00  0.00     0.131 A 
HETATM    6  C16 UNL     1      -9.732  26.346  36.043  1.00  0.00     0.146 A 
HETATM    7  C17 UNL     1      -9.551  27.471  36.924  1.00  0.00     0.120 C 
HETATM    8  N14 UNL     1      -9.388  28.376  37.635  1.00  0.00    -0.190 NA
HETATM    9  N15 UNL     1     -10.923  25.758  35.832  1.00  0.00    -0.342 N 
ATOM     10  H15 UNL     1     -11.745  26.121  36.317  1.00  0.00     0.167 HD
HETATM   11  C18 UNL     1     -11.066  24.711  35.005  1.00  0.00     0.183 A 
HETATM   12  N16 UNL     1     -10.005  24.208  34.351  1.00  0.00    -0.336 N 
ATOM     13  H16 UNL     1     -10.126  23.412  33.726  1.00  0.00     0.168 HD
HETATM   14  C19 UNL     1      -8.802  24.738  34.513  1.00  0.00     0.155 A 
ENDROOT
BRANCH   2  15
HETATM   15  N12 UNL     1      -5.452  25.391  34.286  1.00  0.00    -0.234 N 
ATOM     16 2H12 UNL     1      -5.068  25.525  33.352  1.00  0.00     0.174 HD
ATOM     17 1H12 UNL     1      -4.694  25.323  34.966  1.00  0.00     0.174 HD
ENDBRANCH   2  15
BRANCH   1  18
HETATM   18  C13 UNL     1      -7.209  23.421  33.072  1.00  0.00     0.134 A 
HETATM   19  C11 UNL     1      -8.013  22.245  32.713  1.00  0.00     0.109 A 
HETATM   20  C12 UNL     1      -8.043  23.403  31.792  1.00  0.00     0.055 A 
BRANCH  19  21
HETATM   21  N10 UNL     1      -7.318  21.039  32.396  1.00  0.00    -0.367 N 
ATOM     22  H10 UNL     1      -7.060  20.916  31.416  1.00  0.00     0.161 HD
BRANCH  21  23
HETATM   23  C10 UNL     1      -6.979  20.096  33.188  1.00  0.00     0.146 A 
HETATM   24  C5  UNL     1      -7.738  18.954  33.206  1.00  0.00     0.097 A 
HETATM   25  C6  UNL     1      -7.421  17.907  34.036  1.00  0.00     0.139 A 
HETATM   26  N7  UNL     1      -6.327  18.055  34.832  1.00  0.00    -0.200 N 
HETATM   27  C7  UNL     1      -5.563  19.162  34.838  1.00  0.00     0.679 A 
ATOM     28  H7  UNL     1      -6.075  17.289  35.456  1.00  0.00     0.183 HD
HETATM   29  N9  UNL     1      -5.906  20.168  34.011  1.00  0.00    -0.175 N 
ATOM     30  H9  UNL     1      -5.337  21.014  34.004  1.00  0.00     0.186 HD
BRANCH  24  31
HETATM   31  N1  UNL     1      -8.879  18.888  32.323  1.00  0.00    -0.317 N 
HETATM   32  C1  UNL     1      -8.646  18.445  30.970  1.00  0.00     0.159 C 
HETATM   33  C2  UNL     1     -10.153  19.246  32.790  1.00  0.00     0.242 C 
HETATM   34  O1  UNL     1     -10.243  19.621  34.013  1.00  0.00    -0.271 OA
BRANCH  33  35
HETATM   35  C3  UNL     1     -11.397  19.241  32.035  1.00  0.00     0.241 C 
BRANCH  35  36
HETATM   36  N2  UNL     1     -12.310  20.293  32.328  1.00  0.00    -0.215 N 
ATOM     37  H2  UNL     1     -12.932  20.196  33.130  1.00  0.00     0.178 HD
BRANCH  36  38
HETATM   38  C4  UNL     1     -12.377  21.367  31.609  1.00  0.00     0.707 A 
HETATM   39  N3  UNL     1     -13.391  21.642  30.765  1.00  0.00    -0.118 N 
HETATM   40  N4  UNL     1     -13.124  22.797  30.216  1.00  0.00    -0.212 N 
ATOM     41  H3  UNL     1     -14.210  21.060  30.588  1.00  0.00     0.207 HD
HETATM   42  N5  UNL     1     -11.974  23.278  30.677  1.00  0.00     0.009 NA
ATOM     43  H4  UNL     1     -13.715  23.264  29.530  1.00  0.00     0.206 HD
HETATM   44  N6  UNL     1     -11.506  22.387  31.547  1.00  0.00    -0.114 N 
ATOM     45  H6  UNL     1     -10.637  22.465  32.075  1.00  0.00     0.203 HD
ENDBRANCH  36  38
ENDBRANCH  35  36
ENDBRANCH  33  35
ENDBRANCH  24  31
BRANCH  27  46
HETATM   46  N8  UNL     1      -4.541  19.199  35.632  1.00  0.00    -0.224 N 
ATOM     47  H8  UNL     1      -4.226  20.121  35.933  1.00  0.00     0.177 HD
BRANCH  46  48
HETATM   48  C8  UNL     1      -3.817  18.079  36.126  1.00  0.00     0.164 C 
BRANCH  48  49
HETATM   49  C9  UNL     1      -3.957  17.893  37.621  1.00  0.00     0.184 C 
BRANCH  49  50
HETATM   50  O2  UNL     1      -5.318  17.896  37.916  1.00  0.00    -0.399 OA
ATOM     51  H2  UNL     1      -5.488  17.154  38.484  1.00  0.00     0.209 HD
ENDBRANCH  49  50
ENDBRANCH  48  49
ENDBRANCH  46  48
ENDBRANCH  27  46
ENDBRANCH  21  23
ENDBRANCH  19  21
ENDBRANCH   1  18
TORSDOF 12
ENDMDL
MODEL 5
REMARK VINA RESULT: -8.055228761      1.942      6.418
REMARK  12 active torsions:
REMARK  status: ('A' for Active; 'I' for Inactive)
REMARK       I    between atoms: N1_2  and  C2_3 
REMARK    1  A    between atoms: N1_2  and  C5_16 
REMARK    2  A    between atoms: C2_3  and  C3_5 
REMARK    3  A    between atoms: C3_5  and  N2_6 
REMARK    4  A    between atoms: N2_6  and  C4_8 
REMARK    5  A    between atoms: C7_20  and  N8_21 
REMARK    6  A    between atoms: N8_21  and  C8_23 
REMARK    7  A    between atoms: C8_23  and  C9_24 
REMARK    8  A    between atoms: C9_24  and  O2_25 
REMARK    9  A    between atoms: C10_29  and  N10_30 
REMARK   10  A    between atoms: N10_30  and  C11_32 
REMARK   11  A    between atoms: C13_34  and  N11_35 
REMARK   12  A    between atoms: C14_36  and  N12_37 
ROOT
HETATM    1  N11 UNL     1      -8.214  24.580  34.087  1.00  0.00    -0.159 N 
HETATM    2  C14 UNL     1      -7.283  25.489  34.485  1.00  0.00     0.680 A 
HETATM    3  N13 UNL     1      -7.820  26.330  35.354  1.00  0.00    -0.185 N 
ATOM      4  H13 UNL     1      -7.345  27.109  35.811  1.00  0.00     0.184 HD
HETATM    5  C15 UNL     1      -9.093  25.977  35.527  1.00  0.00     0.131 A 
HETATM    6  C16 UNL     1     -10.101  26.512  36.320  1.00  0.00     0.146 A 
HETATM    7  C17 UNL     1      -9.836  27.660  37.149  1.00  0.00     0.120 C 
HETATM    8  N14 UNL     1      -9.606  28.584  37.815  1.00  0.00    -0.190 NA
HETATM    9  N15 UNL     1     -11.299  25.906  36.261  1.00  0.00    -0.342 N 
ATOM     10  H15 UNL     1     -12.065  26.270  36.829  1.00  0.00     0.167 HD
HETATM   11  C18 UNL     1     -11.522  24.837  35.480  1.00  0.00     0.183 A 
HETATM   12  N16 UNL     1     -10.535  24.331  34.719  1.00  0.00    -0.336 N 
ATOM     13  H16 UNL     1     -10.716  23.519  34.130  1.00  0.00     0.168 HD
HETATM   14  C19 UNL     1      -9.330  24.880  34.729  1.00  0.00     0.155 A 
ENDROOT
BRANCH   2  15
HETATM   15  N12 UNL     1      -6.038  25.567  34.102  1.00  0.00    -0.234 N 
ATOM     16 2H12 UNL     1      -5.503  24.756  33.792  1.00  0.00     0.174 HD
ATOM     17 1H12 UNL     1      -5.454  26.403  34.060  1.00  0.00     0.174 HD
ENDBRANCH   2  15
BRANCH   1  18
HETATM   18  C13 UNL     1      -7.894  23.547  33.143  1.00  0.00     0.134 A 
HETATM   19  C11 UNL     1      -8.728  22.365  32.889  1.00  0.00     0.109 A 
HETATM   20  C12 UNL     1      -8.853  23.507  31.955  1.00  0.00     0.055 A 
BRANCH  19  21
HETATM   21  N10 UNL     1      -8.068  21.154  32.525  1.00  0.00    -0.367 N 
ATOM     22  H10 UNL     1      -8.293  20.781  31.602  1.00  0.00     0.161 HD
BRANCH  21  23
HETATM   23  C10 UNL     1      -7.228  20.479  33.212  1.00  0.00     0.146 A 
HETATM   24  C5  UNL     1      -7.507  19.163  33.473  1.00  0.00     0.097 A 
HETATM   25  C6  UNL     1      -6.642  18.388  34.207  1.00  0.00     0.139 A 
HETATM   26  N7  UNL     1      -5.504  18.985  34.657  1.00  0.00    -0.200 N 
HETATM   27  C7  UNL     1      -5.202  20.274  34.417  1.00  0.00     0.679 A 
ATOM     28  H7  UNL     1      -4.848  18.427  35.203  1.00  0.00     0.183 HD
HETATM   29  N9  UNL     1      -6.076  21.001  33.696  1.00  0.00    -0.175 N 
ATOM     30  H9  UNL     1      -5.862  21.980  33.507  1.00  0.00     0.186 HD
BRANCH  24  31
HETATM   31  N1  UNL     1      -8.738  18.617  32.952  1.00  0.00    -0.317 N 
HETATM   32  C1  UNL     1      -8.656  17.829  31.746  1.00  0.00     0.159 C 
HETATM   33  C2  UNL     1      -9.952  18.858  33.612  1.00  0.00     0.242 C 
HETATM   34  O1  UNL     1      -9.906  19.570  34.678  1.00  0.00    -0.271 OA
BRANCH  33  35
HETATM   35  C3  UNL     1     -11.273  18.390  33.219  1.00  0.00     0.241 C 
BRANCH  35  36
HETATM   36  N2  UNL     1     -11.868  19.055  32.110  1.00  0.00    -0.215 N 
ATOM     37  H2  UNL     1     -12.191  18.500  31.318  1.00  0.00     0.178 HD
BRANCH  36  38
HETATM   38  C4  UNL     1     -12.010  20.341  32.073  1.00  0.00     0.707 A 
HETATM   39  N3  UNL     1     -12.000  21.064  30.936  1.00  0.00    -0.118 N 
HETATM   40  N4  UNL     1     -12.168  22.313  31.280  1.00  0.00    -0.212 N 
ATOM     41  H3  UNL     1     -11.885  20.705  29.988  1.00  0.00     0.207 HD
HETATM   42  N5  UNL     1     -12.287  22.422  32.599  1.00  0.00     0.009 NA
ATOM     43  H4  UNL     1     -12.203  23.095  30.627  1.00  0.00     0.206 HD
HETATM   44  N6  UNL     1     -12.189  21.192  33.096  1.00  0.00    -0.114 N 
ATOM     45  H6  UNL     1     -12.240  20.940  34.083  1.00  0.00     0.203 HD
ENDBRANCH  36  38
ENDBRANCH  35  36
ENDBRANCH  33  35
ENDBRANCH  24  31
BRANCH  27  46
HETATM   46  N8  UNL     1      -4.092  20.742  34.889  1.00  0.00    -0.224 N 
ATOM     47  H8  UNL     1      -3.845  20.470  35.841  1.00  0.00     0.177 HD
BRANCH  46  48
HETATM   48  C8  UNL     1      -3.181  21.598  34.210  1.00  0.00     0.164 C 
BRANCH  48  49
HETATM   49  C9  UNL     1      -3.380  23.061  34.541  1.00  0.00     0.184 C 
BRANCH  49  50
HETATM   50  O2  UNL     1      -4.540  23.161  35.304  1.00  0.00    -0.399 OA
ATOM     51  H2  UNL     1      -4.491  23.974  35.792  1.00  0.00     0.209 HD
ENDBRANCH  49  50
ENDBRANCH  48  49
ENDBRANCH  46  48
ENDBRANCH  27  46
ENDBRANCH  21  23
ENDBRANCH  19  21
ENDBRANCH   1  18
TORSDOF 12
ENDMDL
