MODEL 1
REMARK VINA RESULT: -8.930998763      0.000      0.000
REMARK  11 active torsions:
REMARK  status: ('A' for Active; 'I' for Inactive)
REMARK    1  A    between atoms: N2_5  and  C3_6 
REMARK    2  A    between atoms: C4_7  and  O1_8 
REMARK    3  A    between atoms: C6_11  and  S1_12 
REMARK    4  A    between atoms: S1_12  and  N3_13 
REMARK    5  A    between atoms: S1_12  and  N4_17 
REMARK    6  A    between atoms: N4_17  and  C7_19 
REMARK    7  A    between atoms: C7_19  and  C8_20 
REMARK    8  A    between atoms: C10_22  and  O3_23 
REMARK    9  A    between atoms: C10_22  and  C11_25 
REMARK   10  A    between atoms: C16_34  and  N7_35 
REMARK   11  A    between atoms: C18_42  and  N9_43 
ROOT
HETATM    1  C3  UNL     1     -10.012  26.669  35.625  1.00  0.00     0.127 A 
HETATM    2  C4  UNL     1      -8.791  26.753  36.259  1.00  0.00     0.098 A 
HETATM    3  C5  UNL     1      -7.682  26.013  35.819  1.00  0.00     0.062 A 
HETATM    4  C6  UNL     1      -7.868  25.218  34.750  1.00  0.00     0.063 A 
HETATM    5  C15 UNL     1      -9.027  25.088  34.086  1.00  0.00     0.062 A 
HETATM    6  C16 UNL     1     -10.127  25.833  34.537  1.00  0.00     0.136 A 
ENDROOT
BRANCH   4   7
HETATM    7  S1  UNL     1      -6.333  24.184  34.065  1.00  0.00     0.133 S 
HETATM    8  O2  UNL     1      -4.975  23.804  35.069  1.00  0.00    -0.224 OA
BRANCH   7   9
HETATM    9  N3  UNL     1      -5.578  25.690  33.516  1.00  0.00    -0.341 N 
ATOM     10  H32 UNL     1      -5.705  26.677  33.739  1.00  0.00     0.167 HD
ATOM     11  H31 UNL     1      -4.976  25.153  32.893  1.00  0.00     0.167 HD
ENDBRANCH   7   9
BRANCH   7  12
HETATM   12  N4  UNL     1      -6.518  23.535  32.325  1.00  0.00    -0.330 N 
ATOM     13  H4  UNL     1      -6.079  23.941  31.498  1.00  0.00     0.170 HD
BRANCH  12  14
HETATM   14  C7  UNL     1      -7.356  22.397  32.324  1.00  0.00     0.166 C 
BRANCH  14  15
HETATM   15  C8  UNL     1      -7.042  21.497  33.521  1.00  0.00     0.245 C 
HETATM   16  C9  UNL     1      -5.674  20.925  33.438  1.00  0.00     0.093 C 
HETATM   17  C10 UNL     1      -5.562  19.467  33.746  1.00  0.00     0.200 C 
HETATM   18  C12 UNL     1      -6.754  18.685  33.342  1.00  0.00     0.198 C 
HETATM   19  O5  UNL     1      -6.834  17.475  33.395  1.00  0.00    -0.292 OA
HETATM   20  C13 UNL     1      -7.937  19.434  32.839  1.00  0.00     0.354 C 
HETATM   21  N6  UNL     1      -8.090  20.559  33.737  1.00  0.00     0.097 N 
HETATM   22  C14 UNL     1      -9.370  21.183  33.647  1.00  0.00     0.310 C 
BRANCH  17  23
HETATM   23  O3  UNL     1      -4.466  18.897  33.100  1.00  0.00    -0.373 OA
ATOM     24  H3  UNL     1      -4.158  18.125  33.561  1.00  0.00     0.211 HD
ENDBRANCH  17  23
BRANCH  17  25
HETATM   25  C11 UNL     1      -5.373  19.251  35.202  1.00  0.00     0.273 C 
HETATM   26  N5  UNL     1      -4.092  18.979  35.748  1.00  0.00    -0.059 NA
HETATM   27  O4  UNL     1      -6.360  19.306  35.981  1.00  0.00    -0.273 OA
ENDBRANCH  17  25
ENDBRANCH  14  15
ENDBRANCH  12  14
ENDBRANCH   7  12
ENDBRANCH   4   7
BRANCH   2  28
HETATM   28  O1  UNL     1      -8.660  27.588  37.352  1.00  0.00    -0.358 OA
ATOM     29  H1  UNL     1      -7.834  27.607  37.821  1.00  0.00     0.217 HD
ENDBRANCH   2  28
BRANCH   6  30
HETATM   30  N7  UNL     1     -11.375  25.738  33.882  1.00  0.00    -0.113 N 
HETATM   31  O6  UNL     1     -12.051  24.696  33.958  1.00  0.00    -0.532 OA
HETATM   32  O7  UNL     1     -11.873  26.780  33.154  1.00  0.00    -0.532 OA
ENDBRANCH   6  30
BRANCH   1  33
HETATM   33  N2  UNL     1     -11.071  27.459  36.149  1.00  0.00    -0.200 N 
HETATM   34  N1  UNL     1     -11.248  28.721  35.777  1.00  0.00    -0.290 N 
HETATM   35  C2  UNL     1     -12.231  29.469  36.267  1.00  0.00     0.066 A 
ATOM     36  H1  UNL     1     -10.610  29.129  35.094  1.00  0.00     0.187 HD
HETATM   37  C1  UNL     1     -12.445  30.899  35.856  1.00  0.00     0.074 C 
HETATM   38  C18 UNL     1     -13.083  28.896  37.188  1.00  0.00     0.127 A 
HETATM   39  N8  UNL     1     -12.907  27.624  37.565  1.00  0.00    -0.292 N 
HETATM   40  C17 UNL     1     -11.916  26.910  37.055  1.00  0.00     0.347 A 
ATOM     41  H8  UNL     1     -13.539  27.204  38.246  1.00  0.00     0.172 HD
HETATM   42  O8  UNL     1     -11.704  25.693  37.380  1.00  0.00    -0.245 OA
BRANCH  38  43
HETATM   43  N9  UNL     1     -14.078  29.556  37.722  1.00  0.00    -0.384 N 
ATOM     44  H92 UNL     1     -13.880  30.475  38.119  1.00  0.00     0.157 HD
ATOM     45  H91 UNL     1     -15.026  29.180  37.750  1.00  0.00     0.157 HD
ENDBRANCH  38  43
ENDBRANCH   1  33
TORSDOF 11
ENDMDL
MODEL 2
REMARK VINA RESULT: -8.726598244      1.061      2.053
REMARK  11 active torsions:
REMARK  status: ('A' for Active; 'I' for Inactive)
REMARK    1  A    between atoms: N2_5  and  C3_6 
REMARK    2  A    between atoms: C4_7  and  O1_8 
REMARK    3  A    between atoms: C6_11  and  S1_12 
REMARK    4  A    between atoms: S1_12  and  N3_13 
REMARK    5  A    between atoms: S1_12  and  N4_17 
REMARK    6  A    between atoms: N4_17  and  C7_19 
REMARK    7  A    between atoms: C7_19  and  C8_20 
REMARK    8  A    between atoms: C10_22  and  O3_23 
REMARK    9  A    between atoms: C10_22  and  C11_25 
REMARK   10  A    between atoms: C16_34  and  N7_35 
REMARK   11  A    between atoms: C18_42  and  N9_43 
ROOT
HETATM    1  C3  UNL     1     -10.473  26.401  35.004  1.00  0.00     0.127 A 
HETATM    2  C4  UNL     1     -10.436  25.382  34.076  1.00  0.00     0.098 A 
HETATM    3  C5  UNL     1      -9.242  24.711  33.768  1.00  0.00     0.062 A 
HETATM    4  C6  UNL     1      -8.135  25.110  34.422  1.00  0.00     0.063 A 
HETATM    5  C15 UNL     1      -8.099  26.092  35.336  1.00  0.00     0.062 A 
HETATM    6  C16 UNL     1      -9.300  26.754  35.633  1.00  0.00     0.136 A 
ENDROOT
BRANCH   4   7
HETATM    7  S1  UNL     1      -6.436  24.175  34.057  1.00  0.00     0.133 S 
HETATM    8  O2  UNL     1      -5.223  23.988  35.278  1.00  0.00    -0.224 OA
BRANCH   7   9
HETATM    9  N3  UNL     1      -5.727  25.703  33.507  1.00  0.00    -0.341 N 
ATOM     10  H32 UNL     1      -5.595  26.624  33.927  1.00  0.00     0.167 HD
ATOM     11  H31 UNL     1      -5.513  25.273  32.608  1.00  0.00     0.167 HD
ENDBRANCH   7   9
BRANCH   7  12
HETATM   12  N4  UNL     1      -6.298  23.398  32.366  1.00  0.00    -0.330 N 
ATOM     13  H4  UNL     1      -5.732  23.761  31.599  1.00  0.00     0.170 HD
BRANCH  12  14
HETATM   14  C7  UNL     1      -7.095  22.232  32.309  1.00  0.00     0.166 C 
BRANCH  14  15
HETATM   15  C8  UNL     1      -6.840  21.346  33.529  1.00  0.00     0.245 C 
HETATM   16  C9  UNL     1      -5.485  20.737  33.496  1.00  0.00     0.093 C 
HETATM   17  C10 UNL     1      -5.421  19.283  33.832  1.00  0.00     0.200 C 
HETATM   18  C12 UNL     1      -6.621  18.524  33.406  1.00  0.00     0.198 C 
HETATM   19  O5  UNL     1      -6.733  17.317  33.476  1.00  0.00    -0.292 OA
HETATM   20  C13 UNL     1      -7.768  19.294  32.855  1.00  0.00     0.354 C 
HETATM   21  N6  UNL     1      -7.918  20.439  33.729  1.00  0.00     0.097 N 
HETATM   22  C14 UNL     1      -9.178  21.093  33.590  1.00  0.00     0.310 C 
BRANCH  17  23
HETATM   23  O3  UNL     1      -4.321  18.673  33.229  1.00  0.00    -0.373 OA
ATOM     24  H3  UNL     1      -3.966  17.983  33.777  1.00  0.00     0.211 HD
ENDBRANCH  17  23
BRANCH  17  25
HETATM   25  C11 UNL     1      -5.280  19.087  35.296  1.00  0.00     0.273 C 
HETATM   26  N5  UNL     1      -4.057  18.655  35.869  1.00  0.00    -0.059 NA
HETATM   27  O4  UNL     1      -6.258  19.304  36.058  1.00  0.00    -0.273 OA
ENDBRANCH  17  25
ENDBRANCH  14  15
ENDBRANCH  12  14
ENDBRANCH   7  12
ENDBRANCH   4   7
BRANCH   2  28
HETATM   28  O1  UNL     1     -11.605  25.016  33.436  1.00  0.00    -0.358 OA
ATOM     29  H1  UNL     1     -11.556  24.448  32.676  1.00  0.00     0.217 HD
ENDBRANCH   2  28
BRANCH   6  30
HETATM   30  N7  UNL     1      -9.328  27.798  36.583  1.00  0.00    -0.113 N 
HETATM   31  O6  UNL     1      -9.036  27.578  37.773  1.00  0.00    -0.532 OA
HETATM   32  O7  UNL     1      -9.671  29.071  36.227  1.00  0.00    -0.532 OA
ENDBRANCH   6  30
BRANCH   1  33
HETATM   33  N2  UNL     1     -11.732  27.016  35.243  1.00  0.00    -0.200 N 
HETATM   34  N1  UNL     1     -12.172  28.017  34.489  1.00  0.00    -0.290 N 
HETATM   35  C2  UNL     1     -13.344  28.603  34.709  1.00  0.00     0.066 A 
ATOM     36  H1  UNL     1     -11.592  28.346  33.718  1.00  0.00     0.187 HD
HETATM   37  C1  UNL     1     -13.856  29.736  33.865  1.00  0.00     0.074 C 
HETATM   38  C18 UNL     1     -14.111  28.140  35.758  1.00  0.00     0.127 A 
HETATM   39  N8  UNL     1     -13.671  27.131  36.518  1.00  0.00    -0.292 N 
HETATM   40  C17 UNL     1     -12.497  26.573  36.269  1.00  0.00     0.347 A 
ATOM     41  H8  UNL     1     -14.242  26.791  37.292  1.00  0.00     0.172 HD
HETATM   42  O8  UNL     1     -12.030  25.608  36.964  1.00  0.00    -0.245 OA
BRANCH  38  43
HETATM   43  N9  UNL     1     -15.279  28.655  36.046  1.00  0.00    -0.384 N 
ATOM     44  H92 UNL     1     -15.705  29.279  35.361  1.00  0.00     0.157 HD
ATOM     45  H91 UNL     1     -15.761  28.451  36.922  1.00  0.00     0.157 HD
ENDBRANCH  38  43
ENDBRANCH   1  33
TORSDOF 11
ENDMDL
MODEL 3
REMARK VINA RESULT: -8.714379222      1.686      2.857
REMARK  11 active torsions:
REMARK  status: ('A' for Active; 'I' for Inactive)
REMARK    1  A    between atoms: N2_5  and  C3_6 
REMARK    2  A    between atoms: C4_7  and  O1_8 
REMARK    3  A    between atoms: C6_11  and  S1_12 
REMARK    4  A    between atoms: S1_12  and  N3_13 
REMARK    5  A    between atoms: S1_12  and  N4_17 
REMARK    6  A    between atoms: N4_17  and  C7_19 
REMARK    7  A    between atoms: C7_19  and  C8_20 
REMARK    8  A    between atoms: C10_22  and  O3_23 
REMARK    9  A    between atoms: C10_22  and  C11_25 
REMARK   10  A    between atoms: C16_34  and  N7_35 
REMARK   11  A    between atoms: C18_42  and  N9_43 
ROOT
HETATM    1  C3  UNL     1     -10.046  26.878  35.845  1.00  0.00     0.127 A 
HETATM    2  C4  UNL     1      -8.813  26.930  36.460  1.00  0.00     0.098 A 
HETATM    3  C5  UNL     1      -7.727  26.173  35.992  1.00  0.00     0.062 A 
HETATM    4  C6  UNL     1      -7.947  25.395  34.916  1.00  0.00     0.063 A 
HETATM    5  C15 UNL     1      -9.120  25.297  34.271  1.00  0.00     0.062 A 
HETATM    6  C16 UNL     1     -10.197  26.058  34.749  1.00  0.00     0.136 A 
ENDROOT
BRANCH   4   7
HETATM    7  S1  UNL     1      -6.445  24.339  34.193  1.00  0.00     0.133 S 
HETATM    8  O2  UNL     1      -5.008  24.056  35.115  1.00  0.00    -0.224 OA
BRANCH   7   9
HETATM    9  N3  UNL     1      -5.766  25.814  33.482  1.00  0.00    -0.341 N 
ATOM     10  H32 UNL     1      -6.158  26.622  32.998  1.00  0.00     0.167 HD
ATOM     11  H31 UNL     1      -4.833  25.511  33.761  1.00  0.00     0.167 HD
ENDBRANCH   7   9
BRANCH   7  12
HETATM   12  N4  UNL     1      -6.744  23.563  32.522  1.00  0.00    -0.330 N 
ATOM     13  H4  UNL     1      -7.320  23.967  31.782  1.00  0.00     0.170 HD
BRANCH  12  14
HETATM   14  C7  UNL     1      -6.054  22.334  32.435  1.00  0.00     0.166 C 
BRANCH  14  15
HETATM   15  C8  UNL     1      -7.002  21.213  32.004  1.00  0.00     0.245 C 
HETATM   16  C9  UNL     1      -8.182  21.739  31.271  1.00  0.00     0.093 C 
HETATM   17  C10 UNL     1      -9.502  21.169  31.677  1.00  0.00     0.200 C 
HETATM   18  C12 UNL     1      -9.578  20.818  33.115  1.00  0.00     0.198 C 
HETATM   19  O5  UNL     1     -10.586  20.448  33.681  1.00  0.00    -0.292 OA
HETATM   20  C13 UNL     1      -8.332  20.925  33.921  1.00  0.00     0.354 C 
HETATM   21  N6  UNL     1      -7.291  20.347  33.097  1.00  0.00     0.097 N 
HETATM   22  C14 UNL     1      -6.109  20.023  33.828  1.00  0.00     0.310 C 
BRANCH  17  23
HETATM   23  O3  UNL     1     -10.539  22.067  31.425  1.00  0.00    -0.373 OA
ATOM     24  H3  UNL     1     -11.120  22.141  32.172  1.00  0.00     0.211 HD
ENDBRANCH  17  23
BRANCH  17  25
HETATM   25  C11 UNL     1      -9.799  19.933  30.912  1.00  0.00     0.273 C 
HETATM   26  N5  UNL     1     -11.118  19.627  30.486  1.00  0.00    -0.059 NA
HETATM   27  O4  UNL     1      -8.873  19.130  30.627  1.00  0.00    -0.273 OA
ENDBRANCH  17  25
ENDBRANCH  14  15
ENDBRANCH  12  14
ENDBRANCH   7  12
ENDBRANCH   4   7
BRANCH   2  28
HETATM   28  O1  UNL     1      -8.647  27.748  37.560  1.00  0.00    -0.358 OA
ATOM     29  H1  UNL     1      -8.180  28.570  37.458  1.00  0.00     0.217 HD
ENDBRANCH   2  28
BRANCH   6  30
HETATM   30  N7  UNL     1     -11.457  25.997  34.116  1.00  0.00    -0.113 N 
HETATM   31  O6  UNL     1     -12.133  24.952  34.152  1.00  0.00    -0.532 OA
HETATM   32  O7  UNL     1     -11.968  27.074  33.451  1.00  0.00    -0.532 OA
ENDBRANCH   6  30
BRANCH   1  33
HETATM   33  N2  UNL     1     -11.080  27.682  36.397  1.00  0.00    -0.200 N 
HETATM   34  N1  UNL     1     -11.234  28.954  36.049  1.00  0.00    -0.290 N 
HETATM   35  C2  UNL     1     -12.193  29.716  36.565  1.00  0.00     0.066 A 
ATOM     36  H1  UNL     1     -10.596  29.359  35.364  1.00  0.00     0.187 HD
HETATM   37  C1  UNL     1     -12.380  31.157  36.181  1.00  0.00     0.074 C 
HETATM   38  C18 UNL     1     -13.044  29.146  37.488  1.00  0.00     0.127 A 
HETATM   39  N8  UNL     1     -12.893  27.864  37.841  1.00  0.00    -0.292 N 
HETATM   40  C17 UNL     1     -11.925  27.137  37.306  1.00  0.00     0.347 A 
ATOM     41  H8  UNL     1     -13.525  27.447  38.524  1.00  0.00     0.172 HD
HETATM   42  O8  UNL     1     -11.736  25.911  37.607  1.00  0.00    -0.245 OA
BRANCH  38  43
HETATM   43  N9  UNL     1     -14.018  29.819  38.047  1.00  0.00    -0.384 N 
ATOM     44  H92 UNL     1     -13.881  30.820  38.191  1.00  0.00     0.157 HD
ATOM     45  H91 UNL     1     -14.890  29.375  38.335  1.00  0.00     0.157 HD
ENDBRANCH  38  43
ENDBRANCH   1  33
TORSDOF 11
ENDMDL
MODEL 4
REMARK VINA RESULT: -8.484617134      5.298     10.173
REMARK  11 active torsions:
REMARK  status: ('A' for Active; 'I' for Inactive)
REMARK    1  A    between atoms: N2_5  and  C3_6 
REMARK    2  A    between atoms: C4_7  and  O1_8 
REMARK    3  A    between atoms: C6_11  and  S1_12 
REMARK    4  A    between atoms: S1_12  and  N3_13 
REMARK    5  A    between atoms: S1_12  and  N4_17 
REMARK    6  A    between atoms: N4_17  and  C7_19 
REMARK    7  A    between atoms: C7_19  and  C8_20 
REMARK    8  A    between atoms: C10_22  and  O3_23 
REMARK    9  A    between atoms: C10_22  and  C11_25 
REMARK   10  A    between atoms: C16_34  and  N7_35 
REMARK   11  A    between atoms: C18_42  and  N9_43 
ROOT
HETATM    1  C3  UNL     1      -4.509  16.901  36.044  1.00  0.00     0.127 A 
HETATM    2  C4  UNL     1      -4.124  18.058  36.689  1.00  0.00     0.098 A 
HETATM    3  C5  UNL     1      -4.117  19.297  36.030  1.00  0.00     0.062 A 
HETATM    4  C6  UNL     1      -4.502  19.302  34.741  1.00  0.00     0.063 A 
HETATM    5  C15 UNL     1      -4.887  18.216  34.053  1.00  0.00     0.062 A 
HETATM    6  C16 UNL     1      -4.889  16.984  34.724  1.00  0.00     0.136 A 
ENDROOT
BRANCH   4   7
HETATM    7  S1  UNL     1      -4.546  21.024  33.777  1.00  0.00     0.133 S 
HETATM    8  O2  UNL     1      -3.262  22.176  33.918  1.00  0.00    -0.224 OA
BRANCH   7   9
HETATM    9  N3  UNL     1      -5.422  21.749  35.137  1.00  0.00    -0.341 N 
ATOM     10  H32 UNL     1      -5.493  21.544  36.134  1.00  0.00     0.167 HD
ATOM     11  H31 UNL     1      -5.816  22.444  34.504  1.00  0.00     0.167 HD
ENDBRANCH   7   9
BRANCH   7  12
HETATM   12  N4  UNL     1      -5.987  21.251  32.612  1.00  0.00    -0.330 N 
ATOM     13  H4  UNL     1      -5.979  21.020  31.619  1.00  0.00     0.170 HD
BRANCH  12  14
HETATM   14  C7  UNL     1      -7.089  21.791  33.313  1.00  0.00     0.166 C 
BRANCH  14  15
HETATM   15  C8  UNL     1      -8.208  20.755  33.436  1.00  0.00     0.245 C 
HETATM   16  C9  UNL     1      -7.812  19.443  32.863  1.00  0.00     0.093 C 
HETATM   17  C10 UNL     1      -8.830  18.783  31.992  1.00  0.00     0.200 C 
HETATM   18  C12 UNL     1      -9.664  19.741  31.227  1.00  0.00     0.198 C 
HETATM   19  O5  UNL     1     -10.472  19.426  30.378  1.00  0.00    -0.292 OA
HETATM   20  C13 UNL     1      -9.500  21.191  31.521  1.00  0.00     0.354 C 
HETATM   21  N6  UNL     1      -9.442  21.286  32.965  1.00  0.00     0.097 N 
HETATM   22  C14 UNL     1      -9.656  22.609  33.452  1.00  0.00     0.310 C 
BRANCH  17  23
HETATM   23  O3  UNL     1      -8.227  17.939  31.060  1.00  0.00    -0.373 OA
ATOM     24  H3  UNL     1      -8.112  18.375  30.224  1.00  0.00     0.211 HD
ENDBRANCH  17  23
BRANCH  17  25
HETATM   25  C11 UNL     1      -9.756  17.952  32.800  1.00  0.00     0.273 C 
HETATM   26  N5  UNL     1      -9.813  16.543  32.641  1.00  0.00    -0.059 NA
HETATM   27  O4  UNL     1     -10.511  18.493  33.650  1.00  0.00    -0.273 OA
ENDBRANCH  17  25
ENDBRANCH  14  15
ENDBRANCH  12  14
ENDBRANCH   7  12
ENDBRANCH   4   7
BRANCH   2  28
HETATM   28  O1  UNL     1      -3.739  17.990  38.014  1.00  0.00    -0.358 OA
ATOM     29  H1  UNL     1      -2.981  18.487  38.300  1.00  0.00     0.217 HD
ENDBRANCH   2  28
BRANCH   6  30
HETATM   30  N7  UNL     1      -5.282  15.804  34.055  1.00  0.00    -0.113 N 
HETATM   31  O6  UNL     1      -6.262  15.808  33.288  1.00  0.00    -0.532 OA
HETATM   32  O7  UNL     1      -4.603  14.632  34.229  1.00  0.00    -0.532 OA
ENDBRANCH   6  30
BRANCH   1  33
HETATM   33  N2  UNL     1      -4.481  15.697  36.800  1.00  0.00    -0.200 N 
HETATM   34  N1  UNL     1      -3.347  15.048  37.035  1.00  0.00    -0.290 N 
HETATM   35  C2  UNL     1      -3.311  13.919  37.734  1.00  0.00     0.066 A 
ATOM     36  H1  UNL     1      -2.475  15.428  36.666  1.00  0.00     0.187 HD
HETATM   37  C1  UNL     1      -2.036  13.173  38.008  1.00  0.00     0.074 C 
HETATM   38  C18 UNL     1      -4.503  13.424  38.223  1.00  0.00     0.127 A 
HETATM   39  N8  UNL     1      -5.647  14.076  37.990  1.00  0.00    -0.292 N 
HETATM   40  C17 UNL     1      -5.643  15.198  37.287  1.00  0.00     0.347 A 
ATOM     41  H8  UNL     1      -6.526  13.707  38.354  1.00  0.00     0.172 HD
HETATM   42  O8  UNL     1      -6.706  15.859  37.036  1.00  0.00    -0.245 OA
BRANCH  38  43
HETATM   43  N9  UNL     1      -4.563  12.321  38.924  1.00  0.00    -0.384 N 
ATOM     44  H92 UNL     1      -4.118  11.488  38.537  1.00  0.00     0.157 HD
ATOM     45  H91 UNL     1      -5.037  12.276  39.826  1.00  0.00     0.157 HD
ENDBRANCH  38  43
ENDBRANCH   1  33
TORSDOF 11
ENDMDL
MODEL 5
REMARK VINA RESULT: -8.450550888      1.361      1.597
REMARK  11 active torsions:
REMARK  status: ('A' for Active; 'I' for Inactive)
REMARK    1  A    between atoms: N2_5  and  C3_6 
REMARK    2  A    between atoms: C4_7  and  O1_8 
REMARK    3  A    between atoms: C6_11  and  S1_12 
REMARK    4  A    between atoms: S1_12  and  N3_13 
REMARK    5  A    between atoms: S1_12  and  N4_17 
REMARK    6  A    between atoms: N4_17  and  C7_19 
REMARK    7  A    between atoms: C7_19  and  C8_20 
REMARK    8  A    between atoms: C10_22  and  O3_23 
REMARK    9  A    between atoms: C10_22  and  C11_25 
REMARK   10  A    between atoms: C16_34  and  N7_35 
REMARK   11  A    between atoms: C18_42  and  N9_43 
ROOT
HETATM    1  C3  UNL     1     -10.095  27.087  35.911  1.00  0.00     0.127 A 
HETATM    2  C4  UNL     1      -8.828  26.975  36.443  1.00  0.00     0.098 A 
HETATM    3  C5  UNL     1      -7.871  26.111  35.886  1.00  0.00     0.062 A 
HETATM    4  C6  UNL     1      -8.250  25.397  34.810  1.00  0.00     0.063 A 
HETATM    5  C15 UNL     1      -9.464  25.457  34.242  1.00  0.00     0.062 A 
HETATM    6  C16 UNL     1     -10.411  26.324  34.809  1.00  0.00     0.136 A 
ENDROOT
BRANCH   4   7
HETATM    7  S1  UNL     1      -6.933  24.195  33.965  1.00  0.00     0.133 S 
HETATM    8  O2  UNL     1      -5.556  23.606  34.832  1.00  0.00    -0.224 OA
BRANCH   7   9
HETATM    9  N3  UNL     1      -6.034  25.608  33.385  1.00  0.00    -0.341 N 
ATOM     10  H32 UNL     1      -5.522  26.366  33.836  1.00  0.00     0.167 HD
ATOM     11  H31 UNL     1      -6.245  25.340  32.424  1.00  0.00     0.167 HD
ENDBRANCH   7   9
BRANCH   7  12
HETATM   12  N4  UNL     1      -7.354  23.639  32.233  1.00  0.00    -0.330 N 
ATOM     13  H4  UNL     1      -6.763  23.777  31.414  1.00  0.00     0.170 HD
BRANCH  12  14
HETATM   14  C7  UNL     1      -8.613  22.998  32.230  1.00  0.00     0.166 C 
BRANCH  14  15
HETATM   15  C8  UNL     1      -8.661  21.898  33.292  1.00  0.00     0.245 C 
HETATM   16  C9  UNL     1      -7.600  20.880  33.081  1.00  0.00     0.093 C 
HETATM   17  C10 UNL     1      -8.036  19.457  33.203  1.00  0.00     0.200 C 
HETATM   18  C12 UNL     1      -9.431  19.225  32.757  1.00  0.00     0.198 C 
HETATM   19  O5  UNL     1      -9.952  18.133  32.663  1.00  0.00    -0.292 OA
HETATM   20  C13 UNL     1     -10.251  20.415  32.400  1.00  0.00     0.354 C 
HETATM   21  N6  UNL     1      -9.983  21.391  33.436  1.00  0.00     0.097 N 
HETATM   22  C14 UNL     1     -10.941  22.446  33.477  1.00  0.00     0.310 C 
BRANCH  17  23
HETATM   23  O3  UNL     1      -7.225  18.613  32.445  1.00  0.00    -0.373 OA
ATOM     24  H3  UNL     1      -7.591  18.467  31.581  1.00  0.00     0.211 HD
ENDBRANCH  17  23
BRANCH  17  25
HETATM   25  C11 UNL     1      -7.950  18.998  34.611  1.00  0.00     0.273 C 
HETATM   26  N5  UNL     1      -6.727  18.538  35.163  1.00  0.00    -0.059 NA
HETATM   27  O4  UNL     1      -8.973  19.013  35.344  1.00  0.00    -0.273 OA
ENDBRANCH  17  25
ENDBRANCH  14  15
ENDBRANCH  12  14
ENDBRANCH   7  12
ENDBRANCH   4   7
BRANCH   2  28
HETATM   28  O1  UNL     1      -8.496  27.734  37.549  1.00  0.00    -0.358 OA
ATOM     29  H1  UNL     1      -7.943  27.352  38.220  1.00  0.00     0.217 HD
ENDBRANCH   2  28
BRANCH   6  30
HETATM   30  N7  UNL     1     -11.707  26.430  34.259  1.00  0.00    -0.113 N 
HETATM   31  O6  UNL     1     -12.538  25.517  34.417  1.00  0.00    -0.532 OA
HETATM   32  O7  UNL     1     -12.085  27.530  33.544  1.00  0.00    -0.532 OA
ENDBRANCH   6  30
BRANCH   1  33
HETATM   33  N2  UNL     1     -10.989  27.989  36.548  1.00  0.00    -0.200 N 
HETATM   34  N1  UNL     1     -11.063  29.265  36.190  1.00  0.00    -0.290 N 
HETATM   35  C2  UNL     1     -11.890  30.118  36.785  1.00  0.00     0.066 A 
ATOM     36  H1  UNL     1     -10.466  29.602  35.434  1.00  0.00     0.187 HD
HETATM   37  C1  UNL     1     -11.986  31.565  36.390  1.00  0.00     0.074 C 
HETATM   38  C18 UNL     1     -12.689  29.640  37.804  1.00  0.00     0.127 A 
HETATM   39  N8  UNL     1     -12.617  28.355  38.167  1.00  0.00    -0.292 N 
HETATM   40  C17 UNL     1     -11.779  27.535  37.551  1.00  0.00     0.347 A 
ATOM     41  H8  UNL     1     -13.209  28.005  38.920  1.00  0.00     0.172 HD
HETATM   42  O8  UNL     1     -11.671  26.301  37.858  1.00  0.00    -0.245 OA
BRANCH  38  43
HETATM   43  N9  UNL     1     -13.534  30.407  38.444  1.00  0.00    -0.384 N 
ATOM     44  H92 UNL     1     -14.141  29.969  39.137  1.00  0.00     0.157 HD
ATOM     45  H91 UNL     1     -13.598  31.410  38.268  1.00  0.00     0.157 HD
ENDBRANCH  38  43
ENDBRANCH   1  33
TORSDOF 11
ENDMDL
