MODEL 1
REMARK VINA RESULT: -7.595078263      0.000      0.000
REMARK  13 active torsions:
REMARK  status: ('A' for Active; 'I' for Inactive)
REMARK    1  A    between atoms: N1_1  and  C1_4 
REMARK    2  A    between atoms: C1_4  and  N2_5 
REMARK    3  A    between atoms: N2_5  and  N3_7 
REMARK    4  A    between atoms: C2_9  and  C3_10 
REMARK    5  A    between atoms: C2_9  and  C4_17 
REMARK       I    between atoms: C3_10  and  N4_12 
REMARK    6  A    between atoms: N4_12  and  N5_14 
REMARK    7  A    between atoms: C5_19  and  C6_20 
REMARK    8  A    between atoms: C6_20  and  O3_21 
REMARK    9  A    between atoms: C8_24  and  N6_25 
REMARK   10  A    between atoms: C8_24  and  N10_39 
REMARK   11  A    between atoms: N7_28  and  C11_29 
REMARK   12  A    between atoms: C11_29  and  C12_30 
REMARK   13  A    between atoms: C19_44  and  N12_45 
ROOT
HETATM    1  C4  UNL     1     -11.202  23.444  33.144  1.00  0.00     0.130 C 
HETATM    2  O2  UNL     1     -11.852  24.162  32.156  1.00  0.00    -0.341 OA
HETATM    3  C5  UNL     1     -10.923  24.987  31.564  1.00  0.00     0.156 C 
HETATM    4  C7  UNL     1      -9.639  24.258  31.680  1.00  0.00     0.096 C 
HETATM    5  C8  UNL     1      -9.758  23.497  33.058  1.00  0.00     0.169 C 
ENDROOT
BRANCH   5   6
HETATM    6  N6  UNL     1      -8.933  22.395  32.834  1.00  0.00    -0.358 N 
HETATM    7  C9  UNL     1      -8.606  21.425  33.769  1.00  0.00     0.080 C 
HETATM    8  C10 UNL     1      -7.431  20.572  33.316  1.00  0.00     0.161 C 
HETATM    9  N7  UNL     1      -7.787  19.948  32.072  1.00  0.00    -0.401 N 
HETATM   10  C15 UNL     1      -8.527  20.791  31.167  1.00  0.00     0.137 C 
HETATM   11  C16 UNL     1      -8.199  22.228  31.645  1.00  0.00     0.144 C 
BRANCH   9  12
HETATM   12  C11 UNL     1      -8.178  18.590  32.130  1.00  0.00     0.175 C 
BRANCH  12  13
HETATM   13  C12 UNL     1      -7.245  17.850  33.026  1.00  0.00     0.043 A 
HETATM   14  C13 UNL     1      -7.413  17.414  34.325  1.00  0.00     0.115 A 
HETATM   15  N8  UNL     1      -6.328  16.782  34.777  1.00  0.00    -0.360 N 
HETATM   16  C14 UNL     1      -5.445  16.806  33.764  1.00  0.00     0.180 A 
ATOM     17  H8  UNL     1      -6.196  16.367  35.699  1.00  0.00     0.166 HD
HETATM   18  N9  UNL     1      -5.989  17.448  32.702  1.00  0.00    -0.353 N 
ATOM     19  H9  UNL     1      -5.529  17.605  31.804  1.00  0.00     0.166 HD
ENDBRANCH  12  13
ENDBRANCH   9  12
ENDBRANCH   5   6
BRANCH   5  20
HETATM   20  N10 UNL     1      -9.251  24.507  33.979  1.00  0.00    -0.293 N 
HETATM   21  C17 UNL     1      -8.006  25.024  34.000  1.00  0.00     0.188 A 
HETATM   22  N11 UNL     1      -7.853  25.936  34.969  1.00  0.00    -0.346 N 
HETATM   23  C18 UNL     1      -9.002  26.040  35.613  1.00  0.00     0.122 A 
ATOM     24  H11 UNL     1      -7.001  26.457  35.174  1.00  0.00     0.167 HD
HETATM   25  C19 UNL     1      -9.449  26.794  36.675  1.00  0.00     0.131 A 
HETATM   26  C21 UNL     1      -9.877  25.140  34.987  1.00  0.00     0.142 A 
HETATM   27  N13 UNL     1     -10.721  26.702  37.150  1.00  0.00    -0.337 N 
HETATM   28  C20 UNL     1     -11.548  25.831  36.534  1.00  0.00     0.183 A 
ATOM     29  H13 UNL     1     -11.036  27.268  37.938  1.00  0.00     0.168 HD
HETATM   30  N14 UNL     1     -11.087  25.114  35.508  1.00  0.00    -0.336 N 
ATOM     31  H14 UNL     1     -11.750  24.470  35.075  1.00  0.00     0.168 HD
BRANCH  25  32
HETATM   32  N12 UNL     1      -8.616  27.614  37.229  1.00  0.00    -0.383 N 
ATOM     33 2H12 UNL     1      -7.631  27.586  36.968  1.00  0.00     0.157 HD
ATOM     34 1H12 UNL     1      -8.979  28.270  37.920  1.00  0.00     0.157 HD
ENDBRANCH  25  32
ENDBRANCH   5  20
BRANCH   1  35
HETATM   35  C2  UNL     1     -11.973  22.215  33.367  1.00  0.00     0.152 C 
HETATM   36  N3  UNL     1     -12.836  22.253  34.318  1.00  0.00    -0.285 N 
ATOM     37  H3  UNL     1     -12.921  23.104  34.874  1.00  0.00     0.188 HD
BRANCH  36  38
HETATM   38  N2  UNL     1     -13.646  21.186  34.607  1.00  0.00    -0.250 N 
ATOM     39  H2  UNL     1     -14.128  20.746  33.823  1.00  0.00     0.198 HD
BRANCH  38  40
HETATM   40  C1  UNL     1     -13.853  20.696  35.757  1.00  0.00     0.060 C 
BRANCH  40  41
HETATM   41  N1  UNL     1     -13.766  20.281  36.942  1.00  0.00    -0.351 N 
ATOM     42  H12 UNL     1     -13.661  21.227  37.309  1.00  0.00     0.167 HD
ATOM     43  H11 UNL     1     -13.723  19.724  37.796  1.00  0.00     0.167 HD
ENDBRANCH  40  41
ENDBRANCH  38  40
ENDBRANCH  36  38
BRANCH  35  44
HETATM   44  C3  UNL     1     -11.858  21.010  32.580  1.00  0.00     0.290 C 
HETATM   45  O1  UNL     1     -11.624  19.905  33.154  1.00  0.00    -0.264 OA
HETATM   46  N4  UNL     1     -12.001  21.045  31.156  1.00  0.00    -0.271 N 
ATOM     47  H4  UNL     1     -12.190  21.919  30.664  1.00  0.00     0.189 HD
BRANCH  46  48
HETATM   48  N5  UNL     1     -11.872  19.828  30.458  1.00  0.00    -0.342 N 
ATOM     49  H52 UNL     1     -12.693  19.372  30.062  1.00  0.00     0.176 HD
ATOM     50  H51 UNL     1     -10.936  19.432  30.371  1.00  0.00     0.176 HD
ENDBRANCH  46  48
ENDBRANCH  35  44
ENDBRANCH   1  35
BRANCH   3  51
HETATM   51  C6  UNL     1     -11.212  25.121  30.051  1.00  0.00     0.196 C 
BRANCH  51  52
HETATM   52  O3  UNL     1     -10.548  26.266  29.633  1.00  0.00    -0.398 OA
ATOM     53  H3  UNL     1     -10.787  26.391  28.722  1.00  0.00     0.209 HD
ENDBRANCH  51  52
ENDBRANCH   3  51
TORSDOF 13
ENDMDL
MODEL 2
REMARK VINA RESULT: -7.404828883      4.014      9.006
REMARK  13 active torsions:
REMARK  status: ('A' for Active; 'I' for Inactive)
REMARK    1  A    between atoms: N1_1  and  C1_4 
REMARK    2  A    between atoms: C1_4  and  N2_5 
REMARK    3  A    between atoms: N2_5  and  N3_7 
REMARK    4  A    between atoms: C2_9  and  C3_10 
REMARK    5  A    between atoms: C2_9  and  C4_17 
REMARK       I    between atoms: C3_10  and  N4_12 
REMARK    6  A    between atoms: N4_12  and  N5_14 
REMARK    7  A    between atoms: C5_19  and  C6_20 
REMARK    8  A    between atoms: C6_20  and  O3_21 
REMARK    9  A    between atoms: C8_24  and  N6_25 
REMARK   10  A    between atoms: C8_24  and  N10_39 
REMARK   11  A    between atoms: N7_28  and  C11_29 
REMARK   12  A    between atoms: C11_29  and  C12_30 
REMARK   13  A    between atoms: C19_44  and  N12_45 
ROOT
HETATM    1  C4  UNL     1      -8.585  16.761  33.284  1.00  0.00     0.130 C 
HETATM    2  O2  UNL     1      -9.733  16.417  33.976  1.00  0.00    -0.341 OA
HETATM    3  C5  UNL     1      -9.349  15.706  35.090  1.00  0.00     0.156 C 
HETATM    4  C7  UNL     1      -8.015  16.245  35.442  1.00  0.00     0.096 C 
HETATM    5  C8  UNL     1      -7.366  16.594  34.046  1.00  0.00     0.169 C 
ENDROOT
BRANCH   5   6
HETATM    6  N6  UNL     1      -6.500  17.629  34.399  1.00  0.00    -0.358 N 
HETATM    7  C9  UNL     1      -5.138  17.669  34.140  1.00  0.00     0.080 C 
HETATM    8  C10 UNL     1      -4.438  18.751  34.946  1.00  0.00     0.161 C 
HETATM    9  N7  UNL     1      -5.032  20.014  34.610  1.00  0.00    -0.401 N 
HETATM   10  C15 UNL     1      -6.464  19.977  34.441  1.00  0.00     0.137 C 
HETATM   11  C16 UNL     1      -6.897  18.706  35.213  1.00  0.00     0.144 C 
BRANCH   9  12
HETATM   12  C11 UNL     1      -4.313  20.838  33.714  1.00  0.00     0.175 C 
BRANCH  12  13
HETATM   13  C12 UNL     1      -4.677  22.263  33.960  1.00  0.00     0.043 A 
HETATM   14  C13 UNL     1      -5.164  23.220  33.095  1.00  0.00     0.115 A 
HETATM   15  N8  UNL     1      -5.365  24.386  33.713  1.00  0.00    -0.360 N 
HETATM   16  C14 UNL     1      -5.005  24.186  34.992  1.00  0.00     0.180 A 
ATOM     17  H8  UNL     1      -5.717  25.250  33.300  1.00  0.00     0.166 HD
HETATM   18  N9  UNL     1      -4.588  22.906  35.152  1.00  0.00    -0.353 N 
ATOM     19  H9  UNL     1      -4.261  22.493  36.026  1.00  0.00     0.166 HD
ENDBRANCH  12  13
ENDBRANCH   9  12
ENDBRANCH   5   6
BRANCH   5  20
HETATM   20  N10 UNL     1      -6.745  15.321  33.702  1.00  0.00    -0.293 N 
HETATM   21  C17 UNL     1      -5.627  14.798  34.246  1.00  0.00     0.188 A 
HETATM   22  N11 UNL     1      -5.314  13.609  33.713  1.00  0.00    -0.346 N 
HETATM   23  C18 UNL     1      -6.225  13.322  32.800  1.00  0.00     0.122 A 
ATOM     24  H11 UNL     1      -4.514  13.030  33.967  1.00  0.00     0.167 HD
HETATM   25  C19 UNL     1      -6.431  12.264  31.943  1.00  0.00     0.131 A 
HETATM   26  C21 UNL     1      -7.121  14.400  32.797  1.00  0.00     0.142 A 
HETATM   27  N13 UNL     1      -7.483  12.220  31.080  1.00  0.00    -0.337 N 
HETATM   28  C20 UNL     1      -8.335  13.267  31.093  1.00  0.00     0.183 A 
ATOM     29  H13 UNL     1      -7.621  11.429  30.451  1.00  0.00     0.168 HD
HETATM   30  N14 UNL     1      -8.109  14.277  31.934  1.00  0.00    -0.336 N 
ATOM     31  H14 UNL     1      -8.781  15.045  31.906  1.00  0.00     0.168 HD
BRANCH  25  32
HETATM   32  N12 UNL     1      -5.585  11.286  31.972  1.00  0.00    -0.383 N 
ATOM     33 2H12 UNL     1      -5.423  10.784  32.845  1.00  0.00     0.157 HD
ATOM     34 1H12 UNL     1      -5.102  11.046  31.106  1.00  0.00     0.157 HD
ENDBRANCH  25  32
ENDBRANCH   5  20
BRANCH   1  35
HETATM   35  C2  UNL     1      -8.902  17.945  32.477  1.00  0.00     0.152 C 
HETATM   36  N3  UNL     1      -8.092  18.208  31.516  1.00  0.00    -0.285 N 
ATOM     37  H3  UNL     1      -7.274  17.613  31.381  1.00  0.00     0.188 HD
BRANCH  36  38
HETATM   38  N2  UNL     1      -8.293  19.264  30.665  1.00  0.00    -0.250 N 
ATOM     39  H2  UNL     1      -8.858  19.087  29.834  1.00  0.00     0.198 HD
BRANCH  38  40
HETATM   40  C1  UNL     1      -7.843  20.439  30.813  1.00  0.00     0.060 C 
BRANCH  40  41
HETATM   41  N1  UNL     1      -7.140  21.483  30.849  1.00  0.00    -0.351 N 
ATOM     42  H12 UNL     1      -6.643  21.227  29.996  1.00  0.00     0.167 HD
ATOM     43  H11 UNL     1      -6.702  22.374  31.082  1.00  0.00     0.167 HD
ENDBRANCH  40  41
ENDBRANCH  38  40
ENDBRANCH  36  38
BRANCH  35  44
HETATM   44  C3  UNL     1     -10.060  18.788  32.662  1.00  0.00     0.290 C 
HETATM   45  O1  UNL     1     -10.906  18.907  31.727  1.00  0.00    -0.264 OA
HETATM   46  N4  UNL     1     -10.265  19.497  33.889  1.00  0.00    -0.271 N 
ATOM     47  H4  UNL     1      -9.601  19.423  34.661  1.00  0.00     0.189 HD
BRANCH  46  48
HETATM   48  N5  UNL     1     -11.416  20.302  33.991  1.00  0.00    -0.342 N 
ATOM     49  H52 UNL     1     -12.273  20.037  33.507  1.00  0.00     0.176 HD
ATOM     50  H51 UNL     1     -11.353  21.146  34.561  1.00  0.00     0.176 HD
ENDBRANCH  46  48
ENDBRANCH  35  44
ENDBRANCH   1  35
BRANCH   3  51
HETATM   51  C6  UNL     1     -10.279  16.034  36.281  1.00  0.00     0.196 C 
BRANCH  51  52
HETATM   52  O3  UNL     1     -10.477  17.407  36.248  1.00  0.00    -0.398 OA
ATOM     53  H3  UNL     1      -9.838  17.780  36.845  1.00  0.00     0.209 HD
ENDBRANCH  51  52
ENDBRANCH   3  51
TORSDOF 13
ENDMDL
MODEL 3
REMARK VINA RESULT: -7.365810330      0.998      1.975
REMARK  13 active torsions:
REMARK  status: ('A' for Active; 'I' for Inactive)
REMARK    1  A    between atoms: N1_1  and  C1_4 
REMARK    2  A    between atoms: C1_4  and  N2_5 
REMARK    3  A    between atoms: N2_5  and  N3_7 
REMARK    4  A    between atoms: C2_9  and  C3_10 
REMARK    5  A    between atoms: C2_9  and  C4_17 
REMARK       I    between atoms: C3_10  and  N4_12 
REMARK    6  A    between atoms: N4_12  and  N5_14 
REMARK    7  A    between atoms: C5_19  and  C6_20 
REMARK    8  A    between atoms: C6_20  and  O3_21 
REMARK    9  A    between atoms: C8_24  and  N6_25 
REMARK   10  A    between atoms: C8_24  and  N10_39 
REMARK   11  A    between atoms: N7_28  and  C11_29 
REMARK   12  A    between atoms: C11_29  and  C12_30 
REMARK   13  A    between atoms: C19_44  and  N12_45 
ROOT
HETATM    1  C4  UNL     1     -11.370  23.467  33.084  1.00  0.00     0.130 C 
HETATM    2  O2  UNL     1     -11.994  24.214  32.100  1.00  0.00    -0.341 OA
HETATM    3  C5  UNL     1     -11.032  24.991  31.497  1.00  0.00     0.156 C 
HETATM    4  C7  UNL     1      -9.784  24.201  31.602  1.00  0.00     0.096 C 
HETATM    5  C8  UNL     1      -9.926  23.449  32.983  1.00  0.00     0.169 C 
ENDROOT
BRANCH   5   6
HETATM    6  N6  UNL     1      -9.158  22.309  32.754  1.00  0.00    -0.358 N 
HETATM    7  C9  UNL     1      -8.805  21.365  33.707  1.00  0.00     0.080 C 
HETATM    8  C10 UNL     1      -7.695  20.449  33.216  1.00  0.00     0.161 C 
HETATM    9  N7  UNL     1      -8.154  19.789  32.026  1.00  0.00    -0.401 N 
HETATM   10  C15 UNL     1      -8.922  20.623  31.135  1.00  0.00     0.137 C 
HETATM   11  C16 UNL     1      -8.511  22.064  31.528  1.00  0.00     0.144 C 
BRANCH   9  12
HETATM   12  C11 UNL     1      -8.590  18.451  32.168  1.00  0.00     0.175 C 
BRANCH  12  13
HETATM   13  C12 UNL     1      -7.600  17.699  32.991  1.00  0.00     0.043 A 
HETATM   14  C13 UNL     1      -7.708  17.186  34.267  1.00  0.00     0.115 A 
HETATM   15  N8  UNL     1      -6.586  16.572  34.648  1.00  0.00    -0.360 N 
HETATM   16  C14 UNL     1      -5.739  16.687  33.611  1.00  0.00     0.180 A 
ATOM     17  H8  UNL     1      -6.408  16.113  35.541  1.00  0.00     0.166 HD
HETATM   18  N9  UNL     1      -6.342  17.366  32.605  1.00  0.00    -0.353 N 
ATOM     19  H9  UNL     1      -5.919  17.590  31.704  1.00  0.00     0.166 HD
ENDBRANCH  12  13
ENDBRANCH   9  12
ENDBRANCH   5   6
BRANCH   5  20
HETATM   20  N10 UNL     1      -9.361  24.436  33.896  1.00  0.00    -0.293 N 
HETATM   21  C17 UNL     1      -8.099  24.909  33.888  1.00  0.00     0.188 A 
HETATM   22  N11 UNL     1      -7.890  25.809  34.858  1.00  0.00    -0.346 N 
HETATM   23  C18 UNL     1      -9.018  25.950  35.530  1.00  0.00     0.122 A 
ATOM     24  H11 UNL     1      -7.015  26.299  35.044  1.00  0.00     0.167 HD
HETATM   25  C19 UNL     1      -9.411  26.713  36.607  1.00  0.00     0.131 A 
HETATM   26  C21 UNL     1      -9.939  25.085  34.922  1.00  0.00     0.142 A 
HETATM   27  N13 UNL     1     -10.673  26.664  37.113  1.00  0.00    -0.337 N 
HETATM   28  C20 UNL     1     -11.546  25.826  36.514  1.00  0.00     0.183 A 
ATOM     29  H13 UNL     1     -10.948  27.236  37.912  1.00  0.00     0.168 HD
HETATM   30  N14 UNL     1     -11.136  25.099  35.473  1.00  0.00    -0.336 N 
ATOM     31  H14 UNL     1     -11.832  24.481  35.054  1.00  0.00     0.168 HD
BRANCH  25  32
HETATM   32  N12 UNL     1      -8.536  27.500  37.144  1.00  0.00    -0.383 N 
ATOM     33 2H12 UNL     1      -7.642  27.122  37.458  1.00  0.00     0.157 HD
ATOM     34 1H12 UNL     1      -8.774  28.487  37.237  1.00  0.00     0.157 HD
ENDBRANCH  25  32
ENDBRANCH   5  20
BRANCH   1  35
HETATM   35  C2  UNL     1     -12.198  22.279  33.319  1.00  0.00     0.152 C 
HETATM   36  N3  UNL     1     -12.639  21.680  32.272  1.00  0.00    -0.285 N 
ATOM     37  H3  UNL     1     -12.422  22.066  31.353  1.00  0.00     0.188 HD
BRANCH  36  38
HETATM   38  N2  UNL     1     -13.394  20.538  32.351  1.00  0.00    -0.250 N 
ATOM     39  H2  UNL     1     -13.093  19.831  33.022  1.00  0.00     0.198 HD
BRANCH  38  40
HETATM   40  C1  UNL     1     -14.430  20.279  31.670  1.00  0.00     0.060 C 
BRANCH  40  41
HETATM   41  N1  UNL     1     -15.363  20.256  30.825  1.00  0.00    -0.351 N 
ATOM     42  H12 UNL     1     -14.828  19.662  30.191  1.00  0.00     0.167 HD
ATOM     43  H11 UNL     1     -16.232  20.380  30.305  1.00  0.00     0.167 HD
ENDBRANCH  40  41
ENDBRANCH  38  40
ENDBRANCH  36  38
BRANCH  35  44
HETATM   44  C3  UNL     1     -12.507  21.728  34.618  1.00  0.00     0.290 C 
HETATM   45  O1  UNL     1     -12.034  20.601  34.951  1.00  0.00    -0.264 OA
HETATM   46  N4  UNL     1     -13.346  22.436  35.537  1.00  0.00    -0.271 N 
ATOM     47  H4  UNL     1     -13.743  23.345  35.299  1.00  0.00     0.189 HD
BRANCH  46  48
HETATM   48  N5  UNL     1     -13.603  21.831  36.782  1.00  0.00    -0.342 N 
ATOM     49  H52 UNL     1     -13.538  20.819  36.886  1.00  0.00     0.176 HD
ATOM     50  H51 UNL     1     -13.853  22.441  37.561  1.00  0.00     0.176 HD
ENDBRANCH  46  48
ENDBRANCH  35  44
ENDBRANCH   1  35
BRANCH   3  51
HETATM   51  C6  UNL     1     -11.330  25.136  29.986  1.00  0.00     0.196 C 
BRANCH  51  52
HETATM   52  O3  UNL     1     -10.603  26.237  29.555  1.00  0.00    -0.398 OA
ATOM     53  H3  UNL     1     -11.003  26.513  28.738  1.00  0.00     0.209 HD
ENDBRANCH  51  52
ENDBRANCH   3  51
TORSDOF 13
ENDMDL
MODEL 4
REMARK VINA RESULT: -7.272806194      1.612      2.223
REMARK  13 active torsions:
REMARK  status: ('A' for Active; 'I' for Inactive)
REMARK    1  A    between atoms: N1_1  and  C1_4 
REMARK    2  A    between atoms: C1_4  and  N2_5 
REMARK    3  A    between atoms: N2_5  and  N3_7 
REMARK    4  A    between atoms: C2_9  and  C3_10 
REMARK    5  A    between atoms: C2_9  and  C4_17 
REMARK       I    between atoms: C3_10  and  N4_12 
REMARK    6  A    between atoms: N4_12  and  N5_14 
REMARK    7  A    between atoms: C5_19  and  C6_20 
REMARK    8  A    between atoms: C6_20  and  O3_21 
REMARK    9  A    between atoms: C8_24  and  N6_25 
REMARK   10  A    between atoms: C8_24  and  N10_39 
REMARK   11  A    between atoms: N7_28  and  C11_29 
REMARK   12  A    between atoms: C11_29  and  C12_30 
REMARK   13  A    between atoms: C19_44  and  N12_45 
ROOT
HETATM    1  C4  UNL     1     -12.468  22.337  33.348  1.00  0.00     0.130 C 
HETATM    2  O2  UNL     1     -13.304  22.949  32.432  1.00  0.00    -0.341 OA
HETATM    3  C5  UNL     1     -12.571  23.916  31.782  1.00  0.00     0.156 C 
HETATM    4  C7  UNL     1     -11.183  23.399  31.777  1.00  0.00     0.096 C 
HETATM    5  C8  UNL     1     -11.063  22.619  33.144  1.00  0.00     0.169 C 
ENDROOT
BRANCH   5   6
HETATM    6  N6  UNL     1     -10.097  21.664  32.830  1.00  0.00    -0.358 N 
HETATM    7  C9  UNL     1      -9.484  20.807  33.731  1.00  0.00     0.080 C 
HETATM    8  C10 UNL     1      -8.251  20.145  33.136  1.00  0.00     0.161 C 
HETATM    9  N7  UNL     1      -8.655  19.414  31.969  1.00  0.00    -0.401 N 
HETATM   10  C15 UNL     1      -9.646  20.078  31.158  1.00  0.00     0.137 C 
HETATM   11  C16 UNL     1      -9.511  21.569  31.554  1.00  0.00     0.144 C 
BRANCH   9  12
HETATM   12  C11 UNL     1      -8.793  18.013  32.110  1.00  0.00     0.175 C 
BRANCH  12  13
HETATM   13  C12 UNL     1      -7.688  17.497  32.967  1.00  0.00     0.043 A 
HETATM   14  C13 UNL     1      -7.712  17.023  34.262  1.00  0.00     0.115 A 
HETATM   15  N8  UNL     1      -6.497  16.650  34.673  1.00  0.00    -0.360 N 
HETATM   16  C14 UNL     1      -5.676  16.882  33.634  1.00  0.00     0.180 A 
ATOM     17  H8  UNL     1      -6.245  16.269  35.584  1.00  0.00     0.166 HD
HETATM   18  N9  UNL     1      -6.385  17.393  32.599  1.00  0.00    -0.353 N 
ATOM     19  H9  UNL     1      -6.002  17.658  31.691  1.00  0.00     0.166 HD
ENDBRANCH  12  13
ENDBRANCH   9  12
ENDBRANCH   5   6
BRANCH   5  20
HETATM   20  N10 UNL     1     -10.646  23.691  34.040  1.00  0.00    -0.293 N 
HETATM   21  C17 UNL     1     -11.406  24.306  34.968  1.00  0.00     0.188 A 
HETATM   22  N11 UNL     1     -10.728  25.252  35.631  1.00  0.00    -0.346 N 
HETATM   23  C18 UNL     1      -9.497  25.280  35.152  1.00  0.00     0.122 A 
ATOM     24  H11 UNL     1     -11.096  25.845  36.375  1.00  0.00     0.167 HD
HETATM   25  C19 UNL     1      -8.370  26.022  35.428  1.00  0.00     0.131 A 
HETATM   26  C21 UNL     1      -9.451  24.298  34.152  1.00  0.00     0.142 A 
HETATM   27  N13 UNL     1      -7.197  25.840  34.764  1.00  0.00    -0.337 N 
HETATM   28  C20 UNL     1      -7.171  24.889  33.806  1.00  0.00     0.183 A 
ATOM     29  H13 UNL     1      -6.371  26.398  34.981  1.00  0.00     0.168 HD
HETATM   30  N14 UNL     1      -8.279  24.186  33.560  1.00  0.00    -0.336 N 
ATOM     31  H14 UNL     1      -8.210  23.480  32.827  1.00  0.00     0.168 HD
BRANCH  25  32
HETATM   32  N12 UNL     1      -8.448  26.920  36.356  1.00  0.00    -0.383 N 
ATOM     33 2H12 UNL     1      -8.827  26.671  37.270  1.00  0.00     0.157 HD
ATOM     34 1H12 UNL     1      -8.122  27.862  36.139  1.00  0.00     0.157 HD
ENDBRANCH  25  32
ENDBRANCH   5  20
BRANCH   1  35
HETATM   35  C2  UNL     1     -13.015  21.000  33.610  1.00  0.00     0.152 C 
HETATM   36  N3  UNL     1     -13.149  20.676  34.844  1.00  0.00    -0.285 N 
ATOM     37  H3  UNL     1     -12.851  21.334  35.564  1.00  0.00     0.188 HD
BRANCH  36  38
HETATM   38  N2  UNL     1     -13.681  19.470  35.225  1.00  0.00    -0.250 N 
ATOM     39  H2  UNL     1     -14.554  19.189  34.779  1.00  0.00     0.198 HD
BRANCH  38  40
HETATM   40  C1  UNL     1     -13.191  18.675  36.080  1.00  0.00     0.060 C 
BRANCH  40  41
HETATM   41  N1  UNL     1     -12.901  17.688  36.806  1.00  0.00    -0.351 N 
ATOM     42  H12 UNL     1     -13.305  17.028  36.141  1.00  0.00     0.167 HD
ATOM     43  H11 UNL     1     -12.573  17.062  37.542  1.00  0.00     0.167 HD
ENDBRANCH  40  41
ENDBRANCH  38  40
ENDBRANCH  36  38
BRANCH  35  44
HETATM   44  C3  UNL     1     -13.440  20.066  32.594  1.00  0.00     0.290 C 
HETATM   45  O1  UNL     1     -12.781  19.000  32.405  1.00  0.00    -0.264 OA
HETATM   46  N4  UNL     1     -14.597  20.328  31.791  1.00  0.00    -0.271 N 
ATOM     47  H4  UNL     1     -15.148  21.177  31.918  1.00  0.00     0.189 HD
BRANCH  46  48
HETATM   48  N5  UNL     1     -14.945  19.370  30.819  1.00  0.00    -0.342 N 
ATOM     49  H52 UNL     1     -14.538  18.436  30.849  1.00  0.00     0.176 HD
ATOM     50  H51 UNL     1     -15.610  19.650  30.098  1.00  0.00     0.176 HD
ENDBRANCH  46  48
ENDBRANCH  35  44
ENDBRANCH   1  35
BRANCH   3  51
HETATM   51  C6  UNL     1     -13.005  24.012  30.301  1.00  0.00     0.196 C 
BRANCH  51  52
HETATM   52  O3  UNL     1     -13.573  22.785  29.986  1.00  0.00    -0.398 OA
ATOM     53  H3  UNL     1     -14.347  22.978  29.470  1.00  0.00     0.209 HD
ENDBRANCH  51  52
ENDBRANCH   3  51
TORSDOF 13
ENDMDL
MODEL 5
REMARK VINA RESULT: -7.187909560      1.821      2.812
REMARK  13 active torsions:
REMARK  status: ('A' for Active; 'I' for Inactive)
REMARK    1  A    between atoms: N1_1  and  C1_4 
REMARK    2  A    between atoms: C1_4  and  N2_5 
REMARK    3  A    between atoms: N2_5  and  N3_7 
REMARK    4  A    between atoms: C2_9  and  C3_10 
REMARK    5  A    between atoms: C2_9  and  C4_17 
REMARK       I    between atoms: C3_10  and  N4_12 
REMARK    6  A    between atoms: N4_12  and  N5_14 
REMARK    7  A    between atoms: C5_19  and  C6_20 
REMARK    8  A    between atoms: C6_20  and  O3_21 
REMARK    9  A    between atoms: C8_24  and  N6_25 
REMARK   10  A    between atoms: C8_24  and  N10_39 
REMARK   11  A    between atoms: N7_28  and  C11_29 
REMARK   12  A    between atoms: C11_29  and  C12_30 
REMARK   13  A    between atoms: C19_44  and  N12_45 
ROOT
HETATM    1  C4  UNL     1     -11.236  23.599  33.374  1.00  0.00     0.130 C 
HETATM    2  O2  UNL     1     -12.016  24.288  32.462  1.00  0.00    -0.341 OA
HETATM    3  C5  UNL     1     -11.234  25.280  31.914  1.00  0.00     0.156 C 
HETATM    4  C7  UNL     1      -9.857  24.737  31.941  1.00  0.00     0.096 C 
HETATM    5  C8  UNL     1      -9.818  23.865  33.257  1.00  0.00     0.169 C 
ENDROOT
BRANCH   5   6
HETATM    6  N6  UNL     1      -8.854  22.914  32.926  1.00  0.00    -0.358 N 
HETATM    7  C9  UNL     1      -7.955  23.003  31.875  1.00  0.00     0.080 C 
HETATM    8  C10 UNL     1      -7.287  21.668  31.583  1.00  0.00     0.161 C 
HETATM    9  N7  UNL     1      -6.603  21.242  32.771  1.00  0.00    -0.401 N 
HETATM   10  C15 UNL     1      -7.314  21.501  33.999  1.00  0.00     0.137 C 
HETATM   11  C16 UNL     1      -8.789  21.653  33.549  1.00  0.00     0.144 C 
BRANCH   9  12
HETATM   12  C11 UNL     1      -5.202  21.432  32.803  1.00  0.00     0.175 C 
BRANCH  12  13
HETATM   13  C12 UNL     1      -4.901  22.740  33.452  1.00  0.00     0.043 A 
HETATM   14  C13 UNL     1      -4.691  23.048  34.780  1.00  0.00     0.115 A 
HETATM   15  N8  UNL     1      -4.446  24.349  34.950  1.00  0.00    -0.360 N 
HETATM   16  C14 UNL     1      -4.495  24.892  33.722  1.00  0.00     0.180 A 
ATOM     17  H8  UNL     1      -4.260  24.831  35.830  1.00  0.00     0.166 HD
HETATM   18  N9  UNL     1      -4.769  23.929  32.809  1.00  0.00    -0.353 N 
ATOM     19  H9  UNL     1      -4.861  24.073  31.803  1.00  0.00     0.166 HD
ENDBRANCH  12  13
ENDBRANCH   9  12
ENDBRANCH   5   6
BRANCH   5  20
HETATM   20  N10 UNL     1      -9.426  24.867  34.241  1.00  0.00    -0.293 N 
HETATM   21  C17 UNL     1      -8.228  25.478  34.334  1.00  0.00     0.188 A 
HETATM   22  N11 UNL     1      -8.183  26.351  35.349  1.00  0.00    -0.346 N 
HETATM   23  C18 UNL     1      -9.359  26.334  35.951  1.00  0.00     0.122 A 
ATOM     24  H11 UNL     1      -7.383  26.927  35.611  1.00  0.00     0.167 HD
HETATM   25  C19 UNL     1      -9.902  26.999  37.029  1.00  0.00     0.131 A 
HETATM   26  C21 UNL     1     -10.136  25.399  35.252  1.00  0.00     0.142 A 
HETATM   27  N13 UNL     1     -11.178  26.785  37.449  1.00  0.00    -0.337 N 
HETATM   28  C20 UNL     1     -11.911  25.883  36.762  1.00  0.00     0.183 A 
ATOM     29  H13 UNL     1     -11.565  27.286  38.249  1.00  0.00     0.168 HD
HETATM   30  N14 UNL     1     -11.358  25.254  35.723  1.00  0.00    -0.336 N 
ATOM     31  H14 UNL     1     -11.951  24.582  35.237  1.00  0.00     0.168 HD
BRANCH  25  32
HETATM   32  N12 UNL     1      -9.157  27.854  37.651  1.00  0.00    -0.383 N 
ATOM     33 2H12 UNL     1      -8.270  28.144  37.240  1.00  0.00     0.157 HD
ATOM     34 1H12 UNL     1      -9.488  28.213  38.546  1.00  0.00     0.157 HD
ENDBRANCH  25  32
ENDBRANCH   5  20
BRANCH   1  35
HETATM   35  C2  UNL     1     -11.818  22.260  33.519  1.00  0.00     0.152 C 
HETATM   36  N3  UNL     1     -12.015  21.856  34.721  1.00  0.00    -0.285 N 
ATOM     37  H3  UNL     1     -11.740  22.458  35.497  1.00  0.00     0.188 HD
BRANCH  36  38
HETATM   38  N2  UNL     1     -12.586  20.639  34.995  1.00  0.00    -0.250 N 
ATOM     39  H2  UNL     1     -12.610  19.959  34.235  1.00  0.00     0.198 HD
BRANCH  38  40
HETATM   40  C1  UNL     1     -13.085  20.281  36.102  1.00  0.00     0.060 C 
BRANCH  40  41
HETATM   41  N1  UNL     1     -13.411  20.152  37.311  1.00  0.00    -0.351 N 
ATOM     42  H12 UNL     1     -13.136  19.170  37.324  1.00  0.00     0.167 HD
ATOM     43  H11 UNL     1     -13.736  20.286  38.269  1.00  0.00     0.167 HD
ENDBRANCH  40  41
ENDBRANCH  38  40
ENDBRANCH  36  38
BRANCH  35  44
HETATM   44  C3  UNL     1     -12.212  21.405  32.424  1.00  0.00     0.290 C 
HETATM   45  O1  UNL     1     -13.422  21.049  32.309  1.00  0.00    -0.264 OA
HETATM   46  N4  UNL     1     -11.252  20.948  31.464  1.00  0.00    -0.271 N 
ATOM     47  H4  UNL     1     -10.270  21.217  31.529  1.00  0.00     0.189 HD
BRANCH  46  48
HETATM   48  N5  UNL     1     -11.714  20.115  30.427  1.00  0.00    -0.342 N 
ATOM     49  H52 UNL     1     -11.988  19.153  30.624  1.00  0.00     0.176 HD
ATOM     50  H51 UNL     1     -11.759  20.511  29.488  1.00  0.00     0.176 HD
ENDBRANCH  46  48
ENDBRANCH  35  44
ENDBRANCH   1  35
BRANCH   3  51
HETATM   51  C6  UNL     1     -11.594  25.484  30.424  1.00  0.00     0.196 C 
BRANCH  51  52
HETATM   52  O3  UNL     1     -10.508  26.133  29.852  1.00  0.00    -0.398 OA
ATOM     53  H3  UNL     1     -10.854  26.633  29.122  1.00  0.00     0.209 HD
ENDBRANCH  51  52
ENDBRANCH   3  51
TORSDOF 13
ENDMDL
