MODEL 1
REMARK VINA RESULT: -8.382016258      0.000      0.000
REMARK  9 active torsions:
REMARK  status: ('A' for Active; 'I' for Inactive)
REMARK    1  A    between atoms: C2_5  and  C3_6 
REMARK    2  A    between atoms: C3_6  and  C4_7 
REMARK    3  A    between atoms: C4_7  and  S1_8 
REMARK    4  A    between atoms: S1_8  and  C5_9 
REMARK    5  A    between atoms: C5_9  and  C6_10 
REMARK    6  A    between atoms: C6_10  and  C7_11 
REMARK    7  A    between atoms: N7_24  and  N8_26 
REMARK       I    between atoms: N8_26  and  C10_28 
REMARK    8  A    between atoms: C10_28  and  C11_30 
REMARK    9  A    between atoms: C14_36  and  N9_37 
ROOT
HETATM    1  C1  UNL     1      -5.078  25.378  33.800  1.00  0.00     0.180 C 
HETATM    2  N1  UNL     1      -6.225  24.515  33.414  1.00  0.00    -0.273 N 
HETATM    3  N2  UNL     1      -6.091  23.577  32.571  1.00  0.00    -0.294 N 
ATOM      4  H2  UNL     1      -5.180  23.403  32.145  1.00  0.00     0.187 HD
HETATM    5  C2  UNL     1      -7.128  22.821  32.242  1.00  0.00     0.070 A 
HETATM    6  S2  UNL     1      -8.362  23.506  33.203  1.00  0.00    -0.036 SA
HETATM    7  C9  UNL     1      -7.432  24.724  33.960  1.00  0.00     0.181 A 
HETATM    8  N7  UNL     1      -7.758  25.639  34.839  1.00  0.00    -0.276 N 
ATOM      9  H7  UNL     1      -7.079  26.307  35.204  1.00  0.00     0.189 HD
ENDROOT
BRANCH   8  10
HETATM   10  N8  UNL     1      -9.107  25.638  35.249  1.00  0.00    -0.266 N 
HETATM   11  C10 UNL     1      -9.447  26.447  36.353  1.00  0.00     0.260 C 
HETATM   12  O1  UNL     1      -8.582  27.144  36.950  1.00  0.00    -0.269 OA
ATOM     13  H8  UNL     1      -9.809  25.076  34.767  1.00  0.00     0.190 HD
BRANCH  11  14
HETATM   14  C11 UNL     1     -10.864  26.470  36.820  1.00  0.00     0.211 C 
HETATM   15  C12 UNL     1     -11.135  27.611  37.772  1.00  0.00     0.178 C 
HETATM   16  S3  UNL     1     -12.174  28.679  36.811  1.00  0.00     0.172 S 
HETATM   17  O2  UNL     1     -13.596  28.497  37.229  1.00  0.00    -0.226 OA
HETATM   18  O3  UNL     1     -11.720  30.082  36.791  1.00  0.00    -0.226 OA
HETATM   19  C13 UNL     1     -11.881  27.866  35.223  1.00  0.00     0.276 C 
HETATM   20  C14 UNL     1     -13.095  27.909  34.371  1.00  0.00     0.335 C 
HETATM   21  N12 UNL     1     -11.726  26.524  35.695  1.00  0.00    -0.182 N 
HETATM   22  N10 UNL     1     -13.396  26.540  34.072  1.00  0.00    -0.194 N 
HETATM   23  C15 UNL     1     -12.521  25.720  34.823  1.00  0.00     0.673 C 
ATOM     24  H10 UNL     1     -14.117  26.213  33.428  1.00  0.00     0.180 HD
HETATM   25  N11 UNL     1     -12.476  24.424  34.709  1.00  0.00    -0.235 N 
ATOM     26 2H11 UNL     1     -13.044  23.850  34.086  1.00  0.00     0.174 HD
ATOM     27 1H11 UNL     1     -11.845  23.833  35.250  1.00  0.00     0.174 HD
BRANCH  20  28
HETATM   28  N9  UNL     1     -12.728  28.538  33.102  1.00  0.00    -0.055 N 
ATOM     29  H93 UNL     1     -13.146  29.460  32.982  1.00  0.00     0.276 HD
ATOM     30  H92 UNL     1     -11.750  28.826  33.071  1.00  0.00     0.276 HD
ATOM     31  H91 UNL     1     -12.974  27.892  32.352  1.00  0.00     0.276 HD
ENDBRANCH  20  28
ENDBRANCH  11  14
ENDBRANCH   8  10
BRANCH   5  32
HETATM   32  C3  UNL     1      -7.191  21.669  31.279  1.00  0.00     0.076 C 
BRANCH  32  33
HETATM   33  C4  UNL     1      -8.599  21.080  31.246  1.00  0.00     0.080 C 
BRANCH  33  34
HETATM   34  S1  UNL     1      -8.791  19.678  32.295  1.00  0.00    -0.168 SA
BRANCH  34  35
HETATM   35  C5  UNL     1      -8.607  19.851  34.027  1.00  0.00     0.081 C 
BRANCH  35  36
HETATM   36  C6  UNL     1      -7.409  19.242  34.638  1.00  0.00     0.088 C 
BRANCH  36  37
HETATM   37  C7  UNL     1      -6.113  19.850  34.369  1.00  0.00     0.113 A 
HETATM   38  N3  UNL     1      -5.170  19.497  33.460  1.00  0.00    -0.274 N 
HETATM   39  N4  UNL     1      -4.128  20.324  33.549  1.00  0.00    -0.131 N 
ATOM     40  H3  UNL     1      -5.247  18.717  32.807  1.00  0.00     0.189 HD
HETATM   41  C8  UNL     1      -4.387  21.214  34.511  1.00  0.00     0.691 A 
ATOM     42  H4  UNL     1      -3.280  20.284  32.982  1.00  0.00     0.205 HD
HETATM   43  N5  UNL     1      -3.562  22.178  34.859  1.00  0.00    -0.233 N 
HETATM   44  N6  UNL     1      -5.579  20.931  35.007  1.00  0.00    -0.178 N 
ATOM     45  H52 UNL     1      -2.642  22.396  34.476  1.00  0.00     0.174 HD
ATOM     46  H51 UNL     1      -3.760  22.858  35.593  1.00  0.00     0.174 HD
ATOM     47  H6  UNL     1      -6.035  21.448  35.759  1.00  0.00     0.185 HD
ENDBRANCH  36  37
ENDBRANCH  35  36
ENDBRANCH  34  35
ENDBRANCH  33  34
ENDBRANCH  32  33
ENDBRANCH   5  32
TORSDOF 9
ENDMDL
MODEL 2
REMARK VINA RESULT: -8.313354366      3.819      5.600
REMARK  9 active torsions:
REMARK  status: ('A' for Active; 'I' for Inactive)
REMARK    1  A    between atoms: C2_5  and  C3_6 
REMARK    2  A    between atoms: C3_6  and  C4_7 
REMARK    3  A    between atoms: C4_7  and  S1_8 
REMARK    4  A    between atoms: S1_8  and  C5_9 
REMARK    5  A    between atoms: C5_9  and  C6_10 
REMARK    6  A    between atoms: C6_10  and  C7_11 
REMARK    7  A    between atoms: N7_24  and  N8_26 
REMARK       I    between atoms: N8_26  and  C10_28 
REMARK    8  A    between atoms: C10_28  and  C11_30 
REMARK    9  A    between atoms: C14_36  and  N9_37 
ROOT
HETATM    1  C1  UNL     1      -3.113  23.875  34.292  1.00  0.00     0.180 C 
HETATM    2  N1  UNL     1      -3.834  22.575  34.286  1.00  0.00    -0.273 N 
HETATM    3  N2  UNL     1      -3.448  21.602  35.001  1.00  0.00    -0.294 N 
ATOM      4  H2  UNL     1      -2.627  21.704  35.598  1.00  0.00     0.187 HD
HETATM    5  C2  UNL     1      -4.106  20.452  34.977  1.00  0.00     0.070 A 
HETATM    6  S2  UNL     1      -5.349  20.800  33.858  1.00  0.00    -0.036 SA
HETATM    7  C9  UNL     1      -4.916  22.416  33.508  1.00  0.00     0.181 A 
HETATM    8  N7  UNL     1      -5.456  23.301  32.709  1.00  0.00    -0.276 N 
ATOM      9  H7  UNL     1      -5.076  24.242  32.605  1.00  0.00     0.189 HD
ENDROOT
BRANCH   8  10
HETATM   10  N8  UNL     1      -6.597  22.869  32.001  1.00  0.00    -0.266 N 
HETATM   11  C10 UNL     1      -7.830  23.464  32.339  1.00  0.00     0.260 C 
HETATM   12  O1  UNL     1      -7.911  24.347  33.235  1.00  0.00    -0.269 OA
ATOM     13  H8  UNL     1      -6.533  22.156  31.275  1.00  0.00     0.190 HD
BRANCH  11  14
HETATM   14  C11 UNL     1      -9.061  23.030  31.615  1.00  0.00     0.211 C 
HETATM   15  C12 UNL     1      -9.200  21.526  31.575  1.00  0.00     0.178 C 
HETATM   16  S3  UNL     1     -10.581  21.236  32.648  1.00  0.00     0.172 S 
HETATM   17  O2  UNL     1     -11.805  20.990  31.829  1.00  0.00    -0.226 OA
HETATM   18  O3  UNL     1     -10.321  20.213  33.679  1.00  0.00    -0.226 OA
HETATM   19  C13 UNL     1     -10.630  22.897  33.362  1.00  0.00     0.276 C 
HETATM   20  C14 UNL     1     -12.025  23.307  33.659  1.00  0.00     0.335 C 
HETATM   21  N12 UNL     1     -10.194  23.635  32.217  1.00  0.00    -0.182 N 
HETATM   22  N10 UNL     1     -12.229  24.520  32.923  1.00  0.00    -0.194 N 
HETATM   23  C15 UNL     1     -11.091  24.741  32.110  1.00  0.00     0.673 C 
ATOM     24  H10 UNL     1     -13.052  25.121  32.976  1.00  0.00     0.180 HD
HETATM   25  N11 UNL     1     -10.923  25.809  31.386  1.00  0.00    -0.235 N 
ATOM     26 2H11 UNL     1     -11.564  26.598  31.311  1.00  0.00     0.174 HD
ATOM     27 1H11 UNL     1     -10.103  25.967  30.801  1.00  0.00     0.174 HD
BRANCH  20  28
HETATM   28  N9  UNL     1     -12.093  23.667  35.076  1.00  0.00    -0.055 N 
ATOM     29  H93 UNL     1     -13.049  23.712  35.427  1.00  0.00     0.276 HD
ATOM     30  H92 UNL     1     -11.757  22.924  35.690  1.00  0.00     0.276 HD
ATOM     31  H91 UNL     1     -11.584  24.542  35.199  1.00  0.00     0.276 HD
ENDBRANCH  20  28
ENDBRANCH  11  14
ENDBRANCH   8  10
BRANCH   5  32
HETATM   32  C3  UNL     1      -3.827  19.186  35.737  1.00  0.00     0.076 C 
BRANCH  32  33
HETATM   33  C4  UNL     1      -5.134  18.525  36.168  1.00  0.00     0.080 C 
BRANCH  33  34
HETATM   34  S1  UNL     1      -4.972  16.797  36.469  1.00  0.00    -0.168 SA
BRANCH  34  35
HETATM   35  C5  UNL     1      -4.322  15.751  35.226  1.00  0.00     0.081 C 
BRANCH  35  36
HETATM   36  C6  UNL     1      -5.270  15.236  34.218  1.00  0.00     0.088 C 
BRANCH  36  37
HETATM   37  C7  UNL     1      -6.139  16.188  33.539  1.00  0.00     0.113 A 
HETATM   38  N3  UNL     1      -5.811  17.215  32.714  1.00  0.00    -0.274 N 
HETATM   39  N4  UNL     1      -6.919  17.838  32.310  1.00  0.00    -0.131 N 
ATOM     40  H3  UNL     1      -4.862  17.470  32.443  1.00  0.00     0.189 HD
HETATM   41  C8  UNL     1      -7.966  17.223  32.867  1.00  0.00     0.691 A 
ATOM     42  H4  UNL     1      -6.959  18.643  31.685  1.00  0.00     0.205 HD
HETATM   43  N5  UNL     1      -9.216  17.586  32.676  1.00  0.00    -0.233 N 
HETATM   44  N6  UNL     1      -7.501  16.232  33.607  1.00  0.00    -0.178 N 
ATOM     45  H52 UNL     1      -9.575  18.351  32.105  1.00  0.00     0.174 HD
ATOM     46  H51 UNL     1     -10.015  17.116  33.101  1.00  0.00     0.174 HD
ATOM     47  H6  UNL     1      -8.078  15.590  34.152  1.00  0.00     0.185 HD
ENDBRANCH  36  37
ENDBRANCH  35  36
ENDBRANCH  34  35
ENDBRANCH  33  34
ENDBRANCH  32  33
ENDBRANCH   5  32
TORSDOF 9
ENDMDL
MODEL 3
REMARK VINA RESULT: -8.238043492      4.215      7.799
REMARK  9 active torsions:
REMARK  status: ('A' for Active; 'I' for Inactive)
REMARK    1  A    between atoms: C2_5  and  C3_6 
REMARK    2  A    between atoms: C3_6  and  C4_7 
REMARK    3  A    between atoms: C4_7  and  S1_8 
REMARK    4  A    between atoms: S1_8  and  C5_9 
REMARK    5  A    between atoms: C5_9  and  C6_10 
REMARK    6  A    between atoms: C6_10  and  C7_11 
REMARK    7  A    between atoms: N7_24  and  N8_26 
REMARK       I    between atoms: N8_26  and  C10_28 
REMARK    8  A    between atoms: C10_28  and  C11_30 
REMARK    9  A    between atoms: C14_36  and  N9_37 
ROOT
HETATM    1  C1  UNL     1      -4.535  17.816  37.007  1.00  0.00     0.180 C 
HETATM    2  N1  UNL     1      -4.720  18.741  35.859  1.00  0.00    -0.273 N 
HETATM    3  N2  UNL     1      -3.970  19.750  35.694  1.00  0.00    -0.294 N 
ATOM      4  H2  UNL     1      -3.219  19.938  36.360  1.00  0.00     0.187 HD
HETATM    5  C2  UNL     1      -4.155  20.561  34.664  1.00  0.00     0.070 A 
HETATM    6  S2  UNL     1      -5.489  19.823  33.892  1.00  0.00    -0.036 SA
HETATM    7  C9  UNL     1      -5.701  18.515  34.972  1.00  0.00     0.181 A 
HETATM    8  N7  UNL     1      -6.567  17.533  34.979  1.00  0.00    -0.276 N 
ATOM      9  H7  UNL     1      -6.568  16.815  35.703  1.00  0.00     0.189 HD
ENDROOT
BRANCH   8  10
HETATM   10  N8  UNL     1      -7.499  17.533  33.920  1.00  0.00    -0.266 N 
HETATM   11  C10 UNL     1      -8.865  17.588  34.262  1.00  0.00     0.260 C 
HETATM   12  O1  UNL     1      -9.242  17.637  35.464  1.00  0.00    -0.269 OA
ATOM     13  H8  UNL     1      -7.196  17.494  32.947  1.00  0.00     0.190 HD
BRANCH  11  14
HETATM   14  C11 UNL     1      -9.882  17.585  33.170  1.00  0.00     0.211 C 
HETATM   15  C12 UNL     1     -11.290  17.448  33.699  1.00  0.00     0.178 C 
HETATM   16  S3  UNL     1     -11.982  19.049  33.377  1.00  0.00     0.172 S 
HETATM   17  O2  UNL     1     -12.842  18.983  32.158  1.00  0.00    -0.226 OA
HETATM   18  O3  UNL     1     -12.636  19.655  34.552  1.00  0.00    -0.226 OA
HETATM   19  C13 UNL     1     -10.416  19.868  32.995  1.00  0.00     0.276 C 
HETATM   20  C14 UNL     1     -10.601  20.907  31.951  1.00  0.00     0.335 C 
HETATM   21  N12 UNL     1      -9.737  18.762  32.393  1.00  0.00    -0.182 N 
HETATM   22  N10 UNL     1      -9.711  20.541  30.889  1.00  0.00    -0.194 N 
HETATM   23  C15 UNL     1      -9.147  19.280  31.200  1.00  0.00     0.673 C 
ATOM     24  H10 UNL     1      -9.517  21.093  30.054  1.00  0.00     0.180 HD
HETATM   25  N11 UNL     1      -8.226  18.708  30.480  1.00  0.00    -0.235 N 
ATOM     26 2H11 UNL     1      -7.805  19.078  29.628  1.00  0.00     0.174 HD
ATOM     27 1H11 UNL     1      -7.820  17.800  30.704  1.00  0.00     0.174 HD
BRANCH  20  28
HETATM   28  N9  UNL     1     -10.103  22.174  32.489  1.00  0.00    -0.055 N 
ATOM     29  H93 UNL     1     -10.546  22.987  32.061  1.00  0.00     0.276 HD
ATOM     30  H92 UNL     1     -10.406  22.343  33.448  1.00  0.00     0.276 HD
ATOM     31  H91 UNL     1      -9.088  22.177  32.388  1.00  0.00     0.276 HD
ENDBRANCH  20  28
ENDBRANCH  11  14
ENDBRANCH   8  10
BRANCH   5  32
HETATM   32  C3  UNL     1      -3.391  21.797  34.282  1.00  0.00     0.076 C 
BRANCH  32  33
HETATM   33  C4  UNL     1      -4.174  23.048  34.671  1.00  0.00     0.080 C 
BRANCH  33  34
HETATM   34  S1  UNL     1      -4.950  23.837  33.300  1.00  0.00    -0.168 SA
BRANCH  34  35
HETATM   35  C5  UNL     1      -6.124  25.105  33.571  1.00  0.00     0.081 C 
BRANCH  35  36
HETATM   36  C6  UNL     1      -7.538  24.696  33.685  1.00  0.00     0.088 C 
BRANCH  36  37
HETATM   37  C7  UNL     1      -8.361  25.334  34.704  1.00  0.00     0.113 A 
HETATM   38  N3  UNL     1      -9.637  25.058  35.075  1.00  0.00    -0.274 N 
HETATM   39  N4  UNL     1     -10.010  25.886  36.051  1.00  0.00    -0.131 N 
ATOM     40  H3  UNL     1     -10.222  24.328  34.669  1.00  0.00     0.189 HD
HETATM   41  C8  UNL     1      -8.984  26.700  36.318  1.00  0.00     0.691 A 
ATOM     42  H4  UNL     1     -10.920  25.897  36.513  1.00  0.00     0.205 HD
HETATM   43  N5  UNL     1      -9.016  27.642  37.236  1.00  0.00    -0.233 N 
HETATM   44  N6  UNL     1      -7.992  26.370  35.510  1.00  0.00    -0.178 N 
ATOM     45  H52 UNL     1      -9.781  27.896  37.860  1.00  0.00     0.174 HD
ATOM     46  H51 UNL     1      -8.232  28.263  37.440  1.00  0.00     0.174 HD
ATOM     47  H6  UNL     1      -7.080  26.827  35.491  1.00  0.00     0.185 HD
ENDBRANCH  36  37
ENDBRANCH  35  36
ENDBRANCH  34  35
ENDBRANCH  33  34
ENDBRANCH  32  33
ENDBRANCH   5  32
TORSDOF 9
ENDMDL
MODEL 4
REMARK VINA RESULT: -8.219581872      4.600      9.028
REMARK  9 active torsions:
REMARK  status: ('A' for Active; 'I' for Inactive)
REMARK    1  A    between atoms: C2_5  and  C3_6 
REMARK    2  A    between atoms: C3_6  and  C4_7 
REMARK    3  A    between atoms: C4_7  and  S1_8 
REMARK    4  A    between atoms: S1_8  and  C5_9 
REMARK    5  A    between atoms: C5_9  and  C6_10 
REMARK    6  A    between atoms: C6_10  and  C7_11 
REMARK    7  A    between atoms: N7_24  and  N8_26 
REMARK       I    between atoms: N8_26  and  C10_28 
REMARK    8  A    between atoms: C10_28  and  C11_30 
REMARK    9  A    between atoms: C14_36  and  N9_37 
ROOT
HETATM    1  C1  UNL     1      -2.919  22.414  34.572  1.00  0.00     0.180 C 
HETATM    2  N1  UNL     1      -4.348  22.411  34.162  1.00  0.00    -0.273 N 
HETATM    3  N2  UNL     1      -5.046  23.469  34.190  1.00  0.00    -0.294 N 
ATOM      4  H2  UNL     1      -4.626  24.346  34.499  1.00  0.00     0.187 HD
HETATM    5  C2  UNL     1      -6.317  23.441  33.821  1.00  0.00     0.070 A 
HETATM    6  S2  UNL     1      -6.513  21.794  33.411  1.00  0.00    -0.036 SA
HETATM    7  C9  UNL     1      -4.922  21.269  33.753  1.00  0.00     0.181 A 
HETATM    8  N7  UNL     1      -4.363  20.089  33.659  1.00  0.00    -0.276 N 
ATOM      9  H7  UNL     1      -3.386  19.930  33.903  1.00  0.00     0.189 HD
ENDROOT
BRANCH   8  10
HETATM   10  N8  UNL     1      -5.200  19.051  33.197  1.00  0.00    -0.266 N 
HETATM   11  C10 UNL     1      -5.252  17.872  33.968  1.00  0.00     0.260 C 
HETATM   12  O1  UNL     1      -4.580  17.748  35.028  1.00  0.00    -0.269 OA
ATOM     13  H8  UNL     1      -5.745  19.151  32.341  1.00  0.00     0.190 HD
BRANCH  11  14
HETATM   14  C11 UNL     1      -6.123  16.750  33.510  1.00  0.00     0.211 C 
HETATM   15  C12 UNL     1      -6.087  15.574  34.458  1.00  0.00     0.178 C 
HETATM   16  S3  UNL     1      -7.708  15.605  35.175  1.00  0.00     0.172 S 
HETATM   17  O2  UNL     1      -8.560  14.565  34.524  1.00  0.00    -0.226 OA
HETATM   18  O3  UNL     1      -7.702  15.552  36.649  1.00  0.00    -0.226 OA
HETATM   19  C13 UNL     1      -8.160  17.249  34.574  1.00  0.00     0.276 C 
HETATM   20  C14 UNL     1      -9.609  17.322  34.261  1.00  0.00     0.335 C 
HETATM   21  N12 UNL     1      -7.447  17.228  33.335  1.00  0.00    -0.182 N 
HETATM   22  N10 UNL     1      -9.680  17.711  32.884  1.00  0.00    -0.194 N 
HETATM   23  C15 UNL     1      -8.366  17.716  32.357  1.00  0.00     0.673 C 
ATOM     24  H10 UNL     1     -10.531  17.944  32.371  1.00  0.00     0.180 HD
HETATM   25  N11 UNL     1      -8.078  18.115  31.152  1.00  0.00    -0.235 N 
ATOM     26 2H11 UNL     1      -8.734  18.463  30.454  1.00  0.00     0.174 HD
ATOM     27 1H11 UNL     1      -7.131  18.118  30.773  1.00  0.00     0.174 HD
BRANCH  20  28
HETATM   28  N9  UNL     1     -10.178  18.427  35.033  1.00  0.00    -0.055 N 
ATOM     29  H93 UNL     1      -9.502  19.165  35.225  1.00  0.00     0.276 HD
ATOM     30  H92 UNL     1     -10.840  18.986  34.494  1.00  0.00     0.276 HD
ATOM     31  H91 UNL     1     -10.589  18.036  35.880  1.00  0.00     0.276 HD
ENDBRANCH  20  28
ENDBRANCH  11  14
ENDBRANCH   8  10
BRANCH   5  32
HETATM   32  C3  UNL     1      -7.315  24.564  33.776  1.00  0.00     0.076 C 
BRANCH  32  33
HETATM   33  C4  UNL     1      -8.526  24.167  32.935  1.00  0.00     0.080 C 
BRANCH  33  34
HETATM   34  S1  UNL     1     -10.026  24.114  33.857  1.00  0.00    -0.168 SA
BRANCH  34  35
HETATM   35  C5  UNL     1     -11.145  25.457  33.784  1.00  0.00     0.081 C 
BRANCH  35  36
HETATM   36  C6  UNL     1     -10.588  26.806  34.007  1.00  0.00     0.088 C 
BRANCH  36  37
HETATM   37  C7  UNL     1     -10.086  27.135  35.334  1.00  0.00     0.113 A 
HETATM   38  N3  UNL     1      -8.804  27.246  35.765  1.00  0.00    -0.274 N 
HETATM   39  N4  UNL     1      -8.792  27.564  37.060  1.00  0.00    -0.131 N 
ATOM     40  H3  UNL     1      -7.976  27.108  35.187  1.00  0.00     0.189 HD
HETATM   41  C8  UNL     1     -10.059  27.660  37.475  1.00  0.00     0.691 A 
ATOM     42  H4  UNL     1      -7.961  27.708  37.634  1.00  0.00     0.205 HD
HETATM   43  N5  UNL     1     -10.405  27.962  38.708  1.00  0.00    -0.233 N 
HETATM   44  N6  UNL     1     -10.839  27.402  36.440  1.00  0.00    -0.178 N 
ATOM     45  H52 UNL     1      -9.803  28.161  39.506  1.00  0.00     0.174 HD
ATOM     46  H51 UNL     1     -11.372  28.036  39.024  1.00  0.00     0.174 HD
ATOM     47  H6  UNL     1     -11.858  27.403  36.465  1.00  0.00     0.185 HD
ENDBRANCH  36  37
ENDBRANCH  35  36
ENDBRANCH  34  35
ENDBRANCH  33  34
ENDBRANCH  32  33
ENDBRANCH   5  32
TORSDOF 9
ENDMDL
MODEL 5
REMARK VINA RESULT: -8.181182075      0.958      1.178
REMARK  9 active torsions:
REMARK  status: ('A' for Active; 'I' for Inactive)
REMARK    1  A    between atoms: C2_5  and  C3_6 
REMARK    2  A    between atoms: C3_6  and  C4_7 
REMARK    3  A    between atoms: C4_7  and  S1_8 
REMARK    4  A    between atoms: S1_8  and  C5_9 
REMARK    5  A    between atoms: C5_9  and  C6_10 
REMARK    6  A    between atoms: C6_10  and  C7_11 
REMARK    7  A    between atoms: N7_24  and  N8_26 
REMARK       I    between atoms: N8_26  and  C10_28 
REMARK    8  A    between atoms: C10_28  and  C11_30 
REMARK    9  A    between atoms: C14_36  and  N9_37 
ROOT
HETATM    1  C1  UNL     1      -5.091  25.367  33.770  1.00  0.00     0.180 C 
HETATM    2  N1  UNL     1      -6.270  24.528  33.432  1.00  0.00    -0.273 N 
HETATM    3  N2  UNL     1      -6.184  23.569  32.607  1.00  0.00    -0.294 N 
ATOM      4  H2  UNL     1      -5.290  23.361  32.161  1.00  0.00     0.187 HD
HETATM    5  C2  UNL     1      -7.249  22.835  32.320  1.00  0.00     0.070 A 
HETATM    6  S2  UNL     1      -8.439  23.574  33.298  1.00  0.00    -0.036 SA
HETATM    7  C9  UNL     1      -7.456  24.782  34.004  1.00  0.00     0.181 A 
HETATM    8  N7  UNL     1      -7.733  25.723  34.872  1.00  0.00    -0.276 N 
ATOM      9  H7  UNL     1      -7.028  26.380  35.205  1.00  0.00     0.189 HD
ENDROOT
BRANCH   8  10
HETATM   10  N8  UNL     1      -9.071  25.769  35.317  1.00  0.00    -0.266 N 
HETATM   11  C10 UNL     1      -9.345  26.546  36.460  1.00  0.00     0.260 C 
HETATM   12  O1  UNL     1      -8.434  27.176  37.062  1.00  0.00    -0.269 OA
ATOM     13  H8  UNL     1      -9.810  25.260  34.831  1.00  0.00     0.190 HD
BRANCH  11  14
HETATM   14  C11 UNL     1     -10.748  26.616  36.964  1.00  0.00     0.211 C 
HETATM   15  C12 UNL     1     -10.978  27.815  37.853  1.00  0.00     0.178 C 
HETATM   16  S3  UNL     1     -12.032  28.837  36.860  1.00  0.00     0.172 S 
HETATM   17  O2  UNL     1     -13.444  28.700  37.327  1.00  0.00    -0.226 OA
HETATM   18  O3  UNL     1     -11.562  30.231  36.743  1.00  0.00    -0.226 OA
HETATM   19  C13 UNL     1     -11.794  27.927  35.316  1.00  0.00     0.276 C 
HETATM   20  C14 UNL     1     -13.031  27.935  34.497  1.00  0.00     0.335 C 
HETATM   21  N12 UNL     1     -11.642  26.614  35.863  1.00  0.00    -0.182 N 
HETATM   22  N10 UNL     1     -13.357  26.555  34.289  1.00  0.00    -0.194 N 
HETATM   23  C15 UNL     1     -12.470  25.769  35.064  1.00  0.00     0.673 C 
ATOM     24  H10 UNL     1     -14.100  26.200  33.687  1.00  0.00     0.180 HD
HETATM   25  N11 UNL     1     -12.444  24.469  35.026  1.00  0.00    -0.235 N 
ATOM     26 2H11 UNL     1     -13.036  23.866  34.456  1.00  0.00     0.174 HD
ATOM     27 1H11 UNL     1     -11.804  23.903  35.584  1.00  0.00     0.174 HD
BRANCH  20  28
HETATM   28  N9  UNL     1     -12.694  28.482  33.182  1.00  0.00    -0.055 N 
ATOM     29  H93 UNL     1     -13.352  29.196  32.870  1.00  0.00     0.276 HD
ATOM     30  H92 UNL     1     -11.858  29.066  33.199  1.00  0.00     0.276 HD
ATOM     31  H91 UNL     1     -12.618  27.702  32.530  1.00  0.00     0.276 HD
ENDBRANCH  20  28
ENDBRANCH  11  14
ENDBRANCH   8  10
BRANCH   5  32
HETATM   32  C3  UNL     1      -7.369  21.666  31.384  1.00  0.00     0.076 C 
BRANCH  32  33
HETATM   33  C4  UNL     1      -8.821  21.201  31.297  1.00  0.00     0.080 C 
BRANCH  33  34
HETATM   34  S1  UNL     1      -8.982  19.457  31.104  1.00  0.00    -0.168 SA
BRANCH  34  35
HETATM   35  C5  UNL     1      -9.213  18.441  32.510  1.00  0.00     0.081 C 
BRANCH  35  36
HETATM   36  C6  UNL     1      -8.155  17.456  32.807  1.00  0.00     0.088 C 
BRANCH  36  37
HETATM   37  C7  UNL     1      -6.811  17.949  33.080  1.00  0.00     0.113 A 
HETATM   38  N3  UNL     1      -5.614  17.451  32.676  1.00  0.00    -0.274 N 
HETATM   39  N4  UNL     1      -4.629  18.211  33.154  1.00  0.00    -0.131 N 
ATOM     40  H3  UNL     1      -5.489  16.623  32.096  1.00  0.00     0.189 HD
HETATM   41  C8  UNL     1      -5.176  19.201  33.866  1.00  0.00     0.691 A 
ATOM     42  H4  UNL     1      -3.630  18.063  33.003  1.00  0.00     0.205 HD
HETATM   43  N5  UNL     1      -4.480  20.135  34.478  1.00  0.00    -0.233 N 
HETATM   44  N6  UNL     1      -6.488  19.045  33.824  1.00  0.00    -0.178 N 
ATOM     45  H52 UNL     1      -3.468  20.255  34.510  1.00  0.00     0.174 HD
ATOM     46  H51 UNL     1      -4.899  20.891  35.021  1.00  0.00     0.174 HD
ATOM     47  H6  UNL     1      -7.162  19.658  34.283  1.00  0.00     0.185 HD
ENDBRANCH  36  37
ENDBRANCH  35  36
ENDBRANCH  34  35
ENDBRANCH  33  34
ENDBRANCH  32  33
ENDBRANCH   5  32
TORSDOF 9
ENDMDL
