MODEL 1
REMARK VINA RESULT: -7.518882264      0.000      0.000
REMARK  15 active torsions:
REMARK  status: ('A' for Active; 'I' for Inactive)
REMARK    1  A    between atoms: N1_1  and  C1_5 
REMARK    2  A    between atoms: C1_5  and  C2_6 
REMARK    3  A    between atoms: C2_6  and  C3_7 
REMARK    4  A    between atoms: C3_7  and  C4_8 
REMARK    5  A    between atoms: C4_8  and  C5_9 
REMARK    6  A    between atoms: C5_9  and  N2_10 
REMARK    7  A    between atoms: N2_10  and  C6_13 
REMARK    8  A    between atoms: C9_19  and  N4_20 
REMARK    9  A    between atoms: C10_24  and  O1_25 
REMARK   10  A    between atoms: O1_25  and  C11_26 
REMARK   11  A    between atoms: C14_29  and  N5_30 
REMARK       I    between atoms: N5_30  and  C15_32 
REMARK   12  A    between atoms: C15_32  and  C16_34 
REMARK   13  A    between atoms: C16_34  and  N6_35 
REMARK   14  A    between atoms: C17_39  and  C18_40 
REMARK   15  A    between atoms: C18_40  and  O3_41 
ROOT
HETATM    1  C6  UNL     1      21.655  -0.417  22.309  1.00  0.00     0.242 C 
HETATM    2  C7  UNL     1      23.020   0.096  21.913  1.00  0.00     0.268 C 
HETATM    3  N3  UNL     1      24.020  -0.682  22.584  1.00  0.00    -0.071 N 
ATOM      4  H31 UNL     1      24.506  -0.112  23.277  1.00  0.00     0.277 HD
ATOM      5  H32 UNL     1      24.793  -0.888  21.951  1.00  0.00     0.277 HD
HETATM    6  C8  UNL     1      23.535  -1.891  23.187  1.00  0.00     0.267 C 
HETATM    7  C9  UNL     1      22.459  -1.638  24.218  1.00  0.00     0.239 C 
HETATM    8  C10 UNL     1      21.633  -0.392  23.816  1.00  0.00     0.189 C 
ENDROOT
BRANCH   8   9
HETATM    9  O1  UNL     1      20.386  -0.527  24.360  1.00  0.00    -0.352 OA
BRANCH   9  10
HETATM   10  C11 UNL     1      19.977   0.553  25.152  1.00  0.00     0.261 C 
HETATM   11  C12 UNL     1      20.123   0.212  26.621  1.00  0.00     0.063 C 
HETATM   12  C13 UNL     1      19.110  -0.807  27.039  1.00  0.00     0.032 C 
HETATM   13  C14 UNL     1      17.747  -0.438  26.538  1.00  0.00     0.115 C 
HETATM   14  C17 UNL     1      17.698   0.757  25.646  1.00  0.00     0.170 C 
HETATM   15  O4  UNL     1      18.735   0.933  24.787  1.00  0.00    -0.352 OA
BRANCH  13  16
HETATM   16  N5  UNL     1      17.176  -1.619  25.928  1.00  0.00    -0.352 N 
HETATM   17  C15 UNL     1      15.957  -1.522  25.227  1.00  0.00     0.243 C 
HETATM   18  O2  UNL     1      15.393  -0.408  25.146  1.00  0.00    -0.272 OA
ATOM     19  H5  UNL     1      17.653  -2.517  26.005  1.00  0.00     0.163 HD
BRANCH  17  20
HETATM   20  C16 UNL     1      15.310  -2.688  24.574  1.00  0.00     0.332 C 
BRANCH  20  21
HETATM   21  N6  UNL     1      15.312  -3.836  25.443  1.00  0.00    -0.071 N 
ATOM     22  H63 UNL     1      15.645  -3.598  26.378  1.00  0.00     0.274 HD
ATOM     23  H62 UNL     1      14.365  -4.126  25.684  1.00  0.00     0.274 HD
ATOM     24  H61 UNL     1      15.849  -4.603  25.038  1.00  0.00     0.274 HD
ENDBRANCH  20  21
ENDBRANCH  17  20
ENDBRANCH  13  16
BRANCH  14  25
HETATM   25  C18 UNL     1      17.339   2.035  26.408  1.00  0.00     0.198 C 
BRANCH  25  26
HETATM   26  O3  UNL     1      17.790   3.151  25.678  1.00  0.00    -0.398 OA
ATOM     27  H3  UNL     1      17.042   3.603  25.305  1.00  0.00     0.209 HD
ENDBRANCH  25  26
ENDBRANCH  14  25
ENDBRANCH   9  10
ENDBRANCH   8   9
BRANCH   1  28
HETATM   28  N2  UNL     1      20.628   0.420  21.795  1.00  0.00    -0.067 N 
ATOM     29  H22 UNL     1      20.989   1.358  21.624  1.00  0.00     0.277 HD
ATOM     30  H21 UNL     1      19.942   0.624  22.523  1.00  0.00     0.277 HD
BRANCH  28  31
HETATM   31  C5  UNL     1      19.970  -0.085  20.618  1.00  0.00     0.233 C 
BRANCH  31  32
HETATM   32  C4  UNL     1      20.063   0.814  19.434  1.00  0.00     0.027 C 
BRANCH  32  33
HETATM   33  C3  UNL     1      21.380   0.708  18.734  1.00  0.00     0.003 C 
BRANCH  33  34
HETATM   34  C2  UNL     1      21.980   2.023  18.360  1.00  0.00     0.027 C 
BRANCH  34  35
HETATM   35  C1  UNL     1      21.443   2.571  17.060  1.00  0.00     0.229 C 
BRANCH  35  36
HETATM   36  N1  UNL     1      22.239   3.709  16.636  1.00  0.00    -0.079 N 
ATOM     37  H13 UNL     1      21.659   4.518  16.411  1.00  0.00     0.274 HD
ATOM     38  H12 UNL     1      22.769   4.114  17.407  1.00  0.00     0.274 HD
ATOM     39  H11 UNL     1      22.841   3.442  15.856  1.00  0.00     0.274 HD
ENDBRANCH  35  36
ENDBRANCH  34  35
ENDBRANCH  33  34
ENDBRANCH  32  33
ENDBRANCH  31  32
ENDBRANCH  28  31
ENDBRANCH   1  28
BRANCH   7  40
HETATM   40  N4  UNL     1      21.563  -2.777  24.198  1.00  0.00    -0.071 N 
ATOM     41  H43 UNL     1      20.794  -2.669  23.537  1.00  0.00     0.274 HD
ATOM     42  H42 UNL     1      21.983  -3.607  23.778  1.00  0.00     0.274 HD
ATOM     43  H41 UNL     1      21.246  -2.933  25.156  1.00  0.00     0.274 HD
ENDBRANCH   7  40
TORSDOF 15
ENDMDL
MODEL 2
REMARK VINA RESULT: -7.385206579      3.130      6.242
REMARK  15 active torsions:
REMARK  status: ('A' for Active; 'I' for Inactive)
REMARK    1  A    between atoms: N1_1  and  C1_5 
REMARK    2  A    between atoms: C1_5  and  C2_6 
REMARK    3  A    between atoms: C2_6  and  C3_7 
REMARK    4  A    between atoms: C3_7  and  C4_8 
REMARK    5  A    between atoms: C4_8  and  C5_9 
REMARK    6  A    between atoms: C5_9  and  N2_10 
REMARK    7  A    between atoms: N2_10  and  C6_13 
REMARK    8  A    between atoms: C9_19  and  N4_20 
REMARK    9  A    between atoms: C10_24  and  O1_25 
REMARK   10  A    between atoms: O1_25  and  C11_26 
REMARK   11  A    between atoms: C14_29  and  N5_30 
REMARK       I    between atoms: N5_30  and  C15_32 
REMARK   12  A    between atoms: C15_32  and  C16_34 
REMARK   13  A    between atoms: C16_34  and  N6_35 
REMARK   14  A    between atoms: C17_39  and  C18_40 
REMARK   15  A    between atoms: C18_40  and  O3_41 
ROOT
HETATM    1  C6  UNL     1      18.622  -1.301  24.453  1.00  0.00     0.242 C 
HETATM    2  C7  UNL     1      18.086  -0.744  23.154  1.00  0.00     0.268 C 
HETATM    3  N3  UNL     1      19.188  -0.301  22.350  1.00  0.00    -0.071 N 
ATOM      4  H31 UNL     1      19.178   0.715  22.265  1.00  0.00     0.277 HD
ATOM      5  H32 UNL     1      19.041  -0.562  21.375  1.00  0.00     0.277 HD
HETATM    6  C8  UNL     1      20.475  -0.751  22.797  1.00  0.00     0.267 C 
HETATM    7  C9  UNL     1      20.794  -0.300  24.205  1.00  0.00     0.239 C 
HETATM    8  C10 UNL     1      19.490  -0.214  25.034  1.00  0.00     0.189 C 
ENDROOT
BRANCH   8   9
HETATM    9  O1  UNL     1      19.819  -0.401  26.347  1.00  0.00    -0.352 OA
BRANCH   9  10
HETATM   10  C11 UNL     1      19.522   0.682  27.182  1.00  0.00     0.261 C 
HETATM   11  C12 UNL     1      20.181   0.499  28.535  1.00  0.00     0.063 C 
HETATM   12  C13 UNL     1      19.524  -0.602  29.306  1.00  0.00     0.032 C 
HETATM   13  C14 UNL     1      18.033  -0.464  29.266  1.00  0.00     0.115 C 
HETATM   14  C17 UNL     1      17.517   0.627  28.389  1.00  0.00     0.170 C 
HETATM   15  O4  UNL     1      18.185   0.860  27.230  1.00  0.00    -0.352 OA
BRANCH  13  16
HETATM   16  N5  UNL     1      17.487  -1.761  28.930  1.00  0.00    -0.352 N 
HETATM   17  C15 UNL     1      16.579  -2.385  29.809  1.00  0.00     0.243 C 
HETATM   18  O2  UNL     1      16.262  -1.799  30.868  1.00  0.00    -0.272 OA
ATOM     19  H5  UNL     1      17.757  -2.221  28.061  1.00  0.00     0.163 HD
BRANCH  17  20
HETATM   20  C16 UNL     1      15.977  -3.714  29.532  1.00  0.00     0.332 C 
BRANCH  20  21
HETATM   21  N6  UNL     1      14.856  -3.966  30.399  1.00  0.00    -0.071 N 
ATOM     22  H63 UNL     1      14.671  -4.965  30.493  1.00  0.00     0.274 HD
ATOM     23  H62 UNL     1      15.080  -3.757  31.372  1.00  0.00     0.274 HD
ATOM     24  H61 UNL     1      14.028  -3.459  30.087  1.00  0.00     0.274 HD
ENDBRANCH  20  21
ENDBRANCH  17  20
ENDBRANCH  13  16
BRANCH  14  25
HETATM   25  C18 UNL     1      17.227   1.911  29.171  1.00  0.00     0.198 C 
BRANCH  25  26
HETATM   26  O3  UNL     1      17.135   2.989  28.272  1.00  0.00    -0.398 OA
ATOM     27  H3  UNL     1      17.402   3.788  28.713  1.00  0.00     0.209 HD
ENDBRANCH  25  26
ENDBRANCH  14  25
ENDBRANCH   9  10
ENDBRANCH   8   9
BRANCH   1  28
HETATM   28  N2  UNL     1      17.564  -1.608  25.351  1.00  0.00    -0.067 N 
ATOM     29  H22 UNL     1      17.779  -1.256  26.284  1.00  0.00     0.277 HD
ATOM     30  H21 UNL     1      17.541  -2.610  25.540  1.00  0.00     0.277 HD
BRANCH  28  31
HETATM   31  C5  UNL     1      16.265  -1.150  24.931  1.00  0.00     0.233 C 
BRANCH  31  32
HETATM   32  C4  UNL     1      15.208  -2.199  24.963  1.00  0.00     0.027 C 
BRANCH  32  33
HETATM   33  C3  UNL     1      15.546  -3.327  25.885  1.00  0.00     0.003 C 
BRANCH  33  34
HETATM   34  C2  UNL     1      14.884  -4.619  25.537  1.00  0.00     0.027 C 
BRANCH  34  35
HETATM   35  C1  UNL     1      14.571  -5.468  26.745  1.00  0.00     0.229 C 
BRANCH  35  36
HETATM   36  N1  UNL     1      15.521  -6.562  26.841  1.00  0.00    -0.079 N 
ATOM     37  H13 UNL     1      16.207  -6.541  26.085  1.00  0.00     0.274 HD
ATOM     38  H12 UNL     1      16.162  -6.445  27.626  1.00  0.00     0.274 HD
ATOM     39  H11 UNL     1      15.025  -7.453  26.882  1.00  0.00     0.274 HD
ENDBRANCH  35  36
ENDBRANCH  34  35
ENDBRANCH  33  34
ENDBRANCH  32  33
ENDBRANCH  31  32
ENDBRANCH  28  31
ENDBRANCH   1  28
BRANCH   7  40
HETATM   40  N4  UNL     1      21.625  -1.322  24.810  1.00  0.00    -0.071 N 
ATOM     41  H43 UNL     1      21.404  -1.487  25.791  1.00  0.00     0.274 HD
ATOM     42  H42 UNL     1      21.415  -2.261  24.468  1.00  0.00     0.274 HD
ATOM     43  H41 UNL     1      22.597  -1.053  24.659  1.00  0.00     0.274 HD
ENDBRANCH   7  40
TORSDOF 15
ENDMDL
MODEL 3
REMARK VINA RESULT: -7.147802216      1.494      2.391
REMARK  15 active torsions:
REMARK  status: ('A' for Active; 'I' for Inactive)
REMARK    1  A    between atoms: N1_1  and  C1_5 
REMARK    2  A    between atoms: C1_5  and  C2_6 
REMARK    3  A    between atoms: C2_6  and  C3_7 
REMARK    4  A    between atoms: C3_7  and  C4_8 
REMARK    5  A    between atoms: C4_8  and  C5_9 
REMARK    6  A    between atoms: C5_9  and  N2_10 
REMARK    7  A    between atoms: N2_10  and  C6_13 
REMARK    8  A    between atoms: C9_19  and  N4_20 
REMARK    9  A    between atoms: C10_24  and  O1_25 
REMARK   10  A    between atoms: O1_25  and  C11_26 
REMARK   11  A    between atoms: C14_29  and  N5_30 
REMARK       I    between atoms: N5_30  and  C15_32 
REMARK   12  A    between atoms: C15_32  and  C16_34 
REMARK   13  A    between atoms: C16_34  and  N6_35 
REMARK   14  A    between atoms: C17_39  and  C18_40 
REMARK   15  A    between atoms: C18_40  and  O3_41 
ROOT
HETATM    1  C6  UNL     1      21.740  -0.371  22.275  1.00  0.00     0.242 C 
HETATM    2  C7  UNL     1      23.145   0.062  21.926  1.00  0.00     0.268 C 
HETATM    3  N3  UNL     1      24.074  -0.720  22.688  1.00  0.00    -0.071 N 
ATOM      4  H31 UNL     1      24.550  -0.134  23.374  1.00  0.00     0.277 HD
ATOM      5  H32 UNL     1      24.868  -0.992  22.107  1.00  0.00     0.277 HD
HETATM    6  C8  UNL     1      23.506  -1.874  23.325  1.00  0.00     0.267 C 
HETATM    7  C9  UNL     1      22.391  -1.520  24.284  1.00  0.00     0.239 C 
HETATM    8  C10 UNL     1      21.643  -0.264  23.775  1.00  0.00     0.189 C 
ENDROOT
BRANCH   8   9
HETATM    9  O1  UNL     1      20.366  -0.317  24.260  1.00  0.00    -0.352 OA
BRANCH   9  10
HETATM   10  C11 UNL     1      20.073   0.644  25.234  1.00  0.00     0.261 C 
HETATM   11  C12 UNL     1      20.367   0.097  26.617  1.00  0.00     0.063 C 
HETATM   12  C13 UNL     1      19.379  -0.959  26.998  1.00  0.00     0.032 C 
HETATM   13  C14 UNL     1      17.980  -0.509  26.706  1.00  0.00     0.115 C 
HETATM   14  C17 UNL     1      17.866   0.801  26.000  1.00  0.00     0.170 C 
HETATM   15  O4  UNL     1      18.809   1.086  25.065  1.00  0.00    -0.352 OA
BRANCH  13  16
HETATM   16  N5  UNL     1      17.316  -1.585  26.004  1.00  0.00    -0.352 N 
HETATM   17  C15 UNL     1      16.141  -1.321  25.272  1.00  0.00     0.243 C 
HETATM   18  O2  UNL     1      15.696  -0.152  25.245  1.00  0.00    -0.272 OA
ATOM     19  H5  UNL     1      17.696  -2.531  26.039  1.00  0.00     0.163 HD
BRANCH  17  20
HETATM   20  C16 UNL     1      15.404  -2.373  24.527  1.00  0.00     0.332 C 
BRANCH  20  21
HETATM   21  N6  UNL     1      15.372  -3.607  25.267  1.00  0.00    -0.071 N 
ATOM     22  H63 UNL     1      14.809  -4.314  24.794  1.00  0.00     0.274 HD
ATOM     23  H62 UNL     1      16.274  -4.083  25.243  1.00  0.00     0.274 HD
ATOM     24  H61 UNL     1      15.054  -3.452  26.224  1.00  0.00     0.274 HD
ENDBRANCH  20  21
ENDBRANCH  17  20
ENDBRANCH  13  16
BRANCH  14  25
HETATM   25  C18 UNL     1      17.625   1.962  26.968  1.00  0.00     0.198 C 
BRANCH  25  26
HETATM   26  O3  UNL     1      17.845   3.178  26.294  1.00  0.00    -0.398 OA
ATOM     27  H3  UNL     1      17.759   3.897  26.910  1.00  0.00     0.209 HD
ENDBRANCH  25  26
ENDBRANCH  14  25
ENDBRANCH   9  10
ENDBRANCH   8   9
BRANCH   1  28
HETATM   28  N2  UNL     1      20.778   0.479  21.666  1.00  0.00    -0.067 N 
ATOM     29  H22 UNL     1      20.698   1.353  22.187  1.00  0.00     0.277 HD
ATOM     30  H21 UNL     1      19.839   0.106  21.802  1.00  0.00     0.277 HD
BRANCH  28  31
HETATM   31  C5  UNL     1      21.009   0.749  20.271  1.00  0.00     0.233 C 
BRANCH  31  32
HETATM   32  C4  UNL     1      19.783   0.697  19.427  1.00  0.00     0.027 C 
BRANCH  32  33
HETATM   33  C3  UNL     1      18.901  -0.462  19.766  1.00  0.00     0.003 C 
BRANCH  33  34
HETATM   34  C2  UNL     1      17.515  -0.078  20.165  1.00  0.00     0.027 C 
BRANCH  34  35
HETATM   35  C1  UNL     1      17.075  -0.713  21.462  1.00  0.00     0.229 C 
BRANCH  35  36
HETATM   36  N1  UNL     1      17.561   0.067  22.587  1.00  0.00    -0.079 N 
ATOM     37  H13 UNL     1      16.818   0.285  23.251  1.00  0.00     0.274 HD
ATOM     38  H12 UNL     1      18.157  -0.484  23.205  1.00  0.00     0.274 HD
ATOM     39  H11 UNL     1      18.032   0.907  22.250  1.00  0.00     0.274 HD
ENDBRANCH  35  36
ENDBRANCH  34  35
ENDBRANCH  33  34
ENDBRANCH  32  33
ENDBRANCH  31  32
ENDBRANCH  28  31
ENDBRANCH   1  28
BRANCH   7  40
HETATM   40  N4  UNL     1      21.447  -2.620  24.276  1.00  0.00    -0.071 N 
ATOM     41  H43 UNL     1      21.895  -3.530  24.384  1.00  0.00     0.274 HD
ATOM     42  H42 UNL     1      20.869  -2.656  25.116  1.00  0.00     0.274 HD
ATOM     43  H41 UNL     1      20.899  -2.545  23.419  1.00  0.00     0.274 HD
ENDBRANCH   7  40
TORSDOF 15
ENDMDL
MODEL 4
REMARK VINA RESULT: -7.047025828      1.686      2.006
REMARK  15 active torsions:
REMARK  status: ('A' for Active; 'I' for Inactive)
REMARK    1  A    between atoms: N1_1  and  C1_5 
REMARK    2  A    between atoms: C1_5  and  C2_6 
REMARK    3  A    between atoms: C2_6  and  C3_7 
REMARK    4  A    between atoms: C3_7  and  C4_8 
REMARK    5  A    between atoms: C4_8  and  C5_9 
REMARK    6  A    between atoms: C5_9  and  N2_10 
REMARK    7  A    between atoms: N2_10  and  C6_13 
REMARK    8  A    between atoms: C9_19  and  N4_20 
REMARK    9  A    between atoms: C10_24  and  O1_25 
REMARK   10  A    between atoms: O1_25  and  C11_26 
REMARK   11  A    between atoms: C14_29  and  N5_30 
REMARK       I    between atoms: N5_30  and  C15_32 
REMARK   12  A    between atoms: C15_32  and  C16_34 
REMARK   13  A    between atoms: C16_34  and  N6_35 
REMARK   14  A    between atoms: C17_39  and  C18_40 
REMARK   15  A    between atoms: C18_40  and  O3_41 
ROOT
HETATM    1  C6  UNL     1      22.074  -0.062  22.740  1.00  0.00     0.242 C 
HETATM    2  C7  UNL     1      23.504  -0.549  22.787  1.00  0.00     0.268 C 
HETATM    3  N3  UNL     1      23.520  -1.893  23.286  1.00  0.00    -0.071 N 
ATOM      4  H31 UNL     1      23.956  -1.923  24.208  1.00  0.00     0.277 HD
ATOM      5  H32 UNL     1      24.184  -2.458  22.757  1.00  0.00     0.277 HD
HETATM    6  C8  UNL     1      22.237  -2.535  23.321  1.00  0.00     0.267 C 
HETATM    7  C9  UNL     1      21.238  -1.794  24.182  1.00  0.00     0.239 C 
HETATM    8  C10 UNL     1      21.526  -0.275  24.128  1.00  0.00     0.189 C 
ENDROOT
BRANCH   8   9
HETATM    9  O1  UNL     1      20.352   0.380  24.374  1.00  0.00    -0.352 OA
BRANCH   9  10
HETATM   10  C11 UNL     1      20.290   1.017  25.619  1.00  0.00     0.261 C 
HETATM   11  C12 UNL     1      20.645   0.043  26.725  1.00  0.00     0.063 C 
HETATM   12  C13 UNL     1      19.566  -0.977  26.908  1.00  0.00     0.032 C 
HETATM   13  C14 UNL     1      18.218  -0.324  26.956  1.00  0.00     0.115 C 
HETATM   14  C17 UNL     1      18.212   1.144  26.690  1.00  0.00     0.170 C 
HETATM   15  O4  UNL     1      19.087   1.610  25.761  1.00  0.00    -0.352 OA
BRANCH  13  16
HETATM   16  N5  UNL     1      17.349  -1.061  26.065  1.00  0.00    -0.352 N 
HETATM   17  C15 UNL     1      16.609  -2.154  26.559  1.00  0.00     0.243 C 
HETATM   18  O2  UNL     1      16.722  -2.466  27.765  1.00  0.00    -0.272 OA
ATOM     19  H5  UNL     1      17.271  -0.790  25.085  1.00  0.00     0.163 HD
BRANCH  17  20
HETATM   20  C16 UNL     1      15.697  -2.958  25.706  1.00  0.00     0.332 C 
BRANCH  20  21
HETATM   21  N6  UNL     1      15.584  -2.390  24.388  1.00  0.00    -0.071 N 
ATOM     22  H63 UNL     1      16.353  -1.750  24.188  1.00  0.00     0.274 HD
ATOM     23  H62 UNL     1      15.767  -3.084  23.664  1.00  0.00     0.274 HD
ATOM     24  H61 UNL     1      14.677  -1.941  24.258  1.00  0.00     0.274 HD
ENDBRANCH  20  21
ENDBRANCH  17  20
ENDBRANCH  13  16
BRANCH  14  25
HETATM   25  C18 UNL     1      18.228   1.968  27.980  1.00  0.00     0.198 C 
BRANCH  25  26
HETATM   26  O3  UNL     1      17.046   2.727  28.058  1.00  0.00    -0.398 OA
ATOM     27  H3  UNL     1      17.226   3.538  28.520  1.00  0.00     0.209 HD
ENDBRANCH  25  26
ENDBRANCH  14  25
ENDBRANCH   9  10
ENDBRANCH   8   9
BRANCH   1  28
HETATM   28  N2  UNL     1      22.016   1.317  22.402  1.00  0.00    -0.067 N 
ATOM     29  H22 UNL     1      21.616   1.853  23.173  1.00  0.00     0.277 HD
ATOM     30  H21 UNL     1      21.305   1.476  21.688  1.00  0.00     0.277 HD
BRANCH  28  31
HETATM   31  C5  UNL     1      23.271   1.892  21.994  1.00  0.00     0.233 C 
BRANCH  31  32
HETATM   32  C4  UNL     1      23.238   2.546  20.656  1.00  0.00     0.027 C 
BRANCH  32  33
HETATM   33  C3  UNL     1      23.163   1.558  19.536  1.00  0.00     0.003 C 
BRANCH  33  34
HETATM   34  C2  UNL     1      22.188   1.921  18.466  1.00  0.00     0.027 C 
BRANCH  34  35
HETATM   35  C1  UNL     1      20.796   1.401  18.732  1.00  0.00     0.229 C 
BRANCH  35  36
HETATM   36  N1  UNL     1      20.861   0.030  19.207  1.00  0.00    -0.079 N 
ATOM     37  H13 UNL     1      21.754  -0.409  18.986  1.00  0.00     0.274 HD
ATOM     38  H12 UNL     1      20.919  -0.019  20.225  1.00  0.00     0.274 HD
ATOM     39  H11 UNL     1      20.071  -0.503  18.843  1.00  0.00     0.274 HD
ENDBRANCH  35  36
ENDBRANCH  34  35
ENDBRANCH  33  34
ENDBRANCH  32  33
ENDBRANCH  31  32
ENDBRANCH  28  31
ENDBRANCH   1  28
BRANCH   7  40
HETATM   40  N4  UNL     1      19.926  -2.008  23.604  1.00  0.00    -0.071 N 
ATOM     41  H43 UNL     1      19.919  -2.734  22.889  1.00  0.00     0.274 HD
ATOM     42  H42 UNL     1      19.273  -2.451  24.250  1.00  0.00     0.274 HD
ATOM     43  H41 UNL     1      19.594  -1.106  23.260  1.00  0.00     0.274 HD
ENDBRANCH   7  40
TORSDOF 15
ENDMDL
MODEL 5
REMARK VINA RESULT: -6.925899113      2.341      4.000
REMARK  15 active torsions:
REMARK  status: ('A' for Active; 'I' for Inactive)
REMARK    1  A    between atoms: N1_1  and  C1_5 
REMARK    2  A    between atoms: C1_5  and  C2_6 
REMARK    3  A    between atoms: C2_6  and  C3_7 
REMARK    4  A    between atoms: C3_7  and  C4_8 
REMARK    5  A    between atoms: C4_8  and  C5_9 
REMARK    6  A    between atoms: C5_9  and  N2_10 
REMARK    7  A    between atoms: N2_10  and  C6_13 
REMARK    8  A    between atoms: C9_19  and  N4_20 
REMARK    9  A    between atoms: C10_24  and  O1_25 
REMARK   10  A    between atoms: O1_25  and  C11_26 
REMARK   11  A    between atoms: C14_29  and  N5_30 
REMARK       I    between atoms: N5_30  and  C15_32 
REMARK   12  A    between atoms: C15_32  and  C16_34 
REMARK   13  A    between atoms: C16_34  and  N6_35 
REMARK   14  A    between atoms: C17_39  and  C18_40 
REMARK   15  A    between atoms: C18_40  and  O3_41 
ROOT
HETATM    1  C6  UNL     1      20.333  -0.622  22.517  1.00  0.00     0.242 C 
HETATM    2  C7  UNL     1      21.259   0.007  21.501  1.00  0.00     0.268 C 
HETATM    3  N3  UNL     1      22.599  -0.428  21.762  1.00  0.00    -0.071 N 
ATOM      4  H31 UNL     1      23.167   0.353  22.092  1.00  0.00     0.277 HD
ATOM      5  H32 UNL     1      23.080  -0.639  20.888  1.00  0.00     0.277 HD
HETATM    6  C8  UNL     1      22.704  -1.537  22.668  1.00  0.00     0.267 C 
HETATM    7  C9  UNL     1      22.102  -1.241  24.023  1.00  0.00     0.239 C 
HETATM    8  C10 UNL     1      20.909  -0.268  23.864  1.00  0.00     0.189 C 
ENDROOT
BRANCH   8   9
HETATM    9  O1  UNL     1      20.056  -0.481  24.911  1.00  0.00    -0.352 OA
BRANCH   9  10
HETATM   10  C11 UNL     1      19.885   0.622  25.756  1.00  0.00     0.261 C 
HETATM   11  C12 UNL     1      20.647   0.416  27.050  1.00  0.00     0.063 C 
HETATM   12  C13 UNL     1      20.006  -0.646  27.886  1.00  0.00     0.032 C 
HETATM   13  C14 UNL     1      18.525  -0.436  27.972  1.00  0.00     0.115 C 
HETATM   14  C17 UNL     1      17.989   0.674  27.130  1.00  0.00     0.170 C 
HETATM   15  O4  UNL     1      18.567   0.865  25.915  1.00  0.00    -0.352 OA
BRANCH  13  16
HETATM   16  N5  UNL     1      17.891  -1.706  27.698  1.00  0.00    -0.352 N 
HETATM   17  C15 UNL     1      17.078  -2.306  28.681  1.00  0.00     0.243 C 
HETATM   18  O2  UNL     1      16.922  -1.722  29.776  1.00  0.00    -0.272 OA
ATOM     19  H5  UNL     1      18.031  -2.165  26.798  1.00  0.00     0.163 HD
BRANCH  17  20
HETATM   20  C16 UNL     1      16.394  -3.608  28.472  1.00  0.00     0.332 C 
BRANCH  20  21
HETATM   21  N6  UNL     1      15.630  -3.984  29.633  1.00  0.00    -0.071 N 
ATOM     22  H63 UNL     1      16.229  -4.334  30.380  1.00  0.00     0.274 HD
ATOM     23  H62 UNL     1      15.247  -3.167  30.110  1.00  0.00     0.274 HD
ATOM     24  H61 UNL     1      14.899  -4.654  29.390  1.00  0.00     0.274 HD
ENDBRANCH  20  21
ENDBRANCH  17  20
ENDBRANCH  13  16
BRANCH  14  25
HETATM   25  C18 UNL     1      17.830   1.976  27.918  1.00  0.00     0.198 C 
BRANCH  25  26
HETATM   26  O3  UNL     1      17.532   3.023  27.027  1.00  0.00    -0.398 OA
ATOM     27  H3  UNL     1      17.460   3.836  27.513  1.00  0.00     0.209 HD
ENDBRANCH  25  26
ENDBRANCH  14  25
ENDBRANCH   9  10
ENDBRANCH   8   9
BRANCH   1  28
HETATM   28  N2  UNL     1      19.017  -0.099  22.400  1.00  0.00    -0.067 N 
ATOM     29  H22 UNL     1      19.000   0.882  22.679  1.00  0.00     0.277 HD
ATOM     30  H21 UNL     1      18.414  -0.498  23.119  1.00  0.00     0.277 HD
BRANCH  28  31
HETATM   31  C5  UNL     1      18.418  -0.259  21.100  1.00  0.00     0.233 C 
BRANCH  31  32
HETATM   32  C4  UNL     1      16.961  -0.568  21.133  1.00  0.00     0.027 C 
BRANCH  32  33
HETATM   33  C3  UNL     1      16.646  -1.758  21.982  1.00  0.00     0.003 C 
BRANCH  33  34
HETATM   34  C2  UNL     1      15.637  -1.495  23.050  1.00  0.00     0.027 C 
BRANCH  34  35
HETATM   35  C1  UNL     1      16.242  -1.420  24.432  1.00  0.00     0.229 C 
BRANCH  35  36
HETATM   36  N1  UNL     1      17.565  -2.017  24.426  1.00  0.00    -0.079 N 
ATOM     37  H13 UNL     1      18.278  -1.365  24.096  1.00  0.00     0.274 HD
ATOM     38  H12 UNL     1      17.923  -2.163  25.370  1.00  0.00     0.274 HD
ATOM     39  H11 UNL     1      17.556  -2.880  23.883  1.00  0.00     0.274 HD
ENDBRANCH  35  36
ENDBRANCH  34  35
ENDBRANCH  33  34
ENDBRANCH  32  33
ENDBRANCH  31  32
ENDBRANCH  28  31
ENDBRANCH   1  28
BRANCH   7  40
HETATM   40  N4  UNL     1      21.578  -2.488  24.546  1.00  0.00    -0.071 N 
ATOM     41  H43 UNL     1      21.717  -2.589  25.551  1.00  0.00     0.274 HD
ATOM     42  H42 UNL     1      20.558  -2.521  24.549  1.00  0.00     0.274 HD
ATOM     43  H41 UNL     1      21.999  -3.245  24.006  1.00  0.00     0.274 HD
ENDBRANCH   7  40
TORSDOF 15
ENDMDL
