MODEL 1
REMARK VINA RESULT: -8.533027054      0.000      0.000
REMARK  15 active torsions:
REMARK  status: ('A' for Active; 'I' for Inactive)
REMARK    1  A    between atoms: C2_3  and  C3_4 
REMARK    2  A    between atoms: C3_4  and  N2_5 
REMARK    3  A    between atoms: C3_4  and  C13_30 
REMARK       I    between atoms: N2_5  and  C4_7 
REMARK    4  A    between atoms: C4_7  and  C5_9 
REMARK    5  A    between atoms: C5_9  and  N3_10 
REMARK    6  A    between atoms: C5_9  and  C6_14 
REMARK    7  A    between atoms: C6_14  and  C7_15 
REMARK    8  A    between atoms: C7_15  and  C8_16 
REMARK    9  A    between atoms: C8_16  and  N4_17 
REMARK       I    between atoms: N4_17  and  C9_19 
REMARK   10  A    between atoms: C9_19  and  C10_21 
REMARK   11  A    between atoms: C10_21  and  C11_22 
REMARK   12  A    between atoms: C11_22  and  C12_23 
REMARK       I    between atoms: C12_23  and  N5_25 
REMARK   13  A    between atoms: N5_25  and  N6_27 
REMARK   14  A    between atoms: C15_32  and  N7_33 
REMARK   15  A    between atoms: C16_37  and  O4_38 
ROOT
HETATM    1  N1  UNL     1      17.848   3.680  25.359  1.00  0.00    -0.197 NA
HETATM    2  C1  UNL     1      17.256   2.796  25.828  1.00  0.00     0.061 C 
HETATM    3  C2  UNL     1      16.527   1.673  26.413  1.00  0.00     0.149 C 
ENDROOT
BRANCH   3   4
HETATM    4  C3  UNL     1      17.356   0.441  26.540  1.00  0.00     0.101 C 
BRANCH   4   5
HETATM    5  N2  UNL     1      18.133   0.290  25.317  1.00  0.00    -0.353 N 
HETATM    6  C4  UNL     1      18.049  -0.867  24.523  1.00  0.00     0.248 C 
HETATM    7  O1  UNL     1      17.326  -1.850  24.770  1.00  0.00    -0.271 OA
ATOM      8  H2  UNL     1      18.756   1.044  25.029  1.00  0.00     0.163 HD
BRANCH   6   9
HETATM    9  C5  UNL     1      18.882  -0.950  23.274  1.00  0.00     0.274 C 
BRANCH   9  10
HETATM   10  N3  UNL     1      18.324  -0.167  22.202  1.00  0.00    -0.067 N 
ATOM     11  H33 UNL     1      17.315  -0.303  22.130  1.00  0.00     0.275 HD
ATOM     12  H32 UNL     1      18.336   0.828  22.425  1.00  0.00     0.275 HD
ATOM     13  H31 UNL     1      18.787  -0.353  21.313  1.00  0.00     0.275 HD
ENDBRANCH   9  10
BRANCH   9  14
HETATM   14  C6  UNL     1      20.287  -0.515  23.603  1.00  0.00     0.044 C 
BRANCH  14  15
HETATM   15  C7  UNL     1      21.132  -1.733  23.899  1.00  0.00     0.022 C 
BRANCH  15  16
HETATM   16  C8  UNL     1      22.379  -1.771  23.089  1.00  0.00     0.122 C 
BRANCH  16  17
HETATM   17  N4  UNL     1      22.282  -0.963  21.912  1.00  0.00    -0.361 N 
HETATM   18  C9  UNL     1      22.997   0.243  21.768  1.00  0.00     0.217 C 
HETATM   19  O2  UNL     1      23.757   0.645  22.684  1.00  0.00    -0.274 OA
ATOM     20  H4  UNL     1      21.675  -1.270  21.152  1.00  0.00     0.162 HD
BRANCH  18  21
HETATM   21  C10 UNL     1      22.859   1.071  20.513  1.00  0.00     0.112 C 
BRANCH  21  22
HETATM   22  C11 UNL     1      21.583   0.711  19.842  1.00  0.00     0.114 C 
BRANCH  22  23
HETATM   23  C12 UNL     1      21.394   1.538  18.634  1.00  0.00     0.235 C 
HETATM   24  O3  UNL     1      20.363   1.455  17.880  1.00  0.00    -0.272 OA
HETATM   25  N5  UNL     1      22.395   2.482  18.274  1.00  0.00    -0.277 N 
ATOM     26  H5  UNL     1      23.229   2.574  18.854  1.00  0.00     0.189 HD
BRANCH  25  27
HETATM   27  N6  UNL     1      22.255   3.288  17.135  1.00  0.00    -0.343 N 
ATOM     28  H62 UNL     1      21.314   3.544  16.833  1.00  0.00     0.176 HD
ATOM     29  H61 UNL     1      23.070   3.613  16.615  1.00  0.00     0.176 HD
ENDBRANCH  25  27
ENDBRANCH  22  23
ENDBRANCH  21  22
ENDBRANCH  18  21
ENDBRANCH  16  17
ENDBRANCH  15  16
ENDBRANCH  14  15
ENDBRANCH   9  14
ENDBRANCH   6   9
ENDBRANCH   4   5
BRANCH   4  30
HETATM   30  C13 UNL     1      18.309   0.480  27.706  1.00  0.00     0.014 C 
HETATM   31  C14 UNL     1      19.078  -0.781  27.902  1.00  0.00     0.042 C 
HETATM   32  C15 UNL     1      19.703  -0.538  29.284  1.00  0.00     0.212 C 
HETATM   33  C16 UNL     1      18.532   0.013  30.056  1.00  0.00     0.149 C 
HETATM   34  C17 UNL     1      17.596   0.644  29.022  1.00  0.00     0.040 C 
BRANCH  32  35
HETATM   35  N7  UNL     1      20.789   0.400  29.152  1.00  0.00    -0.073 N 
ATOM     36  H73 UNL     1      21.456   0.332  29.921  1.00  0.00     0.274 HD
ATOM     37  H72 UNL     1      21.422   0.156  28.390  1.00  0.00     0.274 HD
ATOM     38  H71 UNL     1      20.407   1.341  29.053  1.00  0.00     0.274 HD
ENDBRANCH  32  35
BRANCH  33  39
HETATM   39  O4  UNL     1      17.892  -1.083  30.663  1.00  0.00    -0.393 OA
ATOM     40  H4  UNL     1      16.996  -1.087  30.349  1.00  0.00     0.210 HD
ENDBRANCH  33  39
ENDBRANCH   4  30
ENDBRANCH   3   4
TORSDOF 15
ENDMDL
MODEL 2
REMARK VINA RESULT: -8.499220586      2.151      8.636
REMARK  15 active torsions:
REMARK  status: ('A' for Active; 'I' for Inactive)
REMARK    1  A    between atoms: C2_3  and  C3_4 
REMARK    2  A    between atoms: C3_4  and  N2_5 
REMARK    3  A    between atoms: C3_4  and  C13_30 
REMARK       I    between atoms: N2_5  and  C4_7 
REMARK    4  A    between atoms: C4_7  and  C5_9 
REMARK    5  A    between atoms: C5_9  and  N3_10 
REMARK    6  A    between atoms: C5_9  and  C6_14 
REMARK    7  A    between atoms: C6_14  and  C7_15 
REMARK    8  A    between atoms: C7_15  and  C8_16 
REMARK    9  A    between atoms: C8_16  and  N4_17 
REMARK       I    between atoms: N4_17  and  C9_19 
REMARK   10  A    between atoms: C9_19  and  C10_21 
REMARK   11  A    between atoms: C10_21  and  C11_22 
REMARK   12  A    between atoms: C11_22  and  C12_23 
REMARK       I    between atoms: C12_23  and  N5_25 
REMARK   13  A    between atoms: N5_25  and  N6_27 
REMARK   14  A    between atoms: C15_32  and  N7_33 
REMARK   15  A    between atoms: C16_37  and  O4_38 
ROOT
HETATM    1  N1  UNL     1      24.654  -2.237  23.834  1.00  0.00    -0.197 NA
HETATM    2  C1  UNL     1      24.229  -1.392  23.157  1.00  0.00     0.061 C 
HETATM    3  C2  UNL     1      23.678  -0.340  22.307  1.00  0.00     0.149 C 
ENDROOT
BRANCH   3   4
HETATM    4  C3  UNL     1      22.204  -0.453  22.119  1.00  0.00     0.101 C 
BRANCH   4   5
HETATM    5  N2  UNL     1      21.554  -0.002  23.343  1.00  0.00    -0.353 N 
HETATM    6  C4  UNL     1      20.538  -0.750  23.962  1.00  0.00     0.248 C 
HETATM    7  O1  UNL     1      20.102  -1.840  23.548  1.00  0.00    -0.271 OA
ATOM      8  H2  UNL     1      21.844   0.882  23.761  1.00  0.00     0.163 HD
BRANCH   6   9
HETATM    9  C5  UNL     1      19.915  -0.219  25.223  1.00  0.00     0.274 C 
BRANCH   9  10
HETATM   10  N3  UNL     1      20.081   1.206  25.346  1.00  0.00    -0.067 N 
ATOM     11  H33 UNL     1      20.970   1.511  24.951  1.00  0.00     0.275 HD
ATOM     12  H32 UNL     1      19.448   1.707  24.723  1.00  0.00     0.275 HD
ATOM     13  H31 UNL     1      19.976   1.520  26.311  1.00  0.00     0.275 HD
ENDBRANCH   9  10
BRANCH   9  14
HETATM   14  C6  UNL     1      18.460  -0.611  25.244  1.00  0.00     0.044 C 
BRANCH  14  15
HETATM   15  C7  UNL     1      17.628   0.525  24.696  1.00  0.00     0.022 C 
BRANCH  15  16
HETATM   16  C8  UNL     1      16.550   0.943  25.633  1.00  0.00     0.122 C 
BRANCH  16  17
HETATM   17  N4  UNL     1      16.900   0.699  26.999  1.00  0.00    -0.361 N 
HETATM   18  C9  UNL     1      17.562   1.661  27.789  1.00  0.00     0.217 C 
HETATM   19  O2  UNL     1      17.863   2.781  27.306  1.00  0.00    -0.274 OA
ATOM     20  H4  UNL     1      16.661  -0.201  27.416  1.00  0.00     0.162 HD
BRANCH  18  21
HETATM   21  C10 UNL     1      17.920   1.359  29.224  1.00  0.00     0.112 C 
BRANCH  21  22
HETATM   22  C11 UNL     1      18.138  -0.104  29.364  1.00  0.00     0.114 C 
BRANCH  22  23
HETATM   23  C12 UNL     1      19.539  -0.441  29.049  1.00  0.00     0.235 C 
HETATM   24  O3  UNL     1      20.520   0.353  29.267  1.00  0.00    -0.272 OA
HETATM   25  N5  UNL     1      19.838  -1.707  28.473  1.00  0.00    -0.277 N 
ATOM     26  H5  UNL     1      19.080  -2.363  28.287  1.00  0.00     0.189 HD
BRANCH  25  27
HETATM   27  N6  UNL     1      21.156  -2.068  28.158  1.00  0.00    -0.343 N 
ATOM     28  H62 UNL     1      21.441  -3.038  28.299  1.00  0.00     0.176 HD
ATOM     29  H61 UNL     1      21.818  -1.382  27.797  1.00  0.00     0.176 HD
ENDBRANCH  25  27
ENDBRANCH  22  23
ENDBRANCH  21  22
ENDBRANCH  18  21
ENDBRANCH  16  17
ENDBRANCH  15  16
ENDBRANCH  14  15
ENDBRANCH   9  14
ENDBRANCH   6   9
ENDBRANCH   4   5
BRANCH   4  30
HETATM   30  C13 UNL     1      21.683   0.374  20.972  1.00  0.00     0.014 C 
HETATM   31  C14 UNL     1      21.618  -0.360  19.677  1.00  0.00     0.042 C 
HETATM   32  C15 UNL     1      21.350   0.791  18.695  1.00  0.00     0.212 C 
HETATM   33  C16 UNL     1      22.329   1.832  19.171  1.00  0.00     0.149 C 
HETATM   34  C17 UNL     1      22.583   1.538  20.652  1.00  0.00     0.040 C 
BRANCH  32  35
HETATM   35  N7  UNL     1      19.975   1.206  18.818  1.00  0.00    -0.073 N 
ATOM     36  H73 UNL     1      19.543   1.388  17.913  1.00  0.00     0.274 HD
ATOM     37  H72 UNL     1      19.366   0.444  19.119  1.00  0.00     0.274 HD
ATOM     38  H71 UNL     1      19.925   2.012  19.441  1.00  0.00     0.274 HD
ENDBRANCH  32  35
BRANCH  33  39
HETATM   39  O4  UNL     1      23.517   1.637  18.443  1.00  0.00    -0.393 OA
ATOM     40  H4  UNL     1      24.235   1.875  19.018  1.00  0.00     0.210 HD
ENDBRANCH  33  39
ENDBRANCH   4  30
ENDBRANCH   3   4
TORSDOF 15
ENDMDL
MODEL 3
REMARK VINA RESULT: -8.426098239      2.849      4.737
REMARK  15 active torsions:
REMARK  status: ('A' for Active; 'I' for Inactive)
REMARK    1  A    between atoms: C2_3  and  C3_4 
REMARK    2  A    between atoms: C3_4  and  N2_5 
REMARK    3  A    between atoms: C3_4  and  C13_30 
REMARK       I    between atoms: N2_5  and  C4_7 
REMARK    4  A    between atoms: C4_7  and  C5_9 
REMARK    5  A    between atoms: C5_9  and  N3_10 
REMARK    6  A    between atoms: C5_9  and  C6_14 
REMARK    7  A    between atoms: C6_14  and  C7_15 
REMARK    8  A    between atoms: C7_15  and  C8_16 
REMARK    9  A    between atoms: C8_16  and  N4_17 
REMARK       I    between atoms: N4_17  and  C9_19 
REMARK   10  A    between atoms: C9_19  and  C10_21 
REMARK   11  A    between atoms: C10_21  and  C11_22 
REMARK   12  A    between atoms: C11_22  and  C12_23 
REMARK       I    between atoms: C12_23  and  N5_25 
REMARK   13  A    between atoms: N5_25  and  N6_27 
REMARK   14  A    between atoms: C15_32  and  N7_33 
REMARK   15  A    between atoms: C16_37  and  O4_38 
ROOT
HETATM    1  N1  UNL     1      16.813  -0.607  25.125  1.00  0.00    -0.197 NA
HETATM    2  C1  UNL     1      17.868  -0.484  24.653  1.00  0.00     0.061 C 
HETATM    3  C2  UNL     1      19.202  -0.336  24.076  1.00  0.00     0.149 C 
ENDROOT
BRANCH   3   4
HETATM    4  C3  UNL     1      20.278  -0.904  24.938  1.00  0.00     0.101 C 
BRANCH   4   5
HETATM    5  N2  UNL     1      21.563  -0.580  24.332  1.00  0.00    -0.353 N 
HETATM    6  C4  UNL     1      22.427  -1.577  23.848  1.00  0.00     0.248 C 
HETATM    7  O1  UNL     1      22.195  -2.800  23.883  1.00  0.00    -0.271 OA
ATOM      8  H2  UNL     1      21.843   0.398  24.257  1.00  0.00     0.163 HD
BRANCH   6   9
HETATM    9  C5  UNL     1      23.736  -1.165  23.235  1.00  0.00     0.274 C 
BRANCH   9  10
HETATM   10  N3  UNL     1      24.715  -2.219  23.300  1.00  0.00    -0.067 N 
ATOM     11  H33 UNL     1      25.491  -1.968  23.912  1.00  0.00     0.275 HD
ATOM     12  H32 UNL     1      24.359  -3.025  23.814  1.00  0.00     0.275 HD
ATOM     13  H31 UNL     1      25.047  -2.488  22.373  1.00  0.00     0.275 HD
ENDBRANCH   9  10
BRANCH   9  14
HETATM   14  C6  UNL     1      23.487  -0.727  21.815  1.00  0.00     0.044 C 
BRANCH  14  15
HETATM   15  C7  UNL     1      23.282   0.770  21.781  1.00  0.00     0.022 C 
BRANCH  15  16
HETATM   16  C8  UNL     1      22.172   1.172  20.876  1.00  0.00     0.122 C 
BRANCH  16  17
HETATM   17  N4  UNL     1      21.026   0.326  21.022  1.00  0.00    -0.361 N 
HETATM   18  C9  UNL     1      19.997   0.284  20.060  1.00  0.00     0.217 C 
HETATM   19  O2  UNL     1      20.063   0.995  19.027  1.00  0.00    -0.274 OA
ATOM     20  H4  UNL     1      20.952  -0.265  21.850  1.00  0.00     0.162 HD
BRANCH  18  21
HETATM   21  C10 UNL     1      18.801  -0.616  20.257  1.00  0.00     0.112 C 
BRANCH  21  22
HETATM   22  C11 UNL     1      17.570   0.147  19.929  1.00  0.00     0.114 C 
BRANCH  22  23
HETATM   23  C12 UNL     1      16.423  -0.387  20.689  1.00  0.00     0.235 C 
HETATM   24  O3  UNL     1      15.209  -0.059  20.453  1.00  0.00    -0.272 OA
HETATM   25  N5  UNL     1      16.658  -1.314  21.742  1.00  0.00    -0.277 N 
ATOM     26  H5  UNL     1      17.614  -1.597  21.956  1.00  0.00     0.189 HD
BRANCH  25  27
HETATM   27  N6  UNL     1      15.598  -1.846  22.490  1.00  0.00    -0.343 N 
ATOM     28  H62 UNL     1      14.865  -2.359  21.998  1.00  0.00     0.176 HD
ATOM     29  H61 UNL     1      15.553  -1.726  23.502  1.00  0.00     0.176 HD
ENDBRANCH  25  27
ENDBRANCH  22  23
ENDBRANCH  21  22
ENDBRANCH  18  21
ENDBRANCH  16  17
ENDBRANCH  15  16
ENDBRANCH  14  15
ENDBRANCH   9  14
ENDBRANCH   6   9
ENDBRANCH   4   5
BRANCH   4  30
HETATM   30  C13 UNL     1      20.265  -0.360  26.343  1.00  0.00     0.014 C 
HETATM   31  C14 UNL     1      20.614   1.086  26.436  1.00  0.00     0.042 C 
HETATM   32  C15 UNL     1      20.801   1.251  27.952  1.00  0.00     0.212 C 
HETATM   33  C16 UNL     1      21.619   0.033  28.292  1.00  0.00     0.149 C 
HETATM   34  C17 UNL     1      21.303  -1.011  27.217  1.00  0.00     0.040 C 
BRANCH  32  35
HETATM   35  N7  UNL     1      19.508   1.262  28.589  1.00  0.00    -0.073 N 
ATOM     36  H73 UNL     1      19.190   2.208  28.803  1.00  0.00     0.274 HD
ATOM     37  H72 UNL     1      18.758   1.000  27.948  1.00  0.00     0.274 HD
ATOM     38  H71 UNL     1      19.538   0.666  29.416  1.00  0.00     0.274 HD
ENDBRANCH  32  35
BRANCH  33  39
HETATM   39  O4  UNL     1      22.971   0.410  28.198  1.00  0.00    -0.393 OA
ATOM     40  H4  UNL     1      23.319   0.412  29.081  1.00  0.00     0.210 HD
ENDBRANCH  33  39
ENDBRANCH   4  30
ENDBRANCH   3   4
TORSDOF 15
ENDMDL
MODEL 4
REMARK VINA RESULT: -8.333679024      2.035      8.204
REMARK  15 active torsions:
REMARK  status: ('A' for Active; 'I' for Inactive)
REMARK    1  A    between atoms: C2_3  and  C3_4 
REMARK    2  A    between atoms: C3_4  and  N2_5 
REMARK    3  A    between atoms: C3_4  and  C13_30 
REMARK       I    between atoms: N2_5  and  C4_7 
REMARK    4  A    between atoms: C4_7  and  C5_9 
REMARK    5  A    between atoms: C5_9  and  N3_10 
REMARK    6  A    between atoms: C5_9  and  C6_14 
REMARK    7  A    between atoms: C6_14  and  C7_15 
REMARK    8  A    between atoms: C7_15  and  C8_16 
REMARK    9  A    between atoms: C8_16  and  N4_17 
REMARK       I    between atoms: N4_17  and  C9_19 
REMARK   10  A    between atoms: C9_19  and  C10_21 
REMARK   11  A    between atoms: C10_21  and  C11_22 
REMARK   12  A    between atoms: C11_22  and  C12_23 
REMARK       I    between atoms: C12_23  and  N5_25 
REMARK   13  A    between atoms: N5_25  and  N6_27 
REMARK   14  A    between atoms: C15_32  and  N7_33 
REMARK   15  A    between atoms: C16_37  and  O4_38 
ROOT
HETATM    1  N1  UNL     1      24.450  -1.858  23.520  1.00  0.00    -0.197 NA
HETATM    2  C1  UNL     1      23.539  -1.148  23.384  1.00  0.00     0.061 C 
HETATM    3  C2  UNL     1      22.391  -0.264  23.197  1.00  0.00     0.149 C 
ENDROOT
BRANCH   3   4
HETATM    4  C3  UNL     1      21.600  -0.585  21.975  1.00  0.00     0.101 C 
BRANCH   4   5
HETATM    5  N2  UNL     1      20.243  -0.093  22.171  1.00  0.00    -0.353 N 
HETATM    6  C4  UNL     1      19.289  -0.819  22.906  1.00  0.00     0.248 C 
HETATM    7  O1  UNL     1      19.495  -1.919  23.449  1.00  0.00    -0.271 OA
ATOM      8  H2  UNL     1      19.977   0.803  21.764  1.00  0.00     0.163 HD
BRANCH   6   9
HETATM    9  C5  UNL     1      17.909  -0.245  23.065  1.00  0.00     0.274 C 
BRANCH   9  10
HETATM   10  N3  UNL     1      17.165  -0.283  21.833  1.00  0.00    -0.067 N 
ATOM     11  H33 UNL     1      16.609   0.563  21.709  1.00  0.00     0.275 HD
ATOM     12  H32 UNL     1      17.781  -0.190  21.025  1.00  0.00     0.275 HD
ATOM     13  H31 UNL     1      16.587  -1.120  21.762  1.00  0.00     0.275 HD
ENDBRANCH   9  10
BRANCH   9  14
HETATM   14  C6  UNL     1      17.199  -0.996  24.163  1.00  0.00     0.044 C 
BRANCH  14  15
HETATM   15  C7  UNL     1      16.634  -0.010  25.159  1.00  0.00     0.022 C 
BRANCH  15  16
HETATM   16  C8  UNL     1      17.670   0.912  25.698  1.00  0.00     0.122 C 
BRANCH  16  17
HETATM   17  N4  UNL     1      18.733   0.207  26.347  1.00  0.00    -0.361 N 
HETATM   18  C9  UNL     1      20.082   0.594  26.214  1.00  0.00     0.217 C 
HETATM   19  O2  UNL     1      20.391   1.589  25.513  1.00  0.00    -0.274 OA
ATOM     20  H4  UNL     1      18.507  -0.602  26.926  1.00  0.00     0.162 HD
BRANCH  18  21
HETATM   21  C10 UNL     1      21.174  -0.183  26.910  1.00  0.00     0.112 C 
BRANCH  21  22
HETATM   22  C11 UNL     1      21.407   0.417  28.248  1.00  0.00     0.114 C 
BRANCH  22  23
HETATM   23  C12 UNL     1      20.150   0.442  29.021  1.00  0.00     0.235 C 
HETATM   24  O3  UNL     1      19.434   1.492  29.166  1.00  0.00    -0.272 OA
HETATM   25  N5  UNL     1      19.693  -0.753  29.643  1.00  0.00    -0.277 N 
ATOM     26  H5  UNL     1      20.240  -1.609  29.547  1.00  0.00     0.189 HD
BRANCH  25  27
HETATM   27  N6  UNL     1      18.504  -0.775  30.386  1.00  0.00    -0.343 N 
ATOM     28  H62 UNL     1      18.190   0.091  30.825  1.00  0.00     0.176 HD
ATOM     29  H61 UNL     1      17.962  -1.632  30.489  1.00  0.00     0.176 HD
ENDBRANCH  25  27
ENDBRANCH  22  23
ENDBRANCH  21  22
ENDBRANCH  18  21
ENDBRANCH  16  17
ENDBRANCH  15  16
ENDBRANCH  14  15
ENDBRANCH   9  14
ENDBRANCH   6   9
ENDBRANCH   4   5
BRANCH   4  30
HETATM   30  C13 UNL     1      22.156   0.041  20.722  1.00  0.00     0.014 C 
HETATM   31  C14 UNL     1      22.241   1.528  20.776  1.00  0.00     0.042 C 
HETATM   32  C15 UNL     1      22.545   1.863  19.307  1.00  0.00     0.212 C 
HETATM   33  C16 UNL     1      21.568   0.973  18.584  1.00  0.00     0.149 C 
HETATM   34  C17 UNL     1      21.278  -0.200  19.524  1.00  0.00     0.040 C 
BRANCH  32  35
HETATM   35  N7  UNL     1      23.921   1.542  19.026  1.00  0.00    -0.073 N 
ATOM     36  H73 UNL     1      24.456   1.351  19.873  1.00  0.00     0.274 HD
ATOM     37  H72 UNL     1      24.023   0.628  18.582  1.00  0.00     0.274 HD
ATOM     38  H71 UNL     1      24.332   2.291  18.469  1.00  0.00     0.274 HD
ENDBRANCH  32  35
BRANCH  33  39
HETATM   39  O4  UNL     1      20.394   1.725  18.395  1.00  0.00    -0.393 OA
ATOM     40  H4  UNL     1      19.777   1.164  17.941  1.00  0.00     0.210 HD
ENDBRANCH  33  39
ENDBRANCH   4  30
ENDBRANCH   3   4
TORSDOF 15
ENDMDL
MODEL 5
REMARK VINA RESULT: -8.316446848      1.286      1.536
REMARK  15 active torsions:
REMARK  status: ('A' for Active; 'I' for Inactive)
REMARK    1  A    between atoms: C2_3  and  C3_4 
REMARK    2  A    between atoms: C3_4  and  N2_5 
REMARK    3  A    between atoms: C3_4  and  C13_30 
REMARK       I    between atoms: N2_5  and  C4_7 
REMARK    4  A    between atoms: C4_7  and  C5_9 
REMARK    5  A    between atoms: C5_9  and  N3_10 
REMARK    6  A    between atoms: C5_9  and  C6_14 
REMARK    7  A    between atoms: C6_14  and  C7_15 
REMARK    8  A    between atoms: C7_15  and  C8_16 
REMARK    9  A    between atoms: C8_16  and  N4_17 
REMARK       I    between atoms: N4_17  and  C9_19 
REMARK   10  A    between atoms: C9_19  and  C10_21 
REMARK   11  A    between atoms: C10_21  and  C11_22 
REMARK   12  A    between atoms: C11_22  and  C12_23 
REMARK       I    between atoms: C12_23  and  N5_25 
REMARK   13  A    between atoms: N5_25  and  N6_27 
REMARK   14  A    between atoms: C15_32  and  N7_33 
REMARK   15  A    between atoms: C16_37  and  O4_38 
ROOT
HETATM    1  N1  UNL     1      17.860   3.360  25.346  1.00  0.00    -0.197 NA
HETATM    2  C1  UNL     1      17.266   2.446  25.751  1.00  0.00     0.061 C 
HETATM    3  C2  UNL     1      16.534   1.286  26.254  1.00  0.00     0.149 C 
ENDROOT
BRANCH   3   4
HETATM    4  C3  UNL     1      17.340   0.032  26.231  1.00  0.00     0.101 C 
BRANCH   4   5
HETATM    5  N2  UNL     1      18.538   0.278  25.441  1.00  0.00    -0.353 N 
HETATM    6  C4  UNL     1      18.896  -0.547  24.360  1.00  0.00     0.248 C 
HETATM    7  O1  UNL     1      18.250  -1.540  23.977  1.00  0.00    -0.271 OA
ATOM      8  H2  UNL     1      19.135   1.070  25.677  1.00  0.00     0.163 HD
BRANCH   6   9
HETATM    9  C5  UNL     1      20.148  -0.230  23.591  1.00  0.00     0.274 C 
BRANCH   9  10
HETATM   10  N3  UNL     1      20.920   0.808  24.224  1.00  0.00    -0.067 N 
ATOM     11  H33 UNL     1      20.571   1.010  25.161  1.00  0.00     0.275 HD
ATOM     12  H32 UNL     1      21.854   0.479  24.467  1.00  0.00     0.275 HD
ATOM     13  H31 UNL     1      20.961   1.653  23.654  1.00  0.00     0.275 HD
ENDBRANCH   9  10
BRANCH   9  14
HETATM   14  C6  UNL     1      20.950  -1.497  23.432  1.00  0.00     0.044 C 
BRANCH  14  15
HETATM   15  C7  UNL     1      22.215  -1.394  24.252  1.00  0.00     0.022 C 
BRANCH  15  16
HETATM   16  C8  UNL     1      23.443  -1.485  23.416  1.00  0.00     0.122 C 
BRANCH  16  17
HETATM   17  N4  UNL     1      23.227  -0.999  22.088  1.00  0.00    -0.361 N 
HETATM   18  C9  UNL     1      23.312   0.371  21.766  1.00  0.00     0.217 C 
HETATM   19  O2  UNL     1      23.591   1.215  22.653  1.00  0.00    -0.274 OA
ATOM     20  H4  UNL     1      23.005  -1.666  21.348  1.00  0.00     0.162 HD
BRANCH  18  21
HETATM   21  C10 UNL     1      23.069   0.842  20.353  1.00  0.00     0.112 C 
BRANCH  21  22
HETATM   22  C11 UNL     1      21.610   0.799  20.079  1.00  0.00     0.114 C 
BRANCH  22  23
HETATM   23  C12 UNL     1      21.312   1.480  18.804  1.00  0.00     0.235 C 
HETATM   24  O3  UNL     1      20.195   1.364  18.189  1.00  0.00    -0.272 OA
HETATM   25  N5  UNL     1      22.302   2.311  18.211  1.00  0.00    -0.277 N 
ATOM     26  H5  UNL     1      23.203   2.426  18.675  1.00  0.00     0.189 HD
BRANCH  25  27
HETATM   27  N6  UNL     1      22.060   2.977  17.001  1.00  0.00    -0.343 N 
ATOM     28  H62 UNL     1      22.260   2.487  16.128  1.00  0.00     0.176 HD
ATOM     29  H61 UNL     1      21.694   3.928  16.986  1.00  0.00     0.176 HD
ENDBRANCH  25  27
ENDBRANCH  22  23
ENDBRANCH  21  22
ENDBRANCH  18  21
ENDBRANCH  16  17
ENDBRANCH  15  16
ENDBRANCH  14  15
ENDBRANCH   9  14
ENDBRANCH   6   9
ENDBRANCH   4   5
BRANCH   4  30
HETATM   30  C13 UNL     1      17.762  -0.432  27.602  1.00  0.00     0.014 C 
HETATM   31  C14 UNL     1      17.563   0.585  28.673  1.00  0.00     0.042 C 
HETATM   32  C15 UNL     1      18.335  -0.053  29.838  1.00  0.00     0.212 C 
HETATM   33  C16 UNL     1      19.599  -0.505  29.153  1.00  0.00     0.149 C 
HETATM   34  C17 UNL     1      19.238  -0.714  27.680  1.00  0.00     0.040 C 
BRANCH  32  35
HETATM   35  N7  UNL     1      17.560  -1.141  30.377  1.00  0.00    -0.073 N 
ATOM     36  H73 UNL     1      18.055  -1.639  31.118  1.00  0.00     0.274 HD
ATOM     37  H72 UNL     1      16.766  -0.816  30.928  1.00  0.00     0.274 HD
ATOM     38  H71 UNL     1      17.277  -1.759  29.616  1.00  0.00     0.274 HD
ENDBRANCH  32  35
BRANCH  33  39
HETATM   39  O4  UNL     1      20.523   0.550  29.266  1.00  0.00    -0.393 OA
ATOM     40  H4  UNL     1      20.172   1.278  28.768  1.00  0.00     0.210 HD
ENDBRANCH  33  39
ENDBRANCH   4  30
ENDBRANCH   3   4
TORSDOF 15
ENDMDL
