MODEL 1
REMARK VINA RESULT: -5.465887603      0.000      0.000
REMARK  15 active torsions:
REMARK  status: ('A' for Active; 'I' for Inactive)
REMARK    1  A    between atoms: N5_15  and  C6_16 
REMARK    2  A    between atoms: C6_16  and  C7_17 
REMARK    3  A    between atoms: C7_17  and  N6_18 
REMARK    4  A    between atoms: C7_17  and  O1_22 
REMARK    5  A    between atoms: C8_25  and  C9_26 
REMARK    6  A    between atoms: C9_26  and  O2_27 
REMARK    7  A    between atoms: C10_29  and  O3_30 
REMARK    8  A    between atoms: C10_29  and  C11_32 
REMARK    9  A    between atoms: C11_32  and  C12_33 
REMARK   10  A    between atoms: C12_33  and  O4_34 
REMARK   11  A    between atoms: C12_33  and  O5_36 
REMARK   12  A    between atoms: O5_36  and  N7_37 
REMARK   13  A    between atoms: N7_37  and  N8_38 
REMARK   14  A    between atoms: C13_41  and  O6_42 
REMARK   15  A    between atoms: C13_41  and  O7_44 
ROOT
HETATM    1  C6  UNL     1      33.784   8.673  10.445  1.00  0.00     0.199 C 
HETATM    2  S1  UNL     1      34.714   9.290   8.982  1.00  0.00    -0.117 SA
HETATM    3  C8  UNL     1      33.222   9.884   8.072  1.00  0.00     0.113 C 
HETATM    4  C10 UNL     1      32.365  10.223   9.227  1.00  0.00     0.136 C 
HETATM    5  C13 UNL     1      32.370   9.092  10.205  1.00  0.00     0.234 C 
ENDROOT
BRANCH   1   6
HETATM    6  N5  UNL     1      34.378   9.183  11.643  1.00  0.00    -0.299 N 
HETATM    7  C3  UNL     1      35.237  10.224  11.698  1.00  0.00     0.142 A 
HETATM    8  N3  UNL     1      35.750  11.020  10.752  1.00  0.00    -0.336 N 
HETATM    9  C4  UNL     1      35.575  10.401  12.999  1.00  0.00     0.122 A 
HETATM   10  C2  UNL     1      36.600  11.995  11.108  1.00  0.00     0.183 A 
ATOM     11  H3  UNL     1      35.498  10.887   9.773  1.00  0.00     0.168 HD
HETATM   12  N2  UNL     1      36.953  12.194  12.391  1.00  0.00    -0.337 N 
HETATM   13  C1  UNL     1      36.465  11.422  13.369  1.00  0.00     0.131 A 
ATOM     14  H2  UNL     1      37.602  12.946  12.622  1.00  0.00     0.168 HD
HETATM   15  N1  UNL     1      36.787  11.590  14.614  1.00  0.00    -0.383 N 
ATOM     16  H12 UNL     1      37.433  12.332  14.882  1.00  0.00     0.157 HD
ATOM     17  H11 UNL     1      36.415  11.002  15.359  1.00  0.00     0.157 HD
HETATM   18  N4  UNL     1      34.925   9.476  13.726  1.00  0.00    -0.346 N 
HETATM   19  C5  UNL     1      34.192   8.734  12.876  1.00  0.00     0.187 A 
ATOM     20  H4  UNL     1      34.977   9.358  14.737  1.00  0.00     0.167 HD
ENDBRANCH   1   6
BRANCH   1  21
HETATM   21  C7  UNL     1      33.955   7.170  10.431  1.00  0.00     0.361 C 
BRANCH  21  22
HETATM   22  N6  UNL     1      35.273   6.723  10.768  1.00  0.00    -0.050 N 
ATOM     23  H63 UNL     1      35.832   6.594   9.925  1.00  0.00     0.277 HD
ATOM     24  H62 UNL     1      35.801   7.475  11.213  1.00  0.00     0.277 HD
ATOM     25  H61 UNL     1      35.297   5.882  11.344  1.00  0.00     0.277 HD
ENDBRANCH  21  22
BRANCH  21  26
HETATM   26  O1  UNL     1      33.695   6.660   9.137  1.00  0.00    -0.367 OA
ATOM     27  H1  UNL     1      33.043   5.969   9.180  1.00  0.00     0.212 HD
ENDBRANCH  21  26
ENDBRANCH   1  21
BRANCH   5  28
HETATM   28  O6  UNL     1      31.883   9.631  11.409  1.00  0.00    -0.360 OA
ATOM     29  H6  UNL     1      31.208   9.044  11.729  1.00  0.00     0.213 HD
ENDBRANCH   5  28
BRANCH   5  30
HETATM   30  O7  UNL     1      31.509   8.050   9.879  1.00  0.00    -0.360 OA
ATOM     31  H7  UNL     1      30.807   8.292   9.285  1.00  0.00     0.213 HD
ENDBRANCH   5  30
BRANCH   3  32
HETATM   32  C9  UNL     1      32.784   8.777   7.186  1.00  0.00     0.182 C 
BRANCH  32  33
HETATM   33  O2  UNL     1      32.576   9.120   5.855  1.00  0.00    -0.400 OA
ATOM     34  H2  UNL     1      33.179   8.731   5.232  1.00  0.00     0.209 HD
ENDBRANCH  32  33
ENDBRANCH   3  32
BRANCH   4  35
HETATM   35  O3  UNL     1      33.016  11.323   9.860  1.00  0.00    -0.383 OA
ATOM     36  H3  UNL     1      32.317  11.926  10.085  1.00  0.00     0.210 HD
ENDBRANCH   4  35
BRANCH   4  37
HETATM   37  C11 UNL     1      30.969  10.614   8.919  1.00  0.00     0.107 C 
BRANCH  37  38
HETATM   38  C12 UNL     1      30.489  11.886   9.510  1.00  0.00     0.285 C 
BRANCH  38  39
HETATM   39  O4  UNL     1      29.109  11.923   9.713  1.00  0.00    -0.369 OA
ATOM     40  H4  UNL     1      28.727  12.782   9.577  1.00  0.00     0.212 HD
ENDBRANCH  38  39
BRANCH  38  41
HETATM   41  O5  UNL     1      30.755  12.906   8.567  1.00  0.00    -0.234 OA
BRANCH  41  42
HETATM   42  N7  UNL     1      31.517  13.884   9.089  1.00  0.00     0.016 NA
BRANCH  42  43
HETATM   43  N8  UNL     1      31.329  13.847  10.482  1.00  0.00    -0.323 N 
ATOM     44  H82 UNL     1      30.692  13.228  10.983  1.00  0.00     0.174 HD
ATOM     45  H81 UNL     1      31.948  14.553  10.882  1.00  0.00     0.174 HD
ENDBRANCH  42  43
ENDBRANCH  41  42
ENDBRANCH  38  41
ENDBRANCH  37  38
ENDBRANCH   4  37
TORSDOF 15
ENDMDL
MODEL 2
REMARK VINA RESULT: -5.354258064      2.516      3.769
REMARK  15 active torsions:
REMARK  status: ('A' for Active; 'I' for Inactive)
REMARK    1  A    between atoms: N5_15  and  C6_16 
REMARK    2  A    between atoms: C6_16  and  C7_17 
REMARK    3  A    between atoms: C7_17  and  N6_18 
REMARK    4  A    between atoms: C7_17  and  O1_22 
REMARK    5  A    between atoms: C8_25  and  C9_26 
REMARK    6  A    between atoms: C9_26  and  O2_27 
REMARK    7  A    between atoms: C10_29  and  O3_30 
REMARK    8  A    between atoms: C10_29  and  C11_32 
REMARK    9  A    between atoms: C11_32  and  C12_33 
REMARK   10  A    between atoms: C12_33  and  O4_34 
REMARK   11  A    between atoms: C12_33  and  O5_36 
REMARK   12  A    between atoms: O5_36  and  N7_37 
REMARK   13  A    between atoms: N7_37  and  N8_38 
REMARK   14  A    between atoms: C13_41  and  O6_42 
REMARK   15  A    between atoms: C13_41  and  O7_44 
ROOT
HETATM    1  C6  UNL     1      34.104  11.544  11.438  1.00  0.00     0.199 C 
HETATM    2  S1  UNL     1      33.481  10.759   9.895  1.00  0.00    -0.117 SA
HETATM    3  C8  UNL     1      31.859  11.639   9.901  1.00  0.00     0.113 C 
HETATM    4  C10 UNL     1      32.273  12.887  10.575  1.00  0.00     0.136 C 
HETATM    5  C13 UNL     1      33.067  12.558  11.798  1.00  0.00     0.234 C 
ENDROOT
BRANCH   1   6
HETATM    6  N5  UNL     1      35.418  12.067  11.216  1.00  0.00    -0.299 N 
HETATM    7  C3  UNL     1      36.206  12.611  12.168  1.00  0.00     0.142 A 
HETATM    8  N3  UNL     1      36.026  12.813  13.479  1.00  0.00    -0.336 N 
HETATM    9  C4  UNL     1      37.362  12.987  11.569  1.00  0.00     0.122 A 
HETATM   10  C2  UNL     1      37.005  13.390  14.192  1.00  0.00     0.183 A 
ATOM     11  H3  UNL     1      35.156  12.532  13.931  1.00  0.00     0.168 HD
HETATM   12  N2  UNL     1      38.164  13.773  13.625  1.00  0.00    -0.337 N 
HETATM   13  C1  UNL     1      38.385  13.591  12.318  1.00  0.00     0.131 A 
ATOM     14  H2  UNL     1      38.884  14.209  14.200  1.00  0.00     0.168 HD
HETATM   15  N1  UNL     1      39.491  13.950  11.744  1.00  0.00    -0.383 N 
ATOM     16  H12 UNL     1      40.235  14.389  12.288  1.00  0.00     0.157 HD
ATOM     17  H11 UNL     1      39.661  13.811  10.748  1.00  0.00     0.157 HD
HETATM   18  N4  UNL     1      37.276  12.672  10.266  1.00  0.00    -0.346 N 
HETATM   19  C5  UNL     1      36.073  12.106  10.064  1.00  0.00     0.187 A 
ATOM     20  H4  UNL     1      37.993  12.832   9.558  1.00  0.00     0.167 HD
ENDBRANCH   1   6
BRANCH   1  21
HETATM   21  C7  UNL     1      34.201  10.426  12.453  1.00  0.00     0.361 C 
BRANCH  21  22
HETATM   22  N6  UNL     1      35.358   9.596  12.306  1.00  0.00    -0.050 N 
ATOM     23  H63 UNL     1      35.872   9.847  11.462  1.00  0.00     0.277 HD
ATOM     24  H62 UNL     1      36.057   9.831  13.011  1.00  0.00     0.277 HD
ATOM     25  H61 UNL     1      35.161   8.595  12.319  1.00  0.00     0.277 HD
ENDBRANCH  21  22
BRANCH  21  26
HETATM   26  O1  UNL     1      33.088   9.560  12.334  1.00  0.00    -0.367 OA
ATOM     27  H1  UNL     1      32.745   9.347  13.194  1.00  0.00     0.212 HD
ENDBRANCH  21  26
ENDBRANCH   1  21
BRANCH   5  28
HETATM   28  O6  UNL     1      33.741  13.743  12.142  1.00  0.00    -0.360 OA
ATOM     29  H6  UNL     1      33.263  14.464  11.749  1.00  0.00     0.213 HD
ENDBRANCH   5  28
BRANCH   5  30
HETATM   30  O7  UNL     1      32.296  12.223  12.906  1.00  0.00    -0.360 OA
ATOM     31  H7  UNL     1      32.792  11.883  13.642  1.00  0.00     0.213 HD
ENDBRANCH   5  30
BRANCH   3  32
HETATM   32  C9  UNL     1      30.891  10.762  10.605  1.00  0.00     0.182 C 
BRANCH  32  33
HETATM   33  O2  UNL     1      31.115   9.396  10.476  1.00  0.00    -0.400 OA
ATOM     34  H2  UNL     1      30.454   8.916   9.992  1.00  0.00     0.209 HD
ENDBRANCH  32  33
ENDBRANCH   3  32
BRANCH   4  35
HETATM   35  O3  UNL     1      33.165  13.522   9.659  1.00  0.00    -0.383 OA
ATOM     36  H3  UNL     1      33.997  13.565  10.116  1.00  0.00     0.210 HD
ENDBRANCH   4  35
BRANCH   4  37
HETATM   37  C11 UNL     1      31.192  13.841  10.918  1.00  0.00     0.107 C 
BRANCH  37  38
HETATM   38  C12 UNL     1      31.305  15.207  10.352  1.00  0.00     0.285 C 
BRANCH  38  39
HETATM   39  O4  UNL     1      31.715  15.227   9.019  1.00  0.00    -0.369 OA
ATOM     40  H4  UNL     1      31.709  16.095   8.632  1.00  0.00     0.212 HD
ENDBRANCH  38  39
BRANCH  38  41
HETATM   41  O5  UNL     1      32.332  15.867  11.069  1.00  0.00    -0.234 OA
BRANCH  41  42
HETATM   42  N7  UNL     1      33.253  16.400  10.246  1.00  0.00     0.016 NA
BRANCH  42  43
HETATM   43  N8  UNL     1      34.513  16.060  10.769  1.00  0.00    -0.323 N 
ATOM     44  H82 UNL     1      35.249  15.557  10.273  1.00  0.00     0.174 HD
ATOM     45  H81 UNL     1      34.540  16.411  11.726  1.00  0.00     0.174 HD
ENDBRANCH  42  43
ENDBRANCH  41  42
ENDBRANCH  38  41
ENDBRANCH  37  38
ENDBRANCH   4  37
TORSDOF 15
ENDMDL
MODEL 3
REMARK VINA RESULT: -5.295283114      2.628      4.169
REMARK  15 active torsions:
REMARK  status: ('A' for Active; 'I' for Inactive)
REMARK    1  A    between atoms: N5_15  and  C6_16 
REMARK    2  A    between atoms: C6_16  and  C7_17 
REMARK    3  A    between atoms: C7_17  and  N6_18 
REMARK    4  A    between atoms: C7_17  and  O1_22 
REMARK    5  A    between atoms: C8_25  and  C9_26 
REMARK    6  A    between atoms: C9_26  and  O2_27 
REMARK    7  A    between atoms: C10_29  and  O3_30 
REMARK    8  A    between atoms: C10_29  and  C11_32 
REMARK    9  A    between atoms: C11_32  and  C12_33 
REMARK   10  A    between atoms: C12_33  and  O4_34 
REMARK   11  A    between atoms: C12_33  and  O5_36 
REMARK   12  A    between atoms: O5_36  and  N7_37 
REMARK   13  A    between atoms: N7_37  and  N8_38 
REMARK   14  A    between atoms: C13_41  and  O6_42 
REMARK   15  A    between atoms: C13_41  and  O7_44 
ROOT
HETATM    1  C6  UNL     1      32.995  11.352  11.078  1.00  0.00     0.199 C 
HETATM    2  S1  UNL     1      31.880  10.862   9.698  1.00  0.00    -0.117 SA
HETATM    3  C8  UNL     1      30.638  12.192  10.005  1.00  0.00     0.113 C 
HETATM    4  C10 UNL     1      31.535  13.224  10.565  1.00  0.00     0.136 C 
HETATM    5  C13 UNL     1      32.406  12.616  11.615  1.00  0.00     0.234 C 
ENDROOT
BRANCH   1   6
HETATM    6  N5  UNL     1      34.338  11.461  10.596  1.00  0.00    -0.299 N 
HETATM    7  C3  UNL     1      34.893  10.658   9.662  1.00  0.00     0.142 A 
HETATM    8  N3  UNL     1      34.413   9.619   8.967  1.00  0.00    -0.336 N 
HETATM    9  C4  UNL     1      36.169  11.075   9.477  1.00  0.00     0.122 A 
HETATM   10  C2  UNL     1      35.211   8.998   8.086  1.00  0.00     0.183 A 
ATOM     11  H3  UNL     1      33.453   9.304   9.106  1.00  0.00     0.168 HD
HETATM   12  N2  UNL     1      36.482   9.389   7.881  1.00  0.00    -0.337 N 
HETATM   13  C1  UNL     1      37.003  10.422   8.554  1.00  0.00     0.131 A 
ATOM     14  H2  UNL     1      37.058   8.891   7.203  1.00  0.00     0.168 HD
HETATM   15  N1  UNL     1      38.224  10.822   8.379  1.00  0.00    -0.383 N 
ATOM     16  H12 UNL     1      38.829  10.348   7.708  1.00  0.00     0.157 HD
ATOM     17  H11 UNL     1      38.620  11.609   8.891  1.00  0.00     0.157 HD
HETATM   18  N4  UNL     1      36.386  12.121  10.292  1.00  0.00    -0.346 N 
HETATM   19  C5  UNL     1      35.249  12.346  10.974  1.00  0.00     0.187 A 
ATOM     20  H4  UNL     1      37.255  12.649  10.378  1.00  0.00     0.167 HD
ENDBRANCH   1   6
BRANCH   1  21
HETATM   21  C7  UNL     1      32.936  10.214  12.072  1.00  0.00     0.361 C 
BRANCH  21  22
HETATM   22  N6  UNL     1      34.170   9.960  12.752  1.00  0.00    -0.050 N 
ATOM     23  H63 UNL     1      34.961  10.189  12.150  1.00  0.00     0.277 HD
ATOM     24  H62 UNL     1      34.314  10.642  13.496  1.00  0.00     0.277 HD
ATOM     25  H61 UNL     1      34.262   9.011  13.115  1.00  0.00     0.277 HD
ENDBRANCH  21  22
BRANCH  21  26
HETATM   26  O1  UNL     1      32.603   9.006  11.414  1.00  0.00    -0.367 OA
ATOM     27  H1  UNL     1      33.012   8.268  11.853  1.00  0.00     0.212 HD
ENDBRANCH  21  26
ENDBRANCH   1  21
BRANCH   5  28
HETATM   28  O6  UNL     1      33.463  13.524  11.803  1.00  0.00    -0.360 OA
ATOM     29  H6  UNL     1      33.972  13.216  12.544  1.00  0.00     0.213 HD
ENDBRANCH   5  28
BRANCH   5  30
HETATM   30  O7  UNL     1      31.795  12.482  12.858  1.00  0.00    -0.360 OA
ATOM     31  H7  UNL     1      30.880  12.738  12.874  1.00  0.00     0.213 HD
ENDBRANCH   5  30
BRANCH   3  32
HETATM   32  C9  UNL     1      29.600  11.619  10.898  1.00  0.00     0.182 C 
BRANCH  32  33
HETATM   33  O2  UNL     1      29.631  10.238  11.046  1.00  0.00    -0.400 OA
ATOM     34  H2  UNL     1      28.877   9.854  11.477  1.00  0.00     0.209 HD
ENDBRANCH  32  33
ENDBRANCH   3  32
BRANCH   4  35
HETATM   35  O3  UNL     1      32.387  13.598   9.483  1.00  0.00    -0.383 OA
ATOM     36  H3  UNL     1      33.270  13.494   9.819  1.00  0.00     0.210 HD
ENDBRANCH   4  35
BRANCH   4  37
HETATM   37  C11 UNL     1      30.884  14.445  11.096  1.00  0.00     0.107 C 
BRANCH  37  38
HETATM   38  C12 UNL     1      31.268  15.731  10.467  1.00  0.00     0.285 C 
BRANCH  38  39
HETATM   39  O4  UNL     1      31.326  15.678   9.075  1.00  0.00    -0.369 OA
ATOM     40  H4  UNL     1      30.991  16.458   8.649  1.00  0.00     0.212 HD
ENDBRANCH  38  39
BRANCH  38  41
HETATM   41  O5  UNL     1      32.589  16.016  10.885  1.00  0.00    -0.234 OA
BRANCH  41  42
HETATM   42  N7  UNL     1      33.335  16.513   9.882  1.00  0.00     0.016 NA
BRANCH  42  43
HETATM   43  N8  UNL     1      34.397  15.614   9.679  1.00  0.00    -0.323 N 
ATOM     44  H82 UNL     1      35.223  15.523  10.271  1.00  0.00     0.174 HD
ATOM     45  H81 UNL     1      34.178  15.083   8.837  1.00  0.00     0.174 HD
ENDBRANCH  42  43
ENDBRANCH  41  42
ENDBRANCH  38  41
ENDBRANCH  37  38
ENDBRANCH   4  37
TORSDOF 15
ENDMDL
MODEL 4
REMARK VINA RESULT: -5.269389096      1.493      1.593
REMARK  15 active torsions:
REMARK  status: ('A' for Active; 'I' for Inactive)
REMARK    1  A    between atoms: N5_15  and  C6_16 
REMARK    2  A    between atoms: C6_16  and  C7_17 
REMARK    3  A    between atoms: C7_17  and  N6_18 
REMARK    4  A    between atoms: C7_17  and  O1_22 
REMARK    5  A    between atoms: C8_25  and  C9_26 
REMARK    6  A    between atoms: C9_26  and  O2_27 
REMARK    7  A    between atoms: C10_29  and  O3_30 
REMARK    8  A    between atoms: C10_29  and  C11_32 
REMARK    9  A    between atoms: C11_32  and  C12_33 
REMARK   10  A    between atoms: C12_33  and  O4_34 
REMARK   11  A    between atoms: C12_33  and  O5_36 
REMARK   12  A    between atoms: O5_36  and  N7_37 
REMARK   13  A    between atoms: N7_37  and  N8_38 
REMARK   14  A    between atoms: C13_41  and  O6_42 
REMARK   15  A    between atoms: C13_41  and  O7_44 
ROOT
HETATM    1  C6  UNL     1      34.370   9.172  10.886  1.00  0.00     0.199 C 
HETATM    2  S1  UNL     1      35.117   9.761   9.311  1.00  0.00    -0.117 SA
HETATM    3  C8  UNL     1      33.514   9.914   8.410  1.00  0.00     0.113 C 
HETATM    4  C10 UNL     1      32.633  10.225   9.554  1.00  0.00     0.136 C 
HETATM    5  C13 UNL     1      32.894   9.262  10.667  1.00  0.00     0.234 C 
ENDROOT
BRANCH   1   6
HETATM    6  N5  UNL     1      34.873   9.948  11.978  1.00  0.00    -0.299 N 
HETATM    7  C3  UNL     1      35.375  11.197  11.873  1.00  0.00     0.142 A 
HETATM    8  N3  UNL     1      35.544  12.015  10.826  1.00  0.00    -0.336 N 
HETATM    9  C4  UNL     1      35.746  11.590  13.116  1.00  0.00     0.122 A 
HETATM   10  C2  UNL     1      36.082  13.228  11.025  1.00  0.00     0.183 A 
ATOM     11  H3  UNL     1      35.267  11.720   9.890  1.00  0.00     0.168 HD
HETATM   12  N2  UNL     1      36.458  13.645  12.247  1.00  0.00    -0.337 N 
HETATM   13  C1  UNL     1      36.309  12.860  13.321  1.00  0.00     0.131 A 
ATOM     14  H2  UNL     1      36.864  14.575  12.358  1.00  0.00     0.168 HD
HETATM   15  N1  UNL     1      36.662  13.235  14.510  1.00  0.00    -0.383 N 
ATOM     16  H12 UNL     1      37.071  14.158  14.659  1.00  0.00     0.157 HD
ATOM     17  H11 UNL     1      36.548  12.637  15.328  1.00  0.00     0.157 HD
HETATM   18  N4  UNL     1      35.469  10.588  13.967  1.00  0.00    -0.346 N 
HETATM   19  C5  UNL     1      34.932   9.584  13.251  1.00  0.00     0.187 A 
ATOM     20  H4  UNL     1      35.636  10.588  14.974  1.00  0.00     0.167 HD
ENDBRANCH   1   6
BRANCH   1  21
HETATM   21  C7  UNL     1      34.846   7.746  11.055  1.00  0.00     0.361 C 
BRANCH  21  22
HETATM   22  N6  UNL     1      34.794   6.962   9.858  1.00  0.00    -0.050 N 
ATOM     23  H63 UNL     1      33.828   6.745   9.617  1.00  0.00     0.277 HD
ATOM     24  H62 UNL     1      35.053   7.528   9.050  1.00  0.00     0.277 HD
ATOM     25  H61 UNL     1      35.354   6.110   9.890  1.00  0.00     0.277 HD
ENDBRANCH  21  22
BRANCH  21  26
HETATM   26  O1  UNL     1      34.036   7.067  11.996  1.00  0.00    -0.367 OA
ATOM     27  H1  UNL     1      34.517   6.926  12.803  1.00  0.00     0.212 HD
ENDBRANCH  21  26
ENDBRANCH   1  21
BRANCH   5  28
HETATM   28  O6  UNL     1      32.335   9.849  11.815  1.00  0.00    -0.360 OA
ATOM     29  H6  UNL     1      31.869   9.166  12.284  1.00  0.00     0.213 HD
ENDBRANCH   5  28
BRANCH   5  30
HETATM   30  O7  UNL     1      32.259   8.033  10.519  1.00  0.00    -0.360 OA
ATOM     31  H7  UNL     1      32.037   7.605  11.338  1.00  0.00     0.213 HD
ENDBRANCH   5  30
BRANCH   3  32
HETATM   32  C9  UNL     1      33.293   8.632   7.695  1.00  0.00     0.182 C 
BRANCH  32  33
HETATM   33  O2  UNL     1      32.456   8.700   6.587  1.00  0.00    -0.400 OA
ATOM     34  H2  UNL     1      31.529   8.786   6.778  1.00  0.00     0.209 HD
ENDBRANCH  32  33
ENDBRANCH   3  32
BRANCH   4  35
HETATM   35  O3  UNL     1      33.058  11.509  10.008  1.00  0.00    -0.383 OA
ATOM     36  H3  UNL     1      33.946  11.603   9.686  1.00  0.00     0.210 HD
ENDBRANCH   4  35
BRANCH   4  37
HETATM   37  C11 UNL     1      31.179  10.282   9.270  1.00  0.00     0.107 C 
BRANCH  37  38
HETATM   38  C12 UNL     1      30.550  11.624   9.291  1.00  0.00     0.285 C 
BRANCH  38  39
HETATM   39  O4  UNL     1      29.204  11.605   9.656  1.00  0.00    -0.369 OA
ATOM     40  H4  UNL     1      28.645  11.161   9.029  1.00  0.00     0.212 HD
ENDBRANCH  38  39
BRANCH  38  41
HETATM   41  O5  UNL     1      30.569  12.111   7.962  1.00  0.00    -0.234 OA
BRANCH  41  42
HETATM   42  N7  UNL     1      30.263  11.149   7.074  1.00  0.00     0.016 NA
BRANCH  42  43
HETATM   43  N8  UNL     1      28.979  11.443   6.580  1.00  0.00    -0.323 N 
ATOM     44  H82 UNL     1      28.513  12.349   6.631  1.00  0.00     0.174 HD
ATOM     45  H81 UNL     1      28.616  10.583   6.169  1.00  0.00     0.174 HD
ENDBRANCH  42  43
ENDBRANCH  41  42
ENDBRANCH  38  41
ENDBRANCH  37  38
ENDBRANCH   4  37
TORSDOF 15
ENDMDL
MODEL 5
REMARK VINA RESULT: -5.267639341      2.415      3.659
REMARK  15 active torsions:
REMARK  status: ('A' for Active; 'I' for Inactive)
REMARK    1  A    between atoms: N5_15  and  C6_16 
REMARK    2  A    between atoms: C6_16  and  C7_17 
REMARK    3  A    between atoms: C7_17  and  N6_18 
REMARK    4  A    between atoms: C7_17  and  O1_22 
REMARK    5  A    between atoms: C8_25  and  C9_26 
REMARK    6  A    between atoms: C9_26  and  O2_27 
REMARK    7  A    between atoms: C10_29  and  O3_30 
REMARK    8  A    between atoms: C10_29  and  C11_32 
REMARK    9  A    between atoms: C11_32  and  C12_33 
REMARK   10  A    between atoms: C12_33  and  O4_34 
REMARK   11  A    between atoms: C12_33  and  O5_36 
REMARK   12  A    between atoms: O5_36  and  N7_37 
REMARK   13  A    between atoms: N7_37  and  N8_38 
REMARK   14  A    between atoms: C13_41  and  O6_42 
REMARK   15  A    between atoms: C13_41  and  O7_44 
ROOT
HETATM    1  C6  UNL     1      34.491  11.421  11.654  1.00  0.00     0.199 C 
HETATM    2  S1  UNL     1      33.990  10.511  10.135  1.00  0.00    -0.117 SA
HETATM    3  C8  UNL     1      32.404  11.427   9.905  1.00  0.00     0.113 C 
HETATM    4  C10 UNL     1      32.795  12.721  10.500  1.00  0.00     0.136 C 
HETATM    5  C13 UNL     1      33.459  12.488  11.819  1.00  0.00     0.234 C 
ENDROOT
BRANCH   1   6
HETATM    6  N5  UNL     1      35.836  11.888  11.514  1.00  0.00    -0.299 N 
HETATM    7  C3  UNL     1      36.547  12.503  12.483  1.00  0.00     0.142 A 
HETATM    8  N3  UNL     1      36.250  12.835  13.746  1.00  0.00    -0.336 N 
HETATM    9  C4  UNL     1      37.767  12.793  11.968  1.00  0.00     0.122 A 
HETATM   10  C2  UNL     1      37.175  13.455  14.493  1.00  0.00     0.183 A 
ATOM     11  H3  UNL     1      35.332  12.619  14.134  1.00  0.00     0.168 HD
HETATM   12  N2  UNL     1      38.394  13.755  14.010  1.00  0.00    -0.337 N 
HETATM   13  C1  UNL     1      38.733  13.442  12.753  1.00  0.00     0.131 A 
ATOM     14  H2  UNL     1      39.071  14.227  14.610  1.00  0.00     0.168 HD
HETATM   15  N1  UNL     1      39.900  13.718  12.260  1.00  0.00    -0.383 N 
ATOM     16  H12 UNL     1      40.602  14.190  12.830  1.00  0.00     0.157 HD
ATOM     17  H11 UNL     1      40.159  13.480  11.303  1.00  0.00     0.157 HD
HETATM   18  N4  UNL     1      37.795  12.356  10.698  1.00  0.00    -0.346 N 
HETATM   19  C5  UNL     1      36.599  11.801  10.433  1.00  0.00     0.187 A 
ATOM     20  H4  UNL     1      38.581  12.431  10.052  1.00  0.00     0.167 HD
ENDBRANCH   1   6
BRANCH   1  21
HETATM   21  C7  UNL     1      34.456  10.400  12.770  1.00  0.00     0.361 C 
BRANCH  21  22
HETATM   22  N6  UNL     1      35.616   9.564  12.841  1.00  0.00    -0.050 N 
ATOM     23  H63 UNL     1      36.464  10.129  12.834  1.00  0.00     0.277 HD
ATOM     24  H62 UNL     1      35.695   9.143  13.767  1.00  0.00     0.277 HD
ATOM     25  H61 UNL     1      35.660   8.845  12.118  1.00  0.00     0.277 HD
ENDBRANCH  21  22
BRANCH  21  26
HETATM   26  O1  UNL     1      33.359   9.523  12.596  1.00  0.00    -0.367 OA
ATOM     27  H1  UNL     1      32.695   9.930  12.052  1.00  0.00     0.212 HD
ENDBRANCH  21  26
ENDBRANCH   1  21
BRANCH   5  28
HETATM   28  O6  UNL     1      34.135  13.683  12.118  1.00  0.00    -0.360 OA
ATOM     29  H6  UNL     1      33.896  14.318  11.453  1.00  0.00     0.213 HD
ENDBRANCH   5  28
BRANCH   5  30
HETATM   30  O7  UNL     1      32.576  12.276  12.873  1.00  0.00    -0.360 OA
ATOM     31  H7  UNL     1      32.988  11.976  13.676  1.00  0.00     0.213 HD
ENDBRANCH   5  30
BRANCH   3  32
HETATM   32  C9  UNL     1      31.346  10.642  10.589  1.00  0.00     0.182 C 
BRANCH  32  33
HETATM   33  O2  UNL     1      31.444   9.261  10.459  1.00  0.00    -0.400 OA
ATOM     34  H2  UNL     1      30.763   8.848   9.941  1.00  0.00     0.209 HD
ENDBRANCH  32  33
ENDBRANCH   3  32
BRANCH   4  35
HETATM   35  O3  UNL     1      33.789  13.246   9.622  1.00  0.00    -0.383 OA
ATOM     36  H3  UNL     1      33.328  13.871   9.075  1.00  0.00     0.210 HD
ENDBRANCH   4  35
BRANCH   4  37
HETATM   37  C11 UNL     1      31.718  13.728  10.651  1.00  0.00     0.107 C 
BRANCH  37  38
HETATM   38  C12 UNL     1      31.828  14.949   9.815  1.00  0.00     0.285 C 
BRANCH  38  39
HETATM   39  O4  UNL     1      30.784  15.854  10.008  1.00  0.00    -0.369 OA
ATOM     40  H4  UNL     1      30.084  15.769   9.371  1.00  0.00     0.212 HD
ENDBRANCH  38  39
BRANCH  38  41
HETATM   41  O5  UNL     1      31.720  14.536   8.466  1.00  0.00    -0.234 OA
BRANCH  41  42
HETATM   42  N7  UNL     1      32.462  15.304   7.648  1.00  0.00     0.016 NA
BRANCH  42  43
HETATM   43  N8  UNL     1      33.333  16.048   8.464  1.00  0.00    -0.323 N 
ATOM     44  H82 UNL     1      33.340  17.063   8.560  1.00  0.00     0.174 HD
ATOM     45  H81 UNL     1      33.943  15.378   8.932  1.00  0.00     0.174 HD
ENDBRANCH  42  43
ENDBRANCH  41  42
ENDBRANCH  38  41
ENDBRANCH  37  38
ENDBRANCH   4  37
TORSDOF 15
ENDMDL
