MODEL 1
REMARK VINA RESULT: -6.733229614      0.000      0.000
REMARK  13 active torsions:
REMARK  status: ('A' for Active; 'I' for Inactive)
REMARK    1  A    between atoms: C3_4  and  N2_5 
REMARK    2  A    between atoms: C6_10  and  N4_11 
REMARK    3  A    between atoms: C7_16  and  N6_17 
REMARK    4  A    between atoms: C9_24  and  C10_25 
REMARK    5  A    between atoms: C10_25  and  O2_26 
REMARK    6  A    between atoms: C10_25  and  C11_28 
REMARK    7  A    between atoms: C11_28  and  O3_29 
REMARK    8  A    between atoms: C11_28  and  C12_31 
REMARK    9  A    between atoms: C12_31  and  O4_32 
REMARK   10  A    between atoms: C12_31  and  C13_34 
REMARK   11  A    between atoms: C13_34  and  O5_35 
REMARK   12  A    between atoms: N8_37  and  O6_38 
REMARK   13  A    between atoms: O6_38  and  N9_39 
ROOT
HETATM    1  N1  UNL     1      35.561   9.505   8.792  1.00  0.00    -0.190 NA
HETATM    2  C1  UNL     1      34.528   9.605   9.295  1.00  0.00     0.124 C 
HETATM    3  C2  UNL     1      33.238   9.735   9.932  1.00  0.00     0.193 C 
HETATM    4  C3  UNL     1      33.054   9.991  11.238  1.00  0.00     0.194 C 
HETATM    5  O1  UNL     1      31.660  10.035  11.424  1.00  0.00    -0.302 OA
HETATM    6  C9  UNL     1      31.048  10.332  10.168  1.00  0.00     0.293 C 
HETATM    7  N8  UNL     1      31.979   9.614   9.281  1.00  0.00    -0.188 N 
ENDROOT
BRANCH   4   8
HETATM    8  N2  UNL     1      34.054  10.181  12.231  1.00  0.00    -0.269 N 
HETATM    9  C4  UNL     1      34.489   9.314  13.154  1.00  0.00     0.193 A 
HETATM   10  N3  UNL     1      35.445   9.915  13.884  1.00  0.00    -0.346 N 
HETATM   11  C5  UNL     1      35.606  11.155  13.418  1.00  0.00     0.123 A 
ATOM     12  H3  UNL     1      35.958   9.496  14.660  1.00  0.00     0.167 HD
HETATM   13  C6  UNL     1      36.431  12.197  13.776  1.00  0.00     0.145 A 
HETATM   14  C8  UNL     1      34.736  11.340  12.373  1.00  0.00     0.161 A 
HETATM   15  N5  UNL     1      36.397  13.378  13.127  1.00  0.00    -0.175 N 
HETATM   16  C7  UNL     1      35.534  13.540  12.104  1.00  0.00     0.679 A 
ATOM     17  H5  UNL     1      37.015  14.140  13.407  1.00  0.00     0.186 HD
HETATM   18  N7  UNL     1      34.719  12.536  11.737  1.00  0.00    -0.174 N 
ATOM     19  H7  UNL     1      34.073  12.678  10.960  1.00  0.00     0.186 HD
BRANCH  13  20
HETATM   20  N4  UNL     1      37.271  12.095  14.744  1.00  0.00    -0.383 N 
ATOM     21  H42 UNL     1      37.200  11.259  15.325  1.00  0.00     0.157 HD
ATOM     22  H41 UNL     1      37.974  12.812  14.925  1.00  0.00     0.157 HD
ENDBRANCH  13  20
BRANCH  16  23
HETATM   23  N6  UNL     1      35.450  14.645  11.439  1.00  0.00    -0.234 N 
ATOM     24  H62 UNL     1      35.326  15.504  11.974  1.00  0.00     0.174 HD
ATOM     25  H61 UNL     1      35.502  14.675  10.422  1.00  0.00     0.174 HD
ENDBRANCH  16  23
ENDBRANCH   4   8
BRANCH   7  26
HETATM   26  O6  UNL     1      31.720   8.978   8.118  1.00  0.00    -0.140 OA
BRANCH  26  27
HETATM   27  N9  UNL     1      31.786   9.771   7.054  1.00  0.00     0.049 NA
HETATM   28  N10 UNL     1      30.470  10.028   6.580  1.00  0.00     0.010 NA
HETATM   29  N11 UNL     1      30.556   8.822   5.873  1.00  0.00     0.002 NA
HETATM   30  N12 UNL     1      31.963   9.011   5.878  1.00  0.00     0.010 NA
ENDBRANCH  26  27
ENDBRANCH   7  26
BRANCH   6  31
HETATM   31  C10 UNL     1      31.088  11.796   9.889  1.00  0.00     0.201 C 
BRANCH  31  32
HETATM   32  O2  UNL     1      30.890  12.010   8.518  1.00  0.00    -0.388 OA
ATOM     33  H2  UNL     1      30.972  12.938   8.331  1.00  0.00     0.210 HD
ENDBRANCH  31  32
BRANCH  31  34
HETATM   34  C11 UNL     1      30.205  12.648  10.732  1.00  0.00     0.182 C 
BRANCH  34  35
HETATM   35  O3  UNL     1      29.436  11.757  11.517  1.00  0.00    -0.390 OA
ATOM     36  H3  UNL     1      28.662  12.241  11.781  1.00  0.00     0.210 HD
ENDBRANCH  34  35
BRANCH  34  37
HETATM   37  C12 UNL     1      30.893  13.572  11.678  1.00  0.00     0.173 C 
BRANCH  37  38
HETATM   38  O4  UNL     1      31.752  12.964  12.568  1.00  0.00    -0.391 OA
ATOM     39  H4  UNL     1      32.232  13.556  13.134  1.00  0.00     0.210 HD
ENDBRANCH  37  38
BRANCH  37  40
HETATM   40  C13 UNL     1      31.671  14.583  10.856  1.00  0.00     0.198 C 
BRANCH  40  41
HETATM   41  O5  UNL     1      30.731  15.312  10.118  1.00  0.00    -0.398 OA
ATOM     42  H5  UNL     1      31.188  15.663   9.363  1.00  0.00     0.209 HD
ENDBRANCH  40  41
ENDBRANCH  37  40
ENDBRANCH  34  37
ENDBRANCH  31  34
ENDBRANCH   6  31
TORSDOF 13
ENDMDL
MODEL 2
REMARK VINA RESULT: -6.464461522      1.699      2.346
REMARK  13 active torsions:
REMARK  status: ('A' for Active; 'I' for Inactive)
REMARK    1  A    between atoms: C3_4  and  N2_5 
REMARK    2  A    between atoms: C6_10  and  N4_11 
REMARK    3  A    between atoms: C7_16  and  N6_17 
REMARK    4  A    between atoms: C9_24  and  C10_25 
REMARK    5  A    between atoms: C10_25  and  O2_26 
REMARK    6  A    between atoms: C10_25  and  C11_28 
REMARK    7  A    between atoms: C11_28  and  O3_29 
REMARK    8  A    between atoms: C11_28  and  C12_31 
REMARK    9  A    between atoms: C12_31  and  O4_32 
REMARK   10  A    between atoms: C12_31  and  C13_34 
REMARK   11  A    between atoms: C13_34  and  O5_35 
REMARK   12  A    between atoms: N8_37  and  O6_38 
REMARK   13  A    between atoms: O6_38  and  N9_39 
ROOT
HETATM    1  N1  UNL     1      34.007   9.081   7.521  1.00  0.00    -0.190 NA
HETATM    2  C1  UNL     1      33.254   9.477   8.298  1.00  0.00     0.124 C 
HETATM    3  C2  UNL     1      32.317   9.973   9.279  1.00  0.00     0.193 C 
HETATM    4  C3  UNL     1      32.441   9.805  10.607  1.00  0.00     0.194 C 
HETATM    5  O1  UNL     1      31.322  10.440  11.176  1.00  0.00    -0.302 OA
HETATM    6  C9  UNL     1      30.840  11.415  10.251  1.00  0.00     0.293 C 
HETATM    7  N8  UNL     1      31.133  10.707   8.993  1.00  0.00    -0.188 N 
ENDROOT
BRANCH   4   8
HETATM    8  N2  UNL     1      33.483   9.128  11.299  1.00  0.00    -0.269 N 
HETATM    9  C4  UNL     1      33.833   7.838  11.226  1.00  0.00     0.193 A 
HETATM   10  N3  UNL     1      34.874   7.633  12.052  1.00  0.00    -0.346 N 
HETATM   11  C5  UNL     1      35.172   8.794  12.640  1.00  0.00     0.123 A 
ATOM     12  H3  UNL     1      35.352   6.744  12.203  1.00  0.00     0.167 HD
HETATM   13  C6  UNL     1      36.127   9.166  13.558  1.00  0.00     0.145 A 
HETATM   14  C8  UNL     1      34.304   9.749  12.175  1.00  0.00     0.161 A 
HETATM   15  N5  UNL     1      36.220  10.436  14.003  1.00  0.00    -0.175 N 
HETATM   16  C7  UNL     1      35.357  11.360  13.535  1.00  0.00     0.679 A 
ATOM     17  H5  UNL     1      36.933  10.694  14.684  1.00  0.00     0.186 HD
HETATM   18  N7  UNL     1      34.416  11.018  12.637  1.00  0.00    -0.174 N 
ATOM     19  H7  UNL     1      33.772  11.731  12.296  1.00  0.00     0.186 HD
BRANCH  13  20
HETATM   20  N4  UNL     1      36.974   8.325  14.036  1.00  0.00    -0.383 N 
ATOM     21  H42 UNL     1      36.613   7.641  14.702  1.00  0.00     0.157 HD
ATOM     22  H41 UNL     1      37.957   8.337  13.764  1.00  0.00     0.157 HD
ENDBRANCH  13  20
BRANCH  16  23
HETATM   23  N6  UNL     1      35.390  12.593  13.918  1.00  0.00    -0.234 N 
ATOM     24  H62 UNL     1      34.679  12.896  14.583  1.00  0.00     0.174 HD
ATOM     25  H61 UNL     1      36.091  13.251  13.579  1.00  0.00     0.174 HD
ENDBRANCH  16  23
ENDBRANCH   4   8
BRANCH   7  26
HETATM   26  O6  UNL     1      30.449  10.730   7.830  1.00  0.00    -0.140 OA
BRANCH  26  27
HETATM   27  N9  UNL     1      29.877  11.903   7.573  1.00  0.00     0.049 NA
HETATM   28  N10 UNL     1      28.908  11.736   6.547  1.00  0.00     0.010 NA
HETATM   29  N11 UNL     1      29.952  11.876   5.624  1.00  0.00     0.002 NA
HETATM   30  N12 UNL     1      30.628  12.625   6.623  1.00  0.00     0.010 NA
ENDBRANCH  26  27
ENDBRANCH   7  26
BRANCH   6  31
HETATM   31  C10 UNL     1      31.637  12.673  10.338  1.00  0.00     0.201 C 
BRANCH  31  32
HETATM   32  O2  UNL     1      31.424  13.435   9.182  1.00  0.00    -0.388 OA
ATOM     33  H2  UNL     1      31.696  14.331   9.343  1.00  0.00     0.210 HD
ENDBRANCH  31  32
BRANCH  31  34
HETATM   34  C11 UNL     1      31.470  13.469  11.585  1.00  0.00     0.182 C 
BRANCH  34  35
HETATM   35  O3  UNL     1      32.317  12.872  12.547  1.00  0.00    -0.390 OA
ATOM     36  H3  UNL     1      32.709  12.119  12.121  1.00  0.00     0.210 HD
ENDBRANCH  34  35
BRANCH  34  37
HETATM   37  C12 UNL     1      31.858  14.906  11.502  1.00  0.00     0.173 C 
BRANCH  37  38
HETATM   38  O4  UNL     1      32.876  15.186  10.617  1.00  0.00    -0.391 OA
ATOM     39  H4  UNL     1      33.370  14.432  10.318  1.00  0.00     0.210 HD
ENDBRANCH  37  38
BRANCH  37  40
HETATM   40  C13 UNL     1      30.626  15.698  11.103  1.00  0.00     0.198 C 
BRANCH  40  41
HETATM   41  O5  UNL     1      30.888  16.244   9.841  1.00  0.00    -0.398 OA
ATOM     42  H5  UNL     1      30.859  15.526   9.221  1.00  0.00     0.209 HD
ENDBRANCH  40  41
ENDBRANCH  37  40
ENDBRANCH  34  37
ENDBRANCH  31  34
ENDBRANCH   6  31
TORSDOF 13
ENDMDL
MODEL 3
REMARK VINA RESULT: -6.463698919      1.841      2.700
REMARK  13 active torsions:
REMARK  status: ('A' for Active; 'I' for Inactive)
REMARK    1  A    between atoms: C3_4  and  N2_5 
REMARK    2  A    between atoms: C6_10  and  N4_11 
REMARK    3  A    between atoms: C7_16  and  N6_17 
REMARK    4  A    between atoms: C9_24  and  C10_25 
REMARK    5  A    between atoms: C10_25  and  O2_26 
REMARK    6  A    between atoms: C10_25  and  C11_28 
REMARK    7  A    between atoms: C11_28  and  O3_29 
REMARK    8  A    between atoms: C11_28  and  C12_31 
REMARK    9  A    between atoms: C12_31  and  O4_32 
REMARK   10  A    between atoms: C12_31  and  C13_34 
REMARK   11  A    between atoms: C13_34  and  O5_35 
REMARK   12  A    between atoms: N8_37  and  O6_38 
REMARK   13  A    between atoms: O6_38  and  N9_39 
ROOT
HETATM    1  N1  UNL     1      32.805   8.747   7.947  1.00  0.00    -0.190 NA
HETATM    2  C1  UNL     1      32.413   9.497   8.729  1.00  0.00     0.124 C 
HETATM    3  C2  UNL     1      31.929  10.436   9.714  1.00  0.00     0.193 C 
HETATM    4  C3  UNL     1      32.406  10.543  10.966  1.00  0.00     0.194 C 
HETATM    5  O1  UNL     1      31.658  11.570  11.571  1.00  0.00    -0.302 OA
HETATM    6  C9  UNL     1      31.128  12.406  10.542  1.00  0.00     0.293 C 
HETATM    7  N8  UNL     1      30.886  11.381   9.512  1.00  0.00    -0.188 N 
ENDROOT
BRANCH   4   8
HETATM    8  N2  UNL     1      33.448   9.781  11.562  1.00  0.00    -0.269 N 
HETATM    9  C4  UNL     1      33.704   8.473  11.434  1.00  0.00     0.193 A 
HETATM   10  N3  UNL     1      34.788   8.178  12.174  1.00  0.00    -0.346 N 
HETATM   11  C5  UNL     1      35.207   9.301  12.762  1.00  0.00     0.123 A 
ATOM     12  H3  UNL     1      35.215   7.257  12.269  1.00  0.00     0.167 HD
HETATM   13  C6  UNL     1      36.251   9.586  13.611  1.00  0.00     0.145 A 
HETATM   14  C8  UNL     1      34.373  10.323  12.385  1.00  0.00     0.161 A 
HETATM   15  N5  UNL     1      36.463  10.834  14.075  1.00  0.00    -0.175 N 
HETATM   16  C7  UNL     1      35.632  11.825  13.694  1.00  0.00     0.679 A 
ATOM     17  H5  UNL     1      37.242  11.027  14.704  1.00  0.00     0.186 HD
HETATM   18  N7  UNL     1      34.606  11.569  12.864  1.00  0.00    -0.174 N 
ATOM     19  H7  UNL     1      33.987  12.332  12.588  1.00  0.00     0.186 HD
BRANCH  13  20
HETATM   20  N4  UNL     1      37.073   8.678  14.005  1.00  0.00    -0.383 N 
ATOM     21  H42 UNL     1      36.681   7.915  14.557  1.00  0.00     0.157 HD
ATOM     22  H41 UNL     1      38.067   8.716  13.778  1.00  0.00     0.157 HD
ENDBRANCH  13  20
BRANCH  16  23
HETATM   23  N6  UNL     1      35.778  13.043  14.099  1.00  0.00    -0.234 N 
ATOM     24  H62 UNL     1      36.619  13.261  14.633  1.00  0.00     0.174 HD
ATOM     25  H61 UNL     1      35.089  13.769  13.903  1.00  0.00     0.174 HD
ENDBRANCH  16  23
ENDBRANCH   4   8
BRANCH   7  26
HETATM   26  O6  UNL     1      29.906  11.329   8.584  1.00  0.00    -0.140 OA
BRANCH  26  27
HETATM   27  N9  UNL     1      30.180  12.020   7.483  1.00  0.00     0.049 NA
HETATM   28  N10 UNL     1      28.989  12.184   6.725  1.00  0.00     0.010 NA
HETATM   29  N11 UNL     1      29.239  10.922   6.174  1.00  0.00     0.002 NA
HETATM   30  N12 UNL     1      30.611  11.160   6.450  1.00  0.00     0.010 NA
ENDBRANCH  26  27
ENDBRANCH   7  26
BRANCH   6  31
HETATM   31  C10 UNL     1      32.150  13.385  10.071  1.00  0.00     0.201 C 
BRANCH  31  32
HETATM   32  O2  UNL     1      31.762  13.895   8.826  1.00  0.00    -0.388 OA
ATOM     33  H2  UNL     1      32.163  13.378   8.137  1.00  0.00     0.210 HD
ENDBRANCH  31  32
BRANCH  31  34
HETATM   34  C11 UNL     1      32.522  14.457  11.035  1.00  0.00     0.182 C 
BRANCH  34  35
HETATM   35  O3  UNL     1      33.069  13.798  12.162  1.00  0.00    -0.390 OA
ATOM     36  H3  UNL     1      32.794  12.891  12.094  1.00  0.00     0.210 HD
ENDBRANCH  34  35
BRANCH  34  37
HETATM   37  C12 UNL     1      33.548  15.432  10.567  1.00  0.00     0.173 C 
BRANCH  37  38
HETATM   38  O4  UNL     1      33.737  16.522  11.390  1.00  0.00    -0.391 OA
ATOM     39  H4  UNL     1      33.292  16.476  12.228  1.00  0.00     0.210 HD
ENDBRANCH  37  38
BRANCH  37  40
HETATM   40  C13 UNL     1      34.864  14.690  10.424  1.00  0.00     0.198 C 
BRANCH  40  41
HETATM   41  O5  UNL     1      35.575  14.895  11.611  1.00  0.00    -0.398 OA
ATOM     42  H5  UNL     1      36.445  15.184  11.364  1.00  0.00     0.209 HD
ENDBRANCH  40  41
ENDBRANCH  37  40
ENDBRANCH  34  37
ENDBRANCH  31  34
ENDBRANCH   6  31
TORSDOF 13
ENDMDL
MODEL 4
REMARK VINA RESULT: -6.331246357      1.444      1.826
REMARK  13 active torsions:
REMARK  status: ('A' for Active; 'I' for Inactive)
REMARK    1  A    between atoms: C3_4  and  N2_5 
REMARK    2  A    between atoms: C6_10  and  N4_11 
REMARK    3  A    between atoms: C7_16  and  N6_17 
REMARK    4  A    between atoms: C9_24  and  C10_25 
REMARK    5  A    between atoms: C10_25  and  O2_26 
REMARK    6  A    between atoms: C10_25  and  C11_28 
REMARK    7  A    between atoms: C11_28  and  O3_29 
REMARK    8  A    between atoms: C11_28  and  C12_31 
REMARK    9  A    between atoms: C12_31  and  O4_32 
REMARK   10  A    between atoms: C12_31  and  C13_34 
REMARK   11  A    between atoms: C13_34  and  O5_35 
REMARK   12  A    between atoms: N8_37  and  O6_38 
REMARK   13  A    between atoms: O6_38  and  N9_39 
ROOT
HETATM    1  N1  UNL     1      35.378   8.788   7.789  1.00  0.00    -0.190 NA
HETATM    2  C1  UNL     1      34.609   9.025   8.614  1.00  0.00     0.124 C 
HETATM    3  C2  UNL     1      33.652   9.325   9.653  1.00  0.00     0.193 C 
HETATM    4  C3  UNL     1      33.943   9.392  10.964  1.00  0.00     0.194 C 
HETATM    5  O1  UNL     1      32.732   9.706  11.607  1.00  0.00    -0.302 OA
HETATM    6  C9  UNL     1      31.871  10.338  10.659  1.00  0.00     0.293 C 
HETATM    7  N8  UNL     1      32.270   9.593   9.452  1.00  0.00    -0.188 N 
ENDROOT
BRANCH   4   8
HETATM    8  N2  UNL     1      35.209   9.187  11.579  1.00  0.00    -0.269 N 
HETATM    9  C4  UNL     1      36.060   8.166  11.419  1.00  0.00     0.193 A 
HETATM   10  N3  UNL     1      37.136   8.385  12.196  1.00  0.00    -0.346 N 
HETATM   11  C5  UNL     1      36.956   9.541  12.839  1.00  0.00     0.123 A 
ATOM     12  H3  UNL     1      37.949   7.774  12.279  1.00  0.00     0.167 HD
HETATM   13  C6  UNL     1      37.718  10.244  13.744  1.00  0.00     0.145 A 
HETATM   14  C8  UNL     1      35.744  10.061  12.461  1.00  0.00     0.161 A 
HETATM   15  N5  UNL     1      37.299  11.417  14.258  1.00  0.00    -0.175 N 
HETATM   16  C7  UNL     1      36.104  11.912  13.874  1.00  0.00     0.679 A 
ATOM     17  H5  UNL     1      37.876  11.925  14.928  1.00  0.00     0.186 HD
HETATM   18  N7  UNL     1      35.343  11.242  12.991  1.00  0.00    -0.174 N 
ATOM     19  H7  UNL     1      34.443  11.632  12.714  1.00  0.00     0.186 HD
BRANCH  13  20
HETATM   20  N4  UNL     1      38.864   9.817  14.143  1.00  0.00    -0.383 N 
ATOM     21  H42 UNL     1      39.175   8.922  13.764  1.00  0.00     0.157 HD
ATOM     22  H41 UNL     1      39.435  10.344  14.803  1.00  0.00     0.157 HD
ENDBRANCH  13  20
BRANCH  16  23
HETATM   23  N6  UNL     1      35.642  13.030  14.327  1.00  0.00    -0.234 N 
ATOM     24  H62 UNL     1      34.662  13.241  14.141  1.00  0.00     0.174 HD
ATOM     25  H61 UNL     1      36.220  13.688  14.849  1.00  0.00     0.174 HD
ENDBRANCH  16  23
ENDBRANCH   4   8
BRANCH   7  26
HETATM   26  O6  UNL     1      31.516   9.234   8.390  1.00  0.00    -0.140 OA
BRANCH  26  27
HETATM   27  N9  UNL     1      31.665  10.034   7.339  1.00  0.00     0.049 NA
HETATM   28  N10 UNL     1      30.384  10.407   6.849  1.00  0.00     0.010 NA
HETATM   29  N11 UNL     1      30.380   9.209   6.125  1.00  0.00     0.002 NA
HETATM   30  N12 UNL     1      31.798   9.279   6.155  1.00  0.00     0.010 NA
ENDBRANCH  26  27
ENDBRANCH   7  26
BRANCH   6  31
HETATM   31  C10 UNL     1      32.206  11.783  10.513  1.00  0.00     0.201 C 
BRANCH  31  32
HETATM   32  O2  UNL     1      31.665  12.264   9.313  1.00  0.00    -0.388 OA
ATOM     33  H2  UNL     1      30.726  12.365   9.411  1.00  0.00     0.210 HD
ENDBRANCH  31  32
BRANCH  31  34
HETATM   34  C11 UNL     1      31.875  12.653  11.675  1.00  0.00     0.182 C 
BRANCH  34  35
HETATM   35  O3  UNL     1      32.751  12.264  12.716  1.00  0.00    -0.390 OA
ATOM     36  H3  UNL     1      32.298  12.462  13.528  1.00  0.00     0.210 HD
ENDBRANCH  34  35
BRANCH  34  37
HETATM   37  C12 UNL     1      32.067  14.117  11.475  1.00  0.00     0.173 C 
BRANCH  37  38
HETATM   38  O4  UNL     1      32.817  14.463  10.372  1.00  0.00    -0.391 OA
ATOM     39  H4  UNL     1      33.044  15.383  10.311  1.00  0.00     0.210 HD
ENDBRANCH  37  38
BRANCH  37  40
HETATM   40  C13 UNL     1      30.694  14.754  11.356  1.00  0.00     0.198 C 
BRANCH  40  41
HETATM   41  O5  UNL     1      30.393  14.814   9.991  1.00  0.00    -0.398 OA
ATOM     42  H5  UNL     1      29.854  15.585   9.863  1.00  0.00     0.209 HD
ENDBRANCH  40  41
ENDBRANCH  37  40
ENDBRANCH  34  37
ENDBRANCH  31  34
ENDBRANCH   6  31
TORSDOF 13
ENDMDL
MODEL 5
REMARK VINA RESULT: -6.326847862      2.061      4.403
REMARK  13 active torsions:
REMARK  status: ('A' for Active; 'I' for Inactive)
REMARK    1  A    between atoms: C3_4  and  N2_5 
REMARK    2  A    between atoms: C6_10  and  N4_11 
REMARK    3  A    between atoms: C7_16  and  N6_17 
REMARK    4  A    between atoms: C9_24  and  C10_25 
REMARK    5  A    between atoms: C10_25  and  O2_26 
REMARK    6  A    between atoms: C10_25  and  C11_28 
REMARK    7  A    between atoms: C11_28  and  O3_29 
REMARK    8  A    between atoms: C11_28  and  C12_31 
REMARK    9  A    between atoms: C12_31  and  O4_32 
REMARK   10  A    between atoms: C12_31  and  C13_34 
REMARK   11  A    between atoms: C13_34  and  O5_35 
REMARK   12  A    between atoms: N8_37  and  O6_38 
REMARK   13  A    between atoms: O6_38  and  N9_39 
ROOT
HETATM    1  N1  UNL     1      30.556  13.500  11.451  1.00  0.00    -0.190 NA
HETATM    2  C1  UNL     1      31.192  12.741  10.860  1.00  0.00     0.124 C 
HETATM    3  C2  UNL     1      31.995  11.792  10.126  1.00  0.00     0.193 C 
HETATM    4  C3  UNL     1      33.329  11.673  10.236  1.00  0.00     0.194 C 
HETATM    5  O1  UNL     1      33.694  10.640   9.354  1.00  0.00    -0.302 OA
HETATM    6  C9  UNL     1      32.550   9.813   9.135  1.00  0.00     0.293 C 
HETATM    7  N8  UNL     1      31.503  10.847   9.183  1.00  0.00    -0.188 N 
ENDROOT
BRANCH   4   8
HETATM    8  N2  UNL     1      34.198  12.431  11.070  1.00  0.00    -0.269 N 
HETATM    9  C4  UNL     1      34.533  13.724  10.971  1.00  0.00     0.193 A 
HETATM   10  N3  UNL     1      35.380  14.021  11.971  1.00  0.00    -0.346 N 
HETATM   11  C5  UNL     1      35.575  12.914  12.693  1.00  0.00     0.123 A 
ATOM     12  H3  UNL     1      35.802  14.933  12.148  1.00  0.00     0.167 HD
HETATM   13  C6  UNL     1      36.329  12.639  13.810  1.00  0.00     0.145 A 
HETATM   14  C8  UNL     1      34.835  11.901  12.138  1.00  0.00     0.161 A 
HETATM   15  N5  UNL     1      36.354  11.407  14.359  1.00  0.00    -0.175 N 
HETATM   16  C7  UNL     1      35.621  10.425  13.798  1.00  0.00     0.679 A 
ATOM     17  H5  UNL     1      36.920  11.222  15.187  1.00  0.00     0.186 HD
HETATM   18  N7  UNL     1      34.876  10.672  12.707  1.00  0.00    -0.174 N 
ATOM     19  H7  UNL     1      34.329   9.915  12.296  1.00  0.00     0.186 HD
BRANCH  13  20
HETATM   20  N4  UNL     1      37.046  13.540  14.384  1.00  0.00    -0.383 N 
ATOM     21  H42 UNL     1      37.363  14.313  13.798  1.00  0.00     0.157 HD
ATOM     22  H41 UNL     1      37.287  13.487  15.374  1.00  0.00     0.157 HD
ENDBRANCH  13  20
BRANCH  16  23
HETATM   23  N6  UNL     1      35.598   9.224  14.272  1.00  0.00    -0.234 N 
ATOM     24  H62 UNL     1      34.778   8.950  14.815  1.00  0.00     0.174 HD
ATOM     25  H61 UNL     1      36.359   8.563  14.121  1.00  0.00     0.174 HD
ENDBRANCH  16  23
ENDBRANCH   4   8
BRANCH   7  26
HETATM   26  O6  UNL     1      30.340  10.908   8.499  1.00  0.00    -0.140 OA
BRANCH  26  27
HETATM   27  N9  UNL     1      30.348  11.807   7.520  1.00  0.00     0.049 NA
HETATM   28  N10 UNL     1      29.024  11.976   7.031  1.00  0.00     0.010 NA
HETATM   29  N11 UNL     1      29.250  10.863   6.212  1.00  0.00     0.002 NA
HETATM   30  N12 UNL     1      30.629  11.191   6.282  1.00  0.00     0.010 NA
ENDBRANCH  26  27
ENDBRANCH   7  26
BRANCH   6  31
HETATM   31  C10 UNL     1      32.373   8.840  10.251  1.00  0.00     0.201 C 
BRANCH  31  32
HETATM   32  O2  UNL     1      31.531   7.802   9.829  1.00  0.00    -0.388 OA
ATOM     33  H2  UNL     1      30.634   8.016  10.056  1.00  0.00     0.210 HD
ENDBRANCH  31  32
BRANCH  31  34
HETATM   34  C11 UNL     1      33.622   8.338  10.887  1.00  0.00     0.182 C 
BRANCH  34  35
HETATM   35  O3  UNL     1      33.363   8.294  12.277  1.00  0.00    -0.390 OA
ATOM     36  H3  UNL     1      33.592   9.153  12.614  1.00  0.00     0.210 HD
ENDBRANCH  34  35
BRANCH  34  37
HETATM   37  C12 UNL     1      34.058   6.970  10.487  1.00  0.00     0.173 C 
BRANCH  37  38
HETATM   38  O4  UNL     1      34.031   6.721   9.132  1.00  0.00    -0.391 OA
ATOM     39  H4  UNL     1      34.757   7.086   8.640  1.00  0.00     0.210 HD
ENDBRANCH  37  38
BRANCH  37  40
HETATM   40  C13 UNL     1      35.473   6.766  10.997  1.00  0.00     0.198 C 
BRANCH  40  41
HETATM   41  O5  UNL     1      35.954   8.025  11.371  1.00  0.00    -0.398 OA
ATOM     42  H5  UNL     1      36.895   8.008  11.246  1.00  0.00     0.209 HD
ENDBRANCH  40  41
ENDBRANCH  37  40
ENDBRANCH  34  37
ENDBRANCH  31  34
ENDBRANCH   6  31
TORSDOF 13
ENDMDL
