MODEL 1
REMARK VINA RESULT: -8.314630845      0.000      0.000
REMARK  6 active torsions:
REMARK  status: ('A' for Active; 'I' for Inactive)
REMARK    1  A    between atoms: C6_11  and  C7_12 
REMARK    2  A    between atoms: C7_12  and  C8_14 
REMARK       I    between atoms: C8_14  and  N3_16 
REMARK    3  A    between atoms: N3_16  and  C9_18 
REMARK    4  A    between atoms: C9_18  and  C10_19 
REMARK    5  A    between atoms: C10_19  and  N4_20 
REMARK    6  A    between atoms: N4_20  and  C11_22 
ROOT
HETATM    1  C8  UNL     1      62.848  56.557  19.308  1.00  0.00     0.292 C 
HETATM    2  O4  UNL     1      63.124  56.017  20.402  1.00  0.00    -0.264 OA
HETATM    3  N3  UNL     1      62.651  55.748  18.174  1.00  0.00    -0.353 N 
ATOM      4  H3  UNL     1      62.424  56.230  17.305  1.00  0.00     0.162 HD
ENDROOT
BRANCH   1   5
HETATM    5  C7  UNL     1      62.752  58.001  19.287  1.00  0.00     0.256 C 
HETATM    6  O3  UNL     1      63.679  58.663  19.829  1.00  0.00    -0.281 OA
BRANCH   5   7
HETATM    7  C6  UNL     1      61.664  58.740  18.684  1.00  0.00     0.110 A 
HETATM    8  C2  UNL     1      60.499  58.884  19.397  1.00  0.00     0.029 A 
HETATM    9  C1  UNL     1      60.396  58.284  20.739  1.00  0.00     0.069 C 
HETATM   10  N1  UNL     1      59.477  59.566  18.868  1.00  0.00    -0.311 N 
HETATM   11  C3  UNL     1      59.570  60.123  17.626  1.00  0.00     0.329 A 
ATOM     12  H1  UNL     1      58.614  59.672  19.402  1.00  0.00     0.170 HD
HETATM   13  O1  UNL     1      58.585  60.757  17.161  1.00  0.00    -0.246 OA
HETATM   14  N2  UNL     1      60.701  59.989  16.919  1.00  0.00    -0.270 N 
HETATM   15  C4  UNL     1      60.781  60.583  15.613  1.00  0.00     0.164 C 
HETATM   16  C5  UNL     1      61.749  59.315  17.409  1.00  0.00     0.267 A 
HETATM   17  O2  UNL     1      62.833  59.164  16.781  1.00  0.00    -0.267 OA
ENDBRANCH   5   7
ENDBRANCH   1   5
BRANCH   3  18
HETATM   18  C9  UNL     1      62.735  54.315  18.110  1.00  0.00     0.142 C 
BRANCH  18  19
HETATM   19  C10 UNL     1      63.611  53.889  16.973  1.00  0.00     0.142 C 
BRANCH  19  20
HETATM   20  N4  UNL     1      64.991  54.306  17.157  1.00  0.00    -0.360 N 
ATOM     21  H4  UNL     1      65.385  54.339  18.098  1.00  0.00     0.162 HD
BRANCH  20  22
HETATM   22  C11 UNL     1      65.804  54.672  16.044  1.00  0.00     0.188 C 
HETATM   23  N5  UNL     1      67.089  54.662  16.012  1.00  0.00    -0.346 N 
HETATM   24  C12 UNL     1      67.568  55.092  14.721  1.00  0.00     0.259 C 
ATOM     25  H5  UNL     1      67.687  54.389  16.792  1.00  0.00     0.163 HD
HETATM   26  N6  UNL     1      66.464  55.859  14.201  1.00  0.00    -0.119 NA
HETATM   27  N7  UNL     1      65.381  55.120  14.745  1.00  0.00    -0.274 N 
ATOM     28  H7  UNL     1      64.479  54.942  14.301  1.00  0.00     0.185 HD
ENDBRANCH  20  22
ENDBRANCH  19  20
ENDBRANCH  18  19
ENDBRANCH   3  18
TORSDOF 6
ENDMDL
MODEL 2
REMARK VINA RESULT: -8.241220988      3.132      4.674
REMARK  6 active torsions:
REMARK  status: ('A' for Active; 'I' for Inactive)
REMARK    1  A    between atoms: C6_11  and  C7_12 
REMARK    2  A    between atoms: C7_12  and  C8_14 
REMARK       I    between atoms: C8_14  and  N3_16 
REMARK    3  A    between atoms: N3_16  and  C9_18 
REMARK    4  A    between atoms: C9_18  and  C10_19 
REMARK    5  A    between atoms: C10_19  and  N4_20 
REMARK    6  A    between atoms: N4_20  and  C11_22 
ROOT
HETATM    1  C8  UNL     1      60.199  55.406  15.453  1.00  0.00     0.292 C 
HETATM    2  O4  UNL     1      60.398  54.786  14.386  1.00  0.00    -0.264 OA
HETATM    3  N3  UNL     1      60.900  55.022  16.611  1.00  0.00    -0.353 N 
ATOM      4  H3  UNL     1      60.709  55.557  17.458  1.00  0.00     0.162 HD
ENDROOT
BRANCH   1   5
HETATM    5  C7  UNL     1      59.242  56.491  15.421  1.00  0.00     0.256 C 
HETATM    6  O3  UNL     1      58.026  56.202  15.255  1.00  0.00    -0.281 OA
BRANCH   5   7
HETATM    7  C6  UNL     1      59.587  57.889  15.566  1.00  0.00     0.110 A 
HETATM    8  C2  UNL     1      59.573  58.685  14.446  1.00  0.00     0.029 A 
HETATM    9  C1  UNL     1      59.214  58.093  13.145  1.00  0.00     0.069 C 
HETATM   10  N1  UNL     1      59.882  59.983  14.550  1.00  0.00    -0.311 N 
HETATM   11  C3  UNL     1      60.213  60.533  15.753  1.00  0.00     0.329 A 
ATOM     12  H1  UNL     1      59.869  60.570  13.716  1.00  0.00     0.170 HD
HETATM   13  O1  UNL     1      60.499  61.759  15.810  1.00  0.00    -0.246 OA
HETATM   14  N2  UNL     1      60.232  59.768  16.854  1.00  0.00    -0.270 N 
HETATM   15  C4  UNL     1      60.582  60.366  18.112  1.00  0.00     0.164 C 
HETATM   16  C5  UNL     1      59.929  58.465  16.797  1.00  0.00     0.267 A 
HETATM   17  O2  UNL     1      59.932  57.706  17.805  1.00  0.00    -0.267 OA
ENDBRANCH   5   7
ENDBRANCH   1   5
BRANCH   3  18
HETATM   18  C9  UNL     1      61.856  53.956  16.729  1.00  0.00     0.142 C 
BRANCH  18  19
HETATM   19  C10 UNL     1      63.005  54.370  17.596  1.00  0.00     0.142 C 
BRANCH  19  20
HETATM   20  N4  UNL     1      62.563  55.025  18.816  1.00  0.00    -0.360 N 
ATOM     21  H4  UNL     1      61.838  54.588  19.385  1.00  0.00     0.162 HD
BRANCH  20  22
HETATM   22  C11 UNL     1      63.127  56.267  19.230  1.00  0.00     0.188 C 
HETATM   23  N5  UNL     1      63.788  56.472  20.314  1.00  0.00    -0.346 N 
HETATM   24  C12 UNL     1      64.207  57.849  20.399  1.00  0.00     0.259 C 
ATOM     25  H5  UNL     1      63.988  55.759  21.015  1.00  0.00     0.163 HD
HETATM   26  N6  UNL     1      63.271  58.531  19.540  1.00  0.00    -0.119 NA
HETATM   27  N7  UNL     1      63.085  57.533  18.548  1.00  0.00    -0.274 N 
ATOM     28  H7  UNL     1      62.948  57.683  17.548  1.00  0.00     0.185 HD
ENDBRANCH  20  22
ENDBRANCH  19  20
ENDBRANCH  18  19
ENDBRANCH   3  18
TORSDOF 6
ENDMDL
MODEL 3
REMARK VINA RESULT: -8.135896456      2.627      3.754
REMARK  6 active torsions:
REMARK  status: ('A' for Active; 'I' for Inactive)
REMARK    1  A    between atoms: C6_11  and  C7_12 
REMARK    2  A    between atoms: C7_12  and  C8_14 
REMARK       I    between atoms: C8_14  and  N3_16 
REMARK    3  A    between atoms: N3_16  and  C9_18 
REMARK    4  A    between atoms: C9_18  and  C10_19 
REMARK    5  A    between atoms: C10_19  and  N4_20 
REMARK    6  A    between atoms: N4_20  and  C11_22 
ROOT
HETATM    1  C8  UNL     1      60.312  55.468  15.263  1.00  0.00     0.292 C 
HETATM    2  O4  UNL     1      60.393  54.802  14.207  1.00  0.00    -0.264 OA
HETATM    3  N3  UNL     1      61.177  55.167  16.331  1.00  0.00    -0.353 N 
ATOM      4  H3  UNL     1      61.078  55.738  17.170  1.00  0.00     0.162 HD
ENDROOT
BRANCH   1   5
HETATM    5  C7  UNL     1      59.316  56.516  15.310  1.00  0.00     0.256 C 
HETATM    6  O3  UNL     1      58.105  56.187  15.183  1.00  0.00    -0.281 OA
BRANCH   5   7
HETATM    7  C6  UNL     1      59.614  57.920  15.496  1.00  0.00     0.110 A 
HETATM    8  C2  UNL     1      59.612  58.739  14.393  1.00  0.00     0.029 A 
HETATM    9  C1  UNL     1      59.311  58.166  13.069  1.00  0.00     0.069 C 
HETATM   10  N1  UNL     1      59.879  60.043  14.534  1.00  0.00    -0.311 N 
HETATM   11  C3  UNL     1      60.156  60.576  15.758  1.00  0.00     0.329 A 
ATOM     12  H1  UNL     1      59.875  60.647  13.712  1.00  0.00     0.170 HD
HETATM   13  O1  UNL     1      60.404  61.808  15.850  1.00  0.00    -0.246 OA
HETATM   14  N2  UNL     1      60.163  59.788  16.843  1.00  0.00    -0.270 N 
HETATM   15  C4  UNL     1      60.456  60.368  18.124  1.00  0.00     0.164 C 
HETATM   16  C5  UNL     1      59.900  58.478  16.749  1.00  0.00     0.267 A 
HETATM   17  O2  UNL     1      59.894  57.698  17.741  1.00  0.00    -0.267 OA
ENDBRANCH   5   7
ENDBRANCH   1   5
BRANCH   3  18
HETATM   18  C9  UNL     1      62.183  54.142  16.366  1.00  0.00     0.142 C 
BRANCH  18  19
HETATM   19  C10 UNL     1      63.331  54.560  17.232  1.00  0.00     0.142 C 
BRANCH  19  20
HETATM   20  N4  UNL     1      64.555  53.850  16.901  1.00  0.00    -0.360 N 
ATOM     21  H4  UNL     1      64.759  52.961  17.358  1.00  0.00     0.162 HD
BRANCH  20  22
HETATM   22  C11 UNL     1      65.475  54.375  15.947  1.00  0.00     0.188 C 
HETATM   23  N5  UNL     1      66.749  54.458  16.094  1.00  0.00    -0.346 N 
HETATM   24  C12 UNL     1      67.358  55.041  14.923  1.00  0.00     0.259 C 
ATOM     25  H5  UNL     1      67.259  54.154  16.923  1.00  0.00     0.163 HD
HETATM   26  N6  UNL     1      66.273  55.775  14.321  1.00  0.00    -0.119 NA
HETATM   27  N7  UNL     1      65.192  54.915  14.644  1.00  0.00    -0.274 N 
ATOM     28  H7  UNL     1      64.374  54.717  14.066  1.00  0.00     0.185 HD
ENDBRANCH  20  22
ENDBRANCH  19  20
ENDBRANCH  18  19
ENDBRANCH   3  18
TORSDOF 6
ENDMDL
MODEL 4
REMARK VINA RESULT: -8.001909827      2.690      3.899
REMARK  6 active torsions:
REMARK  status: ('A' for Active; 'I' for Inactive)
REMARK    1  A    between atoms: C6_11  and  C7_12 
REMARK    2  A    between atoms: C7_12  and  C8_14 
REMARK       I    between atoms: C8_14  and  N3_16 
REMARK    3  A    between atoms: N3_16  and  C9_18 
REMARK    4  A    between atoms: C9_18  and  C10_19 
REMARK    5  A    between atoms: C10_19  and  N4_20 
REMARK    6  A    between atoms: N4_20  and  C11_22 
ROOT
HETATM    1  C8  UNL     1      60.444  55.505  15.153  1.00  0.00     0.292 C 
HETATM    2  O4  UNL     1      60.249  54.582  14.332  1.00  0.00    -0.264 OA
HETATM    3  N3  UNL     1      61.624  55.502  15.921  1.00  0.00    -0.353 N 
ATOM      4  H3  UNL     1      61.743  56.275  16.575  1.00  0.00     0.162 HD
ENDROOT
BRANCH   1   5
HETATM    5  C7  UNL     1      59.424  56.526  15.259  1.00  0.00     0.256 C 
HETATM    6  O3  UNL     1      58.219  56.169  15.155  1.00  0.00    -0.281 OA
BRANCH   5   7
HETATM    7  C6  UNL     1      59.692  57.931  15.477  1.00  0.00     0.110 A 
HETATM    8  C2  UNL     1      59.637  58.781  14.400  1.00  0.00     0.029 A 
HETATM    9  C1  UNL     1      59.313  58.238  13.068  1.00  0.00     0.069 C 
HETATM   10  N1  UNL     1      59.875  60.086  14.571  1.00  0.00    -0.311 N 
HETATM   11  C3  UNL     1      60.175  60.591  15.802  1.00  0.00     0.329 A 
ATOM     12  H1  UNL     1      59.832  60.714  13.768  1.00  0.00     0.170 HD
HETATM   13  O1  UNL     1      60.394  61.826  15.923  1.00  0.00    -0.246 OA
HETATM   14  N2  UNL     1      60.233  59.773  16.862  1.00  0.00    -0.270 N 
HETATM   15  C4  UNL     1      60.548  60.323  18.151  1.00  0.00     0.164 C 
HETATM   16  C5  UNL     1      60.001  58.460  16.737  1.00  0.00     0.267 A 
HETATM   17  O2  UNL     1      60.043  57.652  17.705  1.00  0.00    -0.267 OA
ENDBRANCH   5   7
ENDBRANCH   1   5
BRANCH   3  18
HETATM   18  C9  UNL     1      62.678  54.526  15.881  1.00  0.00     0.142 C 
BRANCH  18  19
HETATM   19  C10 UNL     1      64.017  55.193  15.955  1.00  0.00     0.142 C 
BRANCH  19  20
HETATM   20  N4  UNL     1      64.923  54.720  14.921  1.00  0.00    -0.360 N 
ATOM     21  H4  UNL     1      64.541  54.297  14.075  1.00  0.00     0.162 HD
BRANCH  20  22
HETATM   22  C11 UNL     1      66.335  54.839  15.071  1.00  0.00     0.188 C 
HETATM   23  N5  UNL     1      67.145  55.347  14.211  1.00  0.00    -0.346 N 
HETATM   24  C12 UNL     1      68.501  55.300  14.703  1.00  0.00     0.259 C 
ATOM     25  H5  UNL     1      66.868  55.730  13.308  1.00  0.00     0.163 HD
HETATM   26  N6  UNL     1      68.460  54.239  15.677  1.00  0.00    -0.119 NA
HETATM   27  N7  UNL     1      67.148  54.428  16.184  1.00  0.00    -0.274 N 
ATOM     28  H7  UNL     1      66.841  54.299  17.149  1.00  0.00     0.185 HD
ENDBRANCH  20  22
ENDBRANCH  19  20
ENDBRANCH  18  19
ENDBRANCH   3  18
TORSDOF 6
ENDMDL
MODEL 5
REMARK VINA RESULT: -7.990157954      1.994      3.816
REMARK  6 active torsions:
REMARK  status: ('A' for Active; 'I' for Inactive)
REMARK    1  A    between atoms: C6_11  and  C7_12 
REMARK    2  A    between atoms: C7_12  and  C8_14 
REMARK       I    between atoms: C8_14  and  N3_16 
REMARK    3  A    between atoms: N3_16  and  C9_18 
REMARK    4  A    between atoms: C9_18  and  C10_19 
REMARK    5  A    between atoms: C10_19  and  N4_20 
REMARK    6  A    between atoms: N4_20  and  C11_22 
ROOT
HETATM    1  C8  UNL     1      63.348  56.781  18.635  1.00  0.00     0.292 C 
HETATM    2  O4  UNL     1      63.740  55.972  19.506  1.00  0.00    -0.264 OA
HETATM    3  N3  UNL     1      63.291  56.368  17.291  1.00  0.00    -0.353 N 
ATOM      4  H3  UNL     1      62.962  57.057  16.617  1.00  0.00     0.162 HD
ENDROOT
BRANCH   1   5
HETATM    5  C7  UNL     1      62.976  58.106  19.081  1.00  0.00     0.256 C 
HETATM    6  O3  UNL     1      63.722  58.678  19.922  1.00  0.00    -0.281 OA
BRANCH   5   7
HETATM    7  C6  UNL     1      61.804  58.823  18.627  1.00  0.00     0.110 A 
HETATM    8  C2  UNL     1      60.651  58.724  19.366  1.00  0.00     0.029 A 
HETATM    9  C1  UNL     1      60.644  57.896  20.585  1.00  0.00     0.069 C 
HETATM   10  N1  UNL     1      59.552  59.380  18.974  1.00  0.00    -0.311 N 
HETATM   11  C3  UNL     1      59.556  60.147  17.847  1.00  0.00     0.329 A 
ATOM     12  H1  UNL     1      58.698  59.304  19.527  1.00  0.00     0.170 HD
HETATM   13  O1  UNL     1      58.500  60.748  17.509  1.00  0.00    -0.246 OA
HETATM   14  N2  UNL     1      60.674  60.252  17.115  1.00  0.00    -0.270 N 
HETATM   15  C4  UNL     1      60.659  61.066  15.931  1.00  0.00     0.164 C 
HETATM   16  C5  UNL     1      61.797  59.614  17.470  1.00  0.00     0.267 A 
HETATM   17  O2  UNL     1      62.872  59.683  16.814  1.00  0.00    -0.267 OA
ENDBRANCH   5   7
ENDBRANCH   1   5
BRANCH   3  18
HETATM   18  C9  UNL     1      63.648  55.078  16.768  1.00  0.00     0.142 C 
BRANCH  18  19
HETATM   19  C10 UNL     1      62.473  54.150  16.805  1.00  0.00     0.142 C 
BRANCH  19  20
HETATM   20  N4  UNL     1      62.449  53.343  18.014  1.00  0.00    -0.360 N 
ATOM     21  H4  UNL     1      63.221  52.704  18.206  1.00  0.00     0.162 HD
BRANCH  20  22
HETATM   22  C11 UNL     1      61.365  53.431  18.935  1.00  0.00     0.188 C 
HETATM   23  N5  UNL     1      61.098  54.435  19.692  1.00  0.00    -0.346 N 
HETATM   24  C12 UNL     1      59.927  54.169  20.492  1.00  0.00     0.259 C 
ATOM     25  H5  UNL     1      61.638  55.299  19.724  1.00  0.00     0.163 HD
HETATM   26  N6  UNL     1      59.867  52.729  20.519  1.00  0.00    -0.119 NA
HETATM   27  N7  UNL     1      60.357  52.444  19.217  1.00  0.00    -0.274 N 
ATOM     28  H7  UNL     1      60.054  51.689  18.602  1.00  0.00     0.185 HD
ENDBRANCH  20  22
ENDBRANCH  19  20
ENDBRANCH  18  19
ENDBRANCH   3  18
TORSDOF 6
ENDMDL
