MODEL 1
REMARK VINA RESULT: -7.645048768      0.000      0.000
REMARK  7 active torsions:
REMARK  status: ('A' for Active; 'I' for Inactive)
REMARK    1  A    between atoms: N1_2  and  C2_4 
REMARK    2  A    between atoms: C4_9  and  N4_10 
REMARK    3  A    between atoms: C5_12  and  C6_13 
REMARK    4  A    between atoms: C6_13  and  N5_14 
REMARK    5  A    between atoms: N5_14  and  C7_16 
REMARK    6  A    between atoms: C7_16  and  C8_17 
REMARK    7  A    between atoms: N7_23  and  N8_24 
ROOT
HETATM    1  N5  UNL     1      63.470  54.085  17.999  1.00  0.00    -0.416 N 
ATOM      2  H5  UNL     1      64.229  54.534  18.512  1.00  0.00     0.153 HD
ENDROOT
BRANCH   1   3
HETATM    3  C6  UNL     1      63.722  53.066  17.053  1.00  0.00     0.158 C 
BRANCH   3   4
HETATM    4  C5  UNL     1      65.033  53.240  16.377  1.00  0.00     0.081 C 
HETATM    5  N4  UNL     1      65.652  54.339  16.524  1.00  0.00    -0.360 N 
ATOM      6  H4  UNL     1      65.219  55.060  17.101  1.00  0.00     0.165 HD
BRANCH   5   7
HETATM    7  C4  UNL     1      66.937  54.626  15.918  1.00  0.00     0.118 A 
HETATM    8  C3  UNL     1      67.151  55.360  14.775  1.00  0.00     0.152 A 
HETATM    9  N2  UNL     1      68.401  55.507  14.384  1.00  0.00    -0.323 N 
HETATM   10  N3  UNL     1      66.016  55.931  14.062  1.00  0.00    -0.080 NA
HETATM   11  C2  UNL     1      69.366  54.950  15.102  1.00  0.00     0.147 A 
ATOM     12  H2  UNL     1      68.622  56.041  13.543  1.00  0.00     0.169 HD
HETATM   13  S1  UNL     1      68.521  54.190  16.371  1.00  0.00    -0.033 SA
BRANCH  11  14
HETATM   14  N1  UNL     1      70.664  54.990  14.875  1.00  0.00    -0.375 N 
HETATM   15  C1  UNL     1      71.366  53.730  14.805  1.00  0.00     0.148 C 
ATOM     16  H1  UNL     1      71.154  55.877  14.753  1.00  0.00     0.161 HD
ENDBRANCH  11  14
ENDBRANCH   5   7
ENDBRANCH   3   4
ENDBRANCH   1   3
BRANCH   1  17
HETATM   17  C7  UNL     1      62.111  54.457  18.205  1.00  0.00     0.138 C 
BRANCH  17  18
HETATM   18  C8  UNL     1      61.967  55.875  18.664  1.00  0.00     0.189 C 
HETATM   19  C9  UNL     1      61.129  56.724  17.742  1.00  0.00     0.233 C 
HETATM   20  O1  UNL     1      60.620  56.319  16.680  1.00  0.00    -0.273 OA
HETATM   21  N6  UNL     1      60.979  58.080  18.231  1.00  0.00    -0.342 N 
HETATM   22  C10 UNL     1      61.105  58.346  19.640  1.00  0.00     0.276 C 
ATOM     23  H6  UNL     1      60.786  58.842  17.580  1.00  0.00     0.164 HD
HETATM   24  N7  UNL     1      60.849  57.164  20.444  1.00  0.00    -0.249 N 
HETATM   25  C11 UNL     1      61.157  55.868  19.944  1.00  0.00     0.254 C 
HETATM   26  O2  UNL     1      60.799  54.810  20.500  1.00  0.00    -0.271 OA
BRANCH  24  27
HETATM   27  N8  UNL     1      60.303  57.297  21.695  1.00  0.00    -0.339 N 
ATOM     28  H82 UNL     1      60.712  56.793  22.481  1.00  0.00     0.177 HD
ATOM     29  H81 UNL     1      59.491  57.899  21.830  1.00  0.00     0.177 HD
ENDBRANCH  24  27
ENDBRANCH  17  18
ENDBRANCH   1  17
TORSDOF 7
ENDMDL
MODEL 2
REMARK VINA RESULT: -7.615544569      1.230      2.286
REMARK  7 active torsions:
REMARK  status: ('A' for Active; 'I' for Inactive)
REMARK    1  A    between atoms: N1_2  and  C2_4 
REMARK    2  A    between atoms: C4_9  and  N4_10 
REMARK    3  A    between atoms: C5_12  and  C6_13 
REMARK    4  A    between atoms: C6_13  and  N5_14 
REMARK    5  A    between atoms: N5_14  and  C7_16 
REMARK    6  A    between atoms: C7_16  and  C8_17 
REMARK    7  A    between atoms: N7_23  and  N8_24 
ROOT
HETATM    1  N5  UNL     1      63.397  54.191  18.068  1.00  0.00    -0.416 N 
ATOM      2  H5  UNL     1      64.131  54.720  18.540  1.00  0.00     0.153 HD
ENDROOT
BRANCH   1   3
HETATM    3  C6  UNL     1      63.703  53.116  17.205  1.00  0.00     0.158 C 
BRANCH   3   4
HETATM    4  C5  UNL     1      65.051  53.252  16.595  1.00  0.00     0.081 C 
HETATM    5  N4  UNL     1      65.549  54.414  16.475  1.00  0.00    -0.360 N 
ATOM      6  H4  UNL     1      65.000  55.209  16.801  1.00  0.00     0.165 HD
BRANCH   5   7
HETATM    7  C4  UNL     1      66.855  54.674  15.900  1.00  0.00     0.118 A 
HETATM    8  C3  UNL     1      67.110  55.384  14.750  1.00  0.00     0.152 A 
HETATM    9  N2  UNL     1      68.372  55.509  14.392  1.00  0.00    -0.323 N 
HETATM   10  N3  UNL     1      66.002  55.957  13.997  1.00  0.00    -0.080 NA
HETATM   11  C2  UNL     1      69.309  54.954  15.146  1.00  0.00     0.147 A 
ATOM     12  H2  UNL     1      68.622  56.026  13.549  1.00  0.00     0.169 HD
HETATM   13  S1  UNL     1      68.419  54.227  16.405  1.00  0.00    -0.033 SA
BRANCH  11  14
HETATM   14  N1  UNL     1      70.613  54.974  14.955  1.00  0.00    -0.375 N 
HETATM   15  C1  UNL     1      71.282  53.703  14.794  1.00  0.00     0.148 C 
ATOM     16  H1  UNL     1      71.131  55.852  14.922  1.00  0.00     0.161 HD
ENDBRANCH  11  14
ENDBRANCH   5   7
ENDBRANCH   3   4
ENDBRANCH   1   3
BRANCH   1  17
HETATM   17  C7  UNL     1      62.020  54.505  18.251  1.00  0.00     0.138 C 
BRANCH  17  18
HETATM   18  C8  UNL     1      61.788  55.968  18.473  1.00  0.00     0.189 C 
HETATM   19  C9  UNL     1      62.616  56.546  19.593  1.00  0.00     0.233 C 
HETATM   20  O1  UNL     1      63.401  55.887  20.300  1.00  0.00    -0.273 OA
HETATM   21  N6  UNL     1      62.394  57.968  19.760  1.00  0.00    -0.342 N 
HETATM   22  C10 UNL     1      61.932  58.751  18.645  1.00  0.00     0.276 C 
ATOM     23  H6  UNL     1      62.564  58.411  20.663  1.00  0.00     0.164 HD
HETATM   24  N7  UNL     1      62.242  58.125  17.371  1.00  0.00    -0.249 N 
HETATM   25  C11 UNL     1      62.302  56.709  17.256  1.00  0.00     0.254 C 
HETATM   26  O2  UNL     1      62.738  56.115  16.249  1.00  0.00    -0.271 OA
BRANCH  24  27
HETATM   27  N8  UNL     1      62.483  58.907  16.270  1.00  0.00    -0.339 N 
ATOM     28  H82 UNL     1      63.079  58.556  15.521  1.00  0.00     0.177 HD
ATOM     29  H81 UNL     1      62.065  59.835  16.208  1.00  0.00     0.177 HD
ENDBRANCH  24  27
ENDBRANCH  17  18
ENDBRANCH   1  17
TORSDOF 7
ENDMDL
MODEL 3
REMARK VINA RESULT: -7.526183554      1.806      2.384
REMARK  7 active torsions:
REMARK  status: ('A' for Active; 'I' for Inactive)
REMARK    1  A    between atoms: N1_2  and  C2_4 
REMARK    2  A    between atoms: C4_9  and  N4_10 
REMARK    3  A    between atoms: C5_12  and  C6_13 
REMARK    4  A    between atoms: C6_13  and  N5_14 
REMARK    5  A    between atoms: N5_14  and  C7_16 
REMARK    6  A    between atoms: C7_16  and  C8_17 
REMARK    7  A    between atoms: N7_23  and  N8_24 
ROOT
HETATM    1  N5  UNL     1      63.599  55.374  19.253  1.00  0.00    -0.416 N 
ATOM      2  H5  UNL     1      64.255  55.068  19.972  1.00  0.00     0.153 HD
ENDROOT
BRANCH   1   3
HETATM    3  C6  UNL     1      63.742  54.970  17.906  1.00  0.00     0.158 C 
BRANCH   3   4
HETATM    4  C5  UNL     1      65.084  55.299  17.362  1.00  0.00     0.081 C 
HETATM    5  N4  UNL     1      65.608  54.509  16.518  1.00  0.00    -0.360 N 
ATOM      6  H4  UNL     1      65.085  53.676  16.250  1.00  0.00     0.165 HD
BRANCH   5   7
HETATM    7  C4  UNL     1      66.909  54.723  15.915  1.00  0.00     0.118 A 
HETATM    8  C3  UNL     1      67.159  55.384  14.734  1.00  0.00     0.152 A 
HETATM    9  N2  UNL     1      68.417  55.473  14.353  1.00  0.00    -0.323 N 
HETATM   10  N3  UNL     1      66.049  55.947  13.976  1.00  0.00    -0.080 NA
HETATM   11  C2  UNL     1      69.357  54.930  15.114  1.00  0.00     0.147 A 
ATOM     12  H2  UNL     1      68.664  55.952  13.487  1.00  0.00     0.169 HD
HETATM   13  S1  UNL     1      68.474  54.268  16.413  1.00  0.00    -0.033 SA
BRANCH  11  14
HETATM   14  N1  UNL     1      70.658  54.920  14.904  1.00  0.00    -0.375 N 
HETATM   15  C1  UNL     1      71.304  53.632  14.797  1.00  0.00     0.148 C 
ATOM     16  H1  UNL     1      71.188  55.787  14.819  1.00  0.00     0.161 HD
ENDBRANCH  11  14
ENDBRANCH   5   7
ENDBRANCH   3   4
ENDBRANCH   1   3
BRANCH   1  17
HETATM   17  C7  UNL     1      62.500  56.224  19.562  1.00  0.00     0.138 C 
BRANCH  17  18
HETATM   18  C8  UNL     1      61.977  56.948  18.359  1.00  0.00     0.189 C 
HETATM   19  C9  UNL     1      60.487  57.175  18.393  1.00  0.00     0.233 C 
HETATM   20  O1  UNL     1      59.737  56.783  19.307  1.00  0.00    -0.273 OA
HETATM   21  N6  UNL     1      60.018  57.906  17.234  1.00  0.00    -0.342 N 
HETATM   22  C10 UNL     1      60.923  58.769  16.522  1.00  0.00     0.276 C 
ATOM     23  H6  UNL     1      59.050  57.810  16.924  1.00  0.00     0.164 HD
HETATM   24  N7  UNL     1      62.036  59.197  17.352  1.00  0.00    -0.249 N 
HETATM   25  C11 UNL     1      62.534  58.356  18.386  1.00  0.00     0.254 C 
HETATM   26  O2  UNL     1      63.357  58.731  19.246  1.00  0.00    -0.271 OA
BRANCH  24  27
HETATM   27  N8  UNL     1      62.609  60.425  17.140  1.00  0.00    -0.339 N 
ATOM     28  H82 UNL     1      62.355  60.965  16.313  1.00  0.00     0.177 HD
ATOM     29  H81 UNL     1      63.287  60.789  17.809  1.00  0.00     0.177 HD
ENDBRANCH  24  27
ENDBRANCH  17  18
ENDBRANCH   1  17
TORSDOF 7
ENDMDL
MODEL 4
REMARK VINA RESULT: -7.492182531      1.275      1.849
REMARK  7 active torsions:
REMARK  status: ('A' for Active; 'I' for Inactive)
REMARK    1  A    between atoms: N1_2  and  C2_4 
REMARK    2  A    between atoms: C4_9  and  N4_10 
REMARK    3  A    between atoms: C5_12  and  C6_13 
REMARK    4  A    between atoms: C6_13  and  N5_14 
REMARK    5  A    between atoms: N5_14  and  C7_16 
REMARK    6  A    between atoms: C7_16  and  C8_17 
REMARK    7  A    between atoms: N7_23  and  N8_24 
ROOT
HETATM    1  N5  UNL     1      62.995  54.182  17.198  1.00  0.00    -0.416 N 
ATOM      2  H5  UNL     1      63.089  54.998  16.592  1.00  0.00     0.153 HD
ENDROOT
BRANCH   1   3
HETATM    3  C6  UNL     1      63.690  52.982  16.932  1.00  0.00     0.158 C 
BRANCH   3   4
HETATM    4  C5  UNL     1      64.974  53.223  16.223  1.00  0.00     0.081 C 
HETATM    5  N4  UNL     1      65.667  54.235  16.549  1.00  0.00    -0.360 N 
ATOM      6  H4  UNL     1      65.311  54.845  17.285  1.00  0.00     0.165 HD
BRANCH   5   7
HETATM    7  C4  UNL     1      66.936  54.573  15.934  1.00  0.00     0.118 A 
HETATM    8  C3  UNL     1      67.115  55.355  14.817  1.00  0.00     0.152 A 
HETATM    9  N2  UNL     1      68.354  55.545  14.412  1.00  0.00    -0.323 N 
HETATM   10  N3  UNL     1      65.955  55.930  14.146  1.00  0.00    -0.080 NA
HETATM   11  C2  UNL     1      69.343  54.981  15.091  1.00  0.00     0.147 A 
ATOM     12  H2  UNL     1      68.549  56.116  13.589  1.00  0.00     0.169 HD
HETATM   13  S1  UNL     1      68.536  54.154  16.343  1.00  0.00    -0.033 SA
BRANCH  11  14
HETATM   14  N1  UNL     1      70.636  55.058  14.845  1.00  0.00    -0.375 N 
HETATM   15  C1  UNL     1      71.386  53.824  14.838  1.00  0.00     0.148 C 
ATOM     16  H1  UNL     1      71.089  55.955  14.665  1.00  0.00     0.161 HD
ENDBRANCH  11  14
ENDBRANCH   5   7
ENDBRANCH   3   4
ENDBRANCH   1   3
BRANCH   1  17
HETATM   17  C7  UNL     1      62.156  54.204  18.349  1.00  0.00     0.138 C 
BRANCH  17  18
HETATM   18  C8  UNL     1      61.870  55.595  18.826  1.00  0.00     0.189 C 
HETATM   19  C9  UNL     1      60.998  55.642  20.054  1.00  0.00     0.233 C 
HETATM   20  O1  UNL     1      60.523  54.639  20.620  1.00  0.00    -0.273 OA
HETATM   21  N6  UNL     1      60.768  56.998  20.511  1.00  0.00    -0.342 N 
HETATM   22  C10 UNL     1      61.719  58.028  20.187  1.00  0.00     0.276 C 
ATOM     23  H6  UNL     1      59.936  57.222  21.058  1.00  0.00     0.164 HD
HETATM   24  N7  UNL     1      63.035  57.485  19.896  1.00  0.00    -0.249 N 
HETATM   25  C11 UNL     1      63.172  56.195  19.313  1.00  0.00     0.254 C 
HETATM   26  O2  UNL     1      64.263  55.598  19.207  1.00  0.00    -0.271 OA
BRANCH  24  27
HETATM   27  N8  UNL     1      64.154  58.221  20.189  1.00  0.00    -0.339 N 
ATOM     28  H82 UNL     1      64.519  58.230  21.141  1.00  0.00     0.177 HD
ATOM     29  H81 UNL     1      64.613  58.757  19.452  1.00  0.00     0.177 HD
ENDBRANCH  24  27
ENDBRANCH  17  18
ENDBRANCH   1  17
TORSDOF 7
ENDMDL
MODEL 5
REMARK VINA RESULT: -7.477778929      1.520      2.409
REMARK  7 active torsions:
REMARK  status: ('A' for Active; 'I' for Inactive)
REMARK    1  A    between atoms: N1_2  and  C2_4 
REMARK    2  A    between atoms: C4_9  and  N4_10 
REMARK    3  A    between atoms: C5_12  and  C6_13 
REMARK    4  A    between atoms: C6_13  and  N5_14 
REMARK    5  A    between atoms: N5_14  and  C7_16 
REMARK    6  A    between atoms: C7_16  and  C8_17 
REMARK    7  A    between atoms: N7_23  and  N8_24 
ROOT
HETATM    1  N5  UNL     1      63.551  54.267  18.045  1.00  0.00    -0.416 N 
ATOM      2  H5  UNL     1      64.123  54.334  18.887  1.00  0.00     0.153 HD
ENDROOT
BRANCH   1   3
HETATM    3  C6  UNL     1      63.746  53.234  17.101  1.00  0.00     0.158 C 
BRANCH   3   4
HETATM    4  C5  UNL     1      65.028  53.380  16.367  1.00  0.00     0.081 C 
HETATM    5  N4  UNL     1      65.738  54.411  16.581  1.00  0.00    -0.360 N 
ATOM      6  H4  UNL     1      65.395  55.100  17.250  1.00  0.00     0.165 HD
BRANCH   5   7
HETATM    7  C4  UNL     1      67.008  54.663  15.928  1.00  0.00     0.118 A 
HETATM    8  C3  UNL     1      67.196  55.361  14.757  1.00  0.00     0.152 A 
HETATM    9  N2  UNL     1      68.435  55.481  14.325  1.00  0.00    -0.323 N 
HETATM   10  N3  UNL     1      66.045  55.926  14.063  1.00  0.00    -0.080 NA
HETATM   11  C2  UNL     1      69.414  54.932  15.029  1.00  0.00     0.147 A 
ATOM     12  H2  UNL     1      68.636  55.987  13.463  1.00  0.00     0.169 HD
HETATM   13  S1  UNL     1      68.599  54.220  16.346  1.00  0.00    -0.033 SA
BRANCH  11  14
HETATM   14  N1  UNL     1      70.705  54.949  14.762  1.00  0.00    -0.375 N 
HETATM   15  C1  UNL     1      71.408  53.688  14.797  1.00  0.00     0.148 C 
ATOM     16  H1  UNL     1      71.189  55.819  14.540  1.00  0.00     0.161 HD
ENDBRANCH  11  14
ENDBRANCH   5   7
ENDBRANCH   3   4
ENDBRANCH   1   3
BRANCH   1  17
HETATM   17  C7  UNL     1      62.522  55.212  17.769  1.00  0.00     0.138 C 
BRANCH  17  18
HETATM   18  C8  UNL     1      61.183  54.768  18.273  1.00  0.00     0.189 C 
HETATM   19  C9  UNL     1      60.978  55.024  19.744  1.00  0.00     0.233 C 
HETATM   20  O1  UNL     1      61.834  55.527  20.496  1.00  0.00    -0.273 OA
HETATM   21  N6  UNL     1      59.663  54.616  20.193  1.00  0.00    -0.342 N 
HETATM   22  C10 UNL     1      58.576  54.557  19.252  1.00  0.00     0.276 C 
ATOM     23  H6  UNL     1      59.508  54.371  21.172  1.00  0.00     0.164 HD
HETATM   24  N7  UNL     1      58.809  55.405  18.095  1.00  0.00    -0.249 N 
HETATM   25  C11 UNL     1      60.130  55.645  17.628  1.00  0.00     0.254 C 
HETATM   26  O2  UNL     1      60.413  56.499  16.763  1.00  0.00    -0.271 OA
BRANCH  24  27
HETATM   27  N8  UNL     1      57.745  55.982  17.451  1.00  0.00    -0.339 N 
ATOM     28  H82 UNL     1      57.837  56.266  16.476  1.00  0.00     0.177 HD
ATOM     29  H81 UNL     1      56.868  56.127  17.952  1.00  0.00     0.177 HD
ENDBRANCH  24  27
ENDBRANCH  17  18
ENDBRANCH   1  17
TORSDOF 7
ENDMDL
