MODEL 1
REMARK VINA RESULT: -7.858784773      0.000      0.000
REMARK  9 active torsions:
REMARK  status: ('A' for Active; 'I' for Inactive)
REMARK    1  A    between atoms: O1_2  and  C2_3 
REMARK    2  A    between atoms: C3_6  and  N2_7 
REMARK    3  A    between atoms: N2_7  and  C4_9 
REMARK    4  A    between atoms: C4_9  and  C5_10 
REMARK    5  A    between atoms: C5_10  and  N3_11 
REMARK    6  A    between atoms: N3_11  and  C7_13 
REMARK    7  A    between atoms: C10_20  and  N5_21 
REMARK    8  A    between atoms: C11_26  and  N7_27 
REMARK    9  A    between atoms: N7_27  and  N8_29 
ROOT
HETATM    1  C2  UNL     1      60.504  53.090  18.786  1.00  0.00     0.239 C 
HETATM    2  N1  UNL     1      61.616  53.793  19.126  1.00  0.00    -0.305 N 
ATOM      3  H1  UNL     1      62.514  53.320  19.034  1.00  0.00     0.171 HD
HETATM    4  C3  UNL     1      61.631  55.073  19.578  1.00  0.00     0.149 C 
HETATM    5  C10 UNL     1      60.550  55.830  20.022  1.00  0.00     0.159 C 
HETATM    6  N6  UNL     1      59.289  55.708  19.586  1.00  0.00    -0.172 N 
ATOM      7  H6  UNL     1      58.691  56.508  19.799  1.00  0.00     0.186 HD
HETATM    8  C11 UNL     1      58.669  54.715  18.914  1.00  0.00     0.701 C 
HETATM    9  N9  UNL     1      59.277  53.565  18.520  1.00  0.00    -0.153 N 
ATOM     10  H9  UNL     1      58.707  52.964  17.925  1.00  0.00     0.188 HD
ENDROOT
BRANCH   4  11
HETATM   11  N2  UNL     1      62.772  55.677  19.606  1.00  0.00    -0.372 N 
ATOM     12  H2  UNL     1      63.290  55.717  20.484  1.00  0.00     0.161 HD
BRANCH  11  13
HETATM   13  C4  UNL     1      63.334  56.297  18.426  1.00  0.00     0.141 C 
BRANCH  13  14
HETATM   14  C5  UNL     1      64.545  55.481  17.994  1.00  0.00     0.143 C 
BRANCH  14  15
HETATM   15  N3  UNL     1      64.450  55.082  16.621  1.00  0.00    -0.369 N 
HETATM   16  C6  UNL     1      63.197  54.608  16.027  1.00  0.00     0.151 C 
BRANCH  15  17
HETATM   17  C7  UNL     1      65.560  55.121  15.748  1.00  0.00     0.129 A 
HETATM   18  C8  UNL     1      66.783  54.539  15.962  1.00  0.00     0.134 A 
HETATM   19  C9  UNL     1      67.535  54.848  14.847  1.00  0.00     0.308 A 
HETATM   20  O2  UNL     1      68.729  54.506  14.631  1.00  0.00    -0.258 OA
HETATM   21  O3  UNL     1      66.787  55.565  14.044  1.00  0.00    -0.194 OA
HETATM   22  N4  UNL     1      65.602  55.739  14.568  1.00  0.00    -0.241 N 
ATOM     23  H4  UNL     1      64.835  56.261  14.143  1.00  0.00     0.196 HD
ENDBRANCH  15  17
ENDBRANCH  14  15
ENDBRANCH  13  14
ENDBRANCH  11  13
ENDBRANCH   4  11
BRANCH   5  24
HETATM   24  N5  UNL     1      60.803  56.712  20.925  1.00  0.00    -0.382 N 
ATOM     25  H52 UNL     1      61.427  57.483  20.690  1.00  0.00     0.157 HD
ATOM     26  H51 UNL     1      60.353  56.575  21.831  1.00  0.00     0.157 HD
ENDBRANCH   5  24
BRANCH   1  27
HETATM   27  O1  UNL     1      60.715  51.737  18.720  1.00  0.00    -0.327 OA
HETATM   28  C1  UNL     1      61.570  51.106  17.806  1.00  0.00     0.213 C 
ENDBRANCH   1  27
BRANCH   8  29
HETATM   29  N7  UNL     1      57.419  54.842  18.613  1.00  0.00    -0.138 N 
ATOM     30  H7  UNL     1      57.028  55.763  18.414  1.00  0.00     0.205 HD
BRANCH  29  31
HETATM   31  N8  UNL     1      56.619  53.716  18.565  1.00  0.00    -0.331 N 
ATOM     32  H82 UNL     1      56.903  52.923  17.988  1.00  0.00     0.177 HD
ATOM     33  H81 UNL     1      55.755  53.695  19.108  1.00  0.00     0.177 HD
ENDBRANCH  29  31
ENDBRANCH   8  29
TORSDOF 9
ENDMDL
MODEL 2
REMARK VINA RESULT: -7.752505046      3.552      3.923
REMARK  9 active torsions:
REMARK  status: ('A' for Active; 'I' for Inactive)
REMARK    1  A    between atoms: O1_2  and  C2_3 
REMARK    2  A    between atoms: C3_6  and  N2_7 
REMARK    3  A    between atoms: N2_7  and  C4_9 
REMARK    4  A    between atoms: C4_9  and  C5_10 
REMARK    5  A    between atoms: C5_10  and  N3_11 
REMARK    6  A    between atoms: N3_11  and  C7_13 
REMARK    7  A    between atoms: C10_20  and  N5_21 
REMARK    8  A    between atoms: C11_26  and  N7_27 
REMARK    9  A    between atoms: N7_27  and  N8_29 
ROOT
HETATM    1  C2  UNL     1      60.367  56.325  15.217  1.00  0.00     0.239 C 
HETATM    2  N1  UNL     1      61.260  56.281  16.240  1.00  0.00    -0.305 N 
ATOM      3  H1  UNL     1      61.638  55.367  16.491  1.00  0.00     0.171 HD
HETATM    4  C3  UNL     1      61.692  57.350  16.956  1.00  0.00     0.149 C 
HETATM    5  C10 UNL     1      61.151  58.633  16.978  1.00  0.00     0.159 C 
HETATM    6  N6  UNL     1      60.522  59.225  15.953  1.00  0.00    -0.172 N 
ATOM      7  H6  UNL     1      60.441  60.238  16.038  1.00  0.00     0.186 HD
HETATM    8  C11 UNL     1      59.976  58.717  14.827  1.00  0.00     0.701 C 
HETATM    9  N9  UNL     1      59.979  57.396  14.507  1.00  0.00    -0.153 N 
ATOM     10  H9  UNL     1      59.629  57.184  13.573  1.00  0.00     0.188 HD
ENDROOT
BRANCH   4  11
HETATM   11  N2  UNL     1      62.726  57.178  17.710  1.00  0.00    -0.372 N 
ATOM     12  H2  UNL     1      63.348  57.967  17.886  1.00  0.00     0.161 HD
BRANCH  11  13
HETATM   13  C4  UNL     1      63.026  55.896  18.311  1.00  0.00     0.141 C 
BRANCH  13  14
HETATM   14  C5  UNL     1      64.489  55.576  18.037  1.00  0.00     0.143 C 
BRANCH  14  15
HETATM   15  N3  UNL     1      64.637  54.712  16.903  1.00  0.00    -0.369 N 
HETATM   16  C6  UNL     1      63.764  53.557  16.678  1.00  0.00     0.151 C 
BRANCH  15  17
HETATM   17  C7  UNL     1      65.635  54.921  15.925  1.00  0.00     0.129 A 
HETATM   18  C8  UNL     1      66.917  54.437  15.957  1.00  0.00     0.134 A 
HETATM   19  C9  UNL     1      67.512  54.900  14.800  1.00  0.00     0.308 A 
HETATM   20  O2  UNL     1      68.697  54.687  14.431  1.00  0.00    -0.258 OA
HETATM   21  O3  UNL     1      66.622  55.606  14.147  1.00  0.00    -0.194 OA
HETATM   22  N4  UNL     1      65.493  55.630  14.805  1.00  0.00    -0.241 N 
ATOM     23  H4  UNL     1      64.643  56.111  14.511  1.00  0.00     0.196 HD
ENDBRANCH  15  17
ENDBRANCH  14  15
ENDBRANCH  13  14
ENDBRANCH  11  13
ENDBRANCH   4  11
BRANCH   5  24
HETATM   24  N5  UNL     1      61.274  59.285  18.080  1.00  0.00    -0.382 N 
ATOM     25  H52 UNL     1      60.477  59.320  18.715  1.00  0.00     0.157 HD
ATOM     26  H51 UNL     1      62.178  59.730  18.245  1.00  0.00     0.157 HD
ENDBRANCH   5  24
BRANCH   1  27
HETATM   27  O1  UNL     1      59.826  55.102  14.914  1.00  0.00    -0.327 OA
HETATM   28  C1  UNL     1      60.198  53.893  15.516  1.00  0.00     0.213 C 
ENDBRANCH   1  27
BRANCH   8  29
HETATM   29  N7  UNL     1      59.410  59.516  13.986  1.00  0.00    -0.138 N 
ATOM     30  H7  UNL     1      58.727  59.161  13.316  1.00  0.00     0.205 HD
BRANCH  29  31
HETATM   31  N8  UNL     1      59.740  60.859  14.004  1.00  0.00    -0.331 N 
ATOM     32  H82 UNL     1      60.274  61.254  13.230  1.00  0.00     0.177 HD
ATOM     33  H81 UNL     1      59.442  61.434  14.792  1.00  0.00     0.177 HD
ENDBRANCH  29  31
ENDBRANCH   8  29
TORSDOF 9
ENDMDL
MODEL 3
REMARK VINA RESULT: -7.600287486      3.246      4.642
REMARK  9 active torsions:
REMARK  status: ('A' for Active; 'I' for Inactive)
REMARK    1  A    between atoms: O1_2  and  C2_3 
REMARK    2  A    between atoms: C3_6  and  N2_7 
REMARK    3  A    between atoms: N2_7  and  C4_9 
REMARK    4  A    between atoms: C4_9  and  C5_10 
REMARK    5  A    between atoms: C5_10  and  N3_11 
REMARK    6  A    between atoms: N3_11  and  C7_13 
REMARK    7  A    between atoms: C10_20  and  N5_21 
REMARK    8  A    between atoms: C11_26  and  N7_27 
REMARK    9  A    between atoms: N7_27  and  N8_29 
ROOT
HETATM    1  C2  UNL     1      59.281  56.209  18.095  1.00  0.00     0.239 C 
HETATM    2  N1  UNL     1      59.389  54.910  17.713  1.00  0.00    -0.305 N 
ATOM      3  H1  UNL     1      59.245  54.700  16.726  1.00  0.00     0.171 HD
HETATM    4  C3  UNL     1      59.671  53.868  18.536  1.00  0.00     0.149 C 
HETATM    5  C10 UNL     1      59.657  53.856  19.928  1.00  0.00     0.159 C 
HETATM    6  N6  UNL     1      59.930  54.908  20.714  1.00  0.00    -0.172 N 
ATOM      7  H6  UNL     1      60.148  54.664  21.680  1.00  0.00     0.186 HD
HETATM    8  C11 UNL     1      59.968  56.232  20.451  1.00  0.00     0.701 C 
HETATM    9  N9  UNL     1      59.721  56.774  19.230  1.00  0.00    -0.153 N 
ATOM     10  H9  UNL     1      59.899  57.777  19.166  1.00  0.00     0.188 HD
ENDROOT
BRANCH   4  11
HETATM   11  N2  UNL     1      59.994  52.748  17.982  1.00  0.00    -0.372 N 
ATOM     12  H2  UNL     1      59.442  51.915  18.187  1.00  0.00     0.161 HD
BRANCH  11  13
HETATM   13  C4  UNL     1      61.119  52.642  17.077  1.00  0.00     0.141 C 
BRANCH  13  14
HETATM   14  C5  UNL     1      62.376  53.044  17.837  1.00  0.00     0.143 C 
BRANCH  14  15
HETATM   15  N3  UNL     1      62.845  54.337  17.432  1.00  0.00    -0.369 N 
HETATM   16  C6  UNL     1      63.146  54.661  16.035  1.00  0.00     0.151 C 
BRANCH  15  17
HETATM   17  C7  UNL     1      63.049  55.385  18.357  1.00  0.00     0.129 A 
HETATM   18  C8  UNL     1      63.156  56.719  18.063  1.00  0.00     0.134 A 
HETATM   19  C9  UNL     1      63.348  57.347  19.277  1.00  0.00     0.308 A 
HETATM   20  O2  UNL     1      63.496  58.585  19.465  1.00  0.00    -0.258 OA
HETATM   21  O3  UNL     1      63.351  56.426  20.209  1.00  0.00    -0.194 OA
HETATM   22  N4  UNL     1      63.173  55.246  19.677  1.00  0.00    -0.241 N 
ATOM     23  H4  UNL     1      63.136  54.363  20.188  1.00  0.00     0.196 HD
ENDBRANCH  15  17
ENDBRANCH  14  15
ENDBRANCH  13  14
ENDBRANCH  11  13
ENDBRANCH   4  11
BRANCH   5  24
HETATM   24  N5  UNL     1      59.354  52.737  20.487  1.00  0.00    -0.382 N 
ATOM     25  H52 UNL     1      59.415  51.885  19.931  1.00  0.00     0.157 HD
ATOM     26  H51 UNL     1      59.068  52.782  21.465  1.00  0.00     0.157 HD
ENDBRANCH   5  24
BRANCH   1  27
HETATM   27  O1  UNL     1      58.638  56.996  17.174  1.00  0.00    -0.327 OA
HETATM   28  C1  UNL     1      58.092  56.531  15.970  1.00  0.00     0.213 C 
ENDBRANCH   1  27
BRANCH   8  29
HETATM   29  N7  UNL     1      60.256  57.054  21.404  1.00  0.00    -0.138 N 
ATOM     30  H7  UNL     1      60.164  56.767  22.379  1.00  0.00     0.205 HD
BRANCH  29  31
HETATM   31  N8  UNL     1      60.690  58.328  21.088  1.00  0.00    -0.331 N 
ATOM     32  H82 UNL     1      61.689  58.533  21.094  1.00  0.00     0.177 HD
ATOM     33  H81 UNL     1      60.002  59.045  20.853  1.00  0.00     0.177 HD
ENDBRANCH  29  31
ENDBRANCH   8  29
TORSDOF 9
ENDMDL
MODEL 4
REMARK VINA RESULT: -7.583127535      3.688      4.074
REMARK  9 active torsions:
REMARK  status: ('A' for Active; 'I' for Inactive)
REMARK    1  A    between atoms: O1_2  and  C2_3 
REMARK    2  A    between atoms: C3_6  and  N2_7 
REMARK    3  A    between atoms: N2_7  and  C4_9 
REMARK    4  A    between atoms: C4_9  and  C5_10 
REMARK    5  A    between atoms: C5_10  and  N3_11 
REMARK    6  A    between atoms: N3_11  and  C7_13 
REMARK    7  A    between atoms: C10_20  and  N5_21 
REMARK    8  A    between atoms: C11_26  and  N7_27 
REMARK    9  A    between atoms: N7_27  and  N8_29 
ROOT
HETATM    1  C2  UNL     1      60.246  56.393  15.253  1.00  0.00     0.239 C 
HETATM    2  N1  UNL     1      61.014  56.346  16.373  1.00  0.00    -0.305 N 
ATOM      3  H1  UNL     1      61.359  55.432  16.664  1.00  0.00     0.171 HD
HETATM    4  C3  UNL     1      61.362  57.414  17.135  1.00  0.00     0.149 C 
HETATM    5  C10 UNL     1      60.824  58.697  17.097  1.00  0.00     0.159 C 
HETATM    6  N6  UNL     1      60.319  59.292  16.007  1.00  0.00    -0.172 N 
ATOM      7  H6  UNL     1      60.230  60.305  16.084  1.00  0.00     0.186 HD
HETATM    8  C11 UNL     1      59.906  58.786  14.824  1.00  0.00     0.701 C 
HETATM    9  N9  UNL     1      59.945  57.466  14.505  1.00  0.00    -0.153 N 
ATOM     10  H9  UNL     1      59.705  57.256  13.536  1.00  0.00     0.188 HD
ENDROOT
BRANCH   4  11
HETATM   11  N2  UNL     1      62.301  57.239  18.004  1.00  0.00    -0.372 N 
ATOM     12  H2  UNL     1      62.863  58.039  18.295  1.00  0.00     0.161 HD
BRANCH  11  13
HETATM   13  C4  UNL     1      62.577  55.938  18.576  1.00  0.00     0.141 C 
BRANCH  13  14
HETATM   14  C5  UNL     1      64.057  55.640  18.378  1.00  0.00     0.143 C 
BRANCH  14  15
HETATM   15  N3  UNL     1      64.259  54.568  17.447  1.00  0.00    -0.369 N 
HETATM   16  C6  UNL     1      63.276  53.497  17.259  1.00  0.00     0.151 C 
BRANCH  15  17
HETATM   17  C7  UNL     1      65.421  54.474  16.650  1.00  0.00     0.129 A 
HETATM   18  C8  UNL     1      65.649  55.128  15.466  1.00  0.00     0.134 A 
HETATM   19  C9  UNL     1      66.906  54.724  15.061  1.00  0.00     0.308 A 
HETATM   20  O2  UNL     1      67.508  55.087  14.016  1.00  0.00    -0.258 OA
HETATM   21  O3  UNL     1      67.367  53.889  15.960  1.00  0.00    -0.194 OA
HETATM   22  N4  UNL     1      66.492  53.728  16.917  1.00  0.00    -0.241 N 
ATOM     23  H4  UNL     1      66.610  53.129  17.735  1.00  0.00     0.196 HD
ENDBRANCH  15  17
ENDBRANCH  14  15
ENDBRANCH  13  14
ENDBRANCH  11  13
ENDBRANCH   4  11
BRANCH   5  24
HETATM   24  N5  UNL     1      60.819  59.348  18.207  1.00  0.00    -0.382 N 
ATOM     25  H52 UNL     1      61.538  60.055  18.358  1.00  0.00     0.157 HD
ATOM     26  H51 UNL     1      60.082  59.107  18.870  1.00  0.00     0.157 HD
ENDBRANCH   5  24
BRANCH   1  27
HETATM   27  O1  UNL     1      59.742  55.172  14.887  1.00  0.00    -0.327 OA
HETATM   28  C1  UNL     1      60.161  53.944  15.416  1.00  0.00     0.213 C 
ENDBRANCH   1  27
BRANCH   8  29
HETATM   29  N7  UNL     1      59.443  59.588  13.924  1.00  0.00    -0.138 N 
ATOM     30  H7  UNL     1      58.844  59.234  13.178  1.00  0.00     0.205 HD
BRANCH  29  31
HETATM   31  N8  UNL     1      59.768  60.930  13.984  1.00  0.00    -0.331 N 
ATOM     32  H82 UNL     1      60.298  61.282  14.782  1.00  0.00     0.177 HD
ATOM     33  H81 UNL     1      59.473  61.548  13.228  1.00  0.00     0.177 HD
ENDBRANCH  29  31
ENDBRANCH   8  29
TORSDOF 9
ENDMDL
MODEL 5
REMARK VINA RESULT: -7.565271821      2.334      6.241
REMARK  9 active torsions:
REMARK  status: ('A' for Active; 'I' for Inactive)
REMARK    1  A    between atoms: O1_2  and  C2_3 
REMARK    2  A    between atoms: C3_6  and  N2_7 
REMARK    3  A    between atoms: N2_7  and  C4_9 
REMARK    4  A    between atoms: C4_9  and  C5_10 
REMARK    5  A    between atoms: C5_10  and  N3_11 
REMARK    6  A    between atoms: N3_11  and  C7_13 
REMARK    7  A    between atoms: C10_20  and  N5_21 
REMARK    8  A    between atoms: C11_26  and  N7_27 
REMARK    9  A    between atoms: N7_27  and  N8_29 
ROOT
HETATM    1  C2  UNL     1      64.108  54.315  16.821  1.00  0.00     0.239 C 
HETATM    2  N1  UNL     1      63.053  54.484  15.982  1.00  0.00    -0.305 N 
ATOM      3  H1  UNL     1      62.902  53.768  15.271  1.00  0.00     0.171 HD
HETATM    4  C3  UNL     1      62.183  55.525  16.010  1.00  0.00     0.149 C 
HETATM    5  C10 UNL     1      62.318  56.728  16.698  1.00  0.00     0.159 C 
HETATM    6  N6  UNL     1      62.973  56.886  17.857  1.00  0.00    -0.172 N 
ATOM      7  H6  UNL     1      62.741  57.746  18.356  1.00  0.00     0.186 HD
HETATM    8  C11 UNL     1      63.885  56.110  18.480  1.00  0.00     0.701 C 
HETATM    9  N9  UNL     1      64.329  54.920  17.999  1.00  0.00    -0.153 N 
ATOM     10  H9  UNL     1      64.932  54.400  18.637  1.00  0.00     0.188 HD
ENDROOT
BRANCH   4  11
HETATM   11  N2  UNL     1      61.095  55.405  15.325  1.00  0.00    -0.372 N 
ATOM     12  H2  UNL     1      60.691  56.232  14.886  1.00  0.00     0.161 HD
BRANCH  11  13
HETATM   13  C4  UNL     1      60.433  54.128  15.164  1.00  0.00     0.141 C 
BRANCH  13  14
HETATM   14  C5  UNL     1      59.396  53.991  16.271  1.00  0.00     0.143 C 
BRANCH  14  15
HETATM   15  N3  UNL     1      59.872  53.164  17.341  1.00  0.00    -0.369 N 
HETATM   16  C6  UNL     1      60.229  51.756  17.145  1.00  0.00     0.151 C 
BRANCH  15  17
HETATM   17  C7  UNL     1      60.030  53.655  18.656  1.00  0.00     0.129 A 
HETATM   18  C8  UNL     1      60.195  54.966  19.020  1.00  0.00     0.134 A 
HETATM   19  C9  UNL     1      60.308  54.952  20.396  1.00  0.00     0.308 A 
HETATM   20  O2  UNL     1      60.473  55.953  21.143  1.00  0.00    -0.258 OA
HETATM   21  O3  UNL     1      60.214  53.707  20.794  1.00  0.00    -0.194 OA
HETATM   22  N4  UNL     1      60.048  52.917  19.766  1.00  0.00    -0.241 N 
ATOM     23  H4  UNL     1      59.948  51.902  19.806  1.00  0.00     0.196 HD
ENDBRANCH  15  17
ENDBRANCH  14  15
ENDBRANCH  13  14
ENDBRANCH  11  13
ENDBRANCH   4  11
BRANCH   5  24
HETATM   24  N5  UNL     1      61.764  57.758  16.161  1.00  0.00    -0.382 N 
ATOM     25  H52 UNL     1      61.378  58.476  16.774  1.00  0.00     0.157 HD
ATOM     26  H51 UNL     1      61.751  57.785  15.141  1.00  0.00     0.157 HD
ENDBRANCH   5  24
BRANCH   1  27
HETATM   27  O1  UNL     1      65.028  53.407  16.363  1.00  0.00    -0.327 OA
HETATM   28  C1  UNL     1      66.374  53.371  16.750  1.00  0.00     0.213 C 
ENDBRANCH   1  27
BRANCH   8  29
HETATM   29  N7  UNL     1      64.380  56.501  19.607  1.00  0.00    -0.138 N 
ATOM     30  H7  UNL     1      65.355  56.794  19.668  1.00  0.00     0.205 HD
BRANCH  29  31
HETATM   31  N8  UNL     1      63.572  56.519  20.729  1.00  0.00    -0.331 N 
ATOM     32  H82 UNL     1      63.146  55.651  21.053  1.00  0.00     0.177 HD
ATOM     33  H81 UNL     1      63.416  57.402  21.216  1.00  0.00     0.177 HD
ENDBRANCH  29  31
ENDBRANCH   8  29
TORSDOF 9
ENDMDL
