MODEL 1
REMARK VINA RESULT: -8.048774636      0.000      0.000
REMARK  8 active torsions:
REMARK  status: ('A' for Active; 'I' for Inactive)
REMARK    1  A    between atoms: C1_2  and  N1_3 
REMARK    2  A    between atoms: N1_3  and  O2_4 
REMARK    3  A    between atoms: N1_3  and  C2_6 
REMARK    4  A    between atoms: C3_7  and  C4_8 
REMARK    5  A    between atoms: C4_8  and  C5_9 
REMARK    6  A    between atoms: C6_10  and  O3_11 
REMARK    7  A    between atoms: N5_25  and  C10_26 
REMARK    8  A    between atoms: C10_26  and  O7_27 
ROOT
HETATM    1  C2  UNL     1      63.110  54.060  17.249  1.00  0.00     0.167 A 
HETATM    2  C3  UNL     1      63.896  54.669  16.322  1.00  0.00     0.065 A 
HETATM    3  N4  UNL     1      63.854  56.030  16.500  1.00  0.00    -0.308 N 
ATOM      4  H4  UNL     1      64.342  56.736  15.947  1.00  0.00     0.170 HD
HETATM    5  C9  UNL     1      63.050  56.244  17.536  1.00  0.00     0.330 A 
HETATM    6  O6  UNL     1      62.779  57.382  17.989  1.00  0.00    -0.246 OA
HETATM    7  N5  UNL     1      62.591  55.084  18.005  1.00  0.00    -0.260 N 
ENDROOT
BRANCH   2   8
HETATM    8  C4  UNL     1      64.837  54.119  15.322  1.00  0.00     0.110 C 
BRANCH   8   9
HETATM    9  C5  UNL     1      66.265  54.360  15.654  1.00  0.00     0.067 A 
HETATM   10  C6  UNL     1      66.998  53.697  16.582  1.00  0.00     0.156 A 
HETATM   11  N2  UNL     1      68.309  54.036  16.790  1.00  0.00    -0.288 N 
HETATM   12  C7  UNL     1      68.856  55.029  16.065  1.00  0.00     0.329 A 
ATOM     13  H2  UNL     1      68.865  53.541  17.488  1.00  0.00     0.172 HD
HETATM   14  O4  UNL     1      70.049  55.382  16.212  1.00  0.00    -0.247 OA
HETATM   15  N3  UNL     1      68.128  55.694  15.137  1.00  0.00    -0.275 N 
HETATM   16  C8  UNL     1      66.856  55.406  14.896  1.00  0.00     0.260 A 
ATOM     17  H3  UNL     1      68.573  56.441  14.604  1.00  0.00     0.173 HD
HETATM   18  O5  UNL     1      66.209  56.037  14.032  1.00  0.00    -0.267 OA
BRANCH  10  19
HETATM   19  O3  UNL     1      66.524  52.674  17.365  1.00  0.00    -0.345 OA
ATOM     20  H3  UNL     1      66.698  51.753  17.214  1.00  0.00     0.219 HD
ENDBRANCH  10  19
ENDBRANCH   8   9
ENDBRANCH   2   8
BRANCH   1  21
HETATM   21  N1  UNL     1      62.721  52.714  17.447  1.00  0.00    -0.180 N 
BRANCH  21  22
HETATM   22  C1  UNL     1      61.561  52.057  17.083  1.00  0.00     0.383 C 
HETATM   23  O1  UNL     1      61.351  50.858  17.445  1.00  0.00    -0.281 OA
ENDBRANCH  21  22
BRANCH  21  24
HETATM   24  O2  UNL     1      63.573  51.961  18.084  1.00  0.00    -0.279 OA
ATOM     25  H2  UNL     1      64.462  52.025  17.754  1.00  0.00     0.245 HD
ENDBRANCH  21  24
ENDBRANCH   1  21
BRANCH   7  26
HETATM   26  C10 UNL     1      61.685  54.974  19.110  1.00  0.00     0.302 C 
BRANCH  26  27
HETATM   27  O7  UNL     1      62.338  55.438  20.278  1.00  0.00    -0.382 OA
ATOM     28  H7  UNL     1      61.701  55.881  20.825  1.00  0.00     0.211 HD
ENDBRANCH  26  27
ENDBRANCH   7  26
TORSDOF 8
ENDMDL
MODEL 2
REMARK VINA RESULT: -7.642389911      1.623      1.935
REMARK  8 active torsions:
REMARK  status: ('A' for Active; 'I' for Inactive)
REMARK    1  A    between atoms: C1_2  and  N1_3 
REMARK    2  A    between atoms: N1_3  and  O2_4 
REMARK    3  A    between atoms: N1_3  and  C2_6 
REMARK    4  A    between atoms: C3_7  and  C4_8 
REMARK    5  A    between atoms: C4_8  and  C5_9 
REMARK    6  A    between atoms: C6_10  and  O3_11 
REMARK    7  A    between atoms: N5_25  and  C10_26 
REMARK    8  A    between atoms: C10_26  and  O7_27 
ROOT
HETATM    1  C2  UNL     1      62.004  53.463  18.019  1.00  0.00     0.167 A 
HETATM    2  C3  UNL     1      63.238  53.753  17.529  1.00  0.00     0.065 A 
HETATM    3  N4  UNL     1      63.739  54.867  18.157  1.00  0.00    -0.308 N 
ATOM      4  H4  UNL     1      64.640  55.313  17.988  1.00  0.00     0.170 HD
HETATM    5  C9  UNL     1      62.811  55.246  19.030  1.00  0.00     0.330 A 
HETATM    6  O6  UNL     1      62.929  56.238  19.791  1.00  0.00    -0.246 OA
HETATM    7  N5  UNL     1      61.763  54.425  18.970  1.00  0.00    -0.260 N 
ENDROOT
BRANCH   2   8
HETATM    8  C4  UNL     1      64.121  53.016  16.598  1.00  0.00     0.110 C 
BRANCH   8   9
HETATM    9  C5  UNL     1      65.309  53.793  16.164  1.00  0.00     0.067 A 
HETATM   10  C6  UNL     1      66.563  53.698  16.670  1.00  0.00     0.156 A 
HETATM   11  N2  UNL     1      67.565  54.492  16.176  1.00  0.00    -0.288 N 
HETATM   12  C7  UNL     1      67.289  55.361  15.187  1.00  0.00     0.329 A 
ATOM     13  H2  UNL     1      68.510  54.424  16.554  1.00  0.00     0.172 HD
HETATM   14  O4  UNL     1      68.164  56.112  14.697  1.00  0.00    -0.247 OA
HETATM   15  N3  UNL     1      66.038  55.460  14.678  1.00  0.00    -0.275 N 
HETATM   16  C8  UNL     1      65.033  54.716  15.119  1.00  0.00     0.260 A 
ATOM     17  H3  UNL     1      65.863  56.130  13.928  1.00  0.00     0.173 HD
HETATM   18  O5  UNL     1      63.889  54.830  14.628  1.00  0.00    -0.267 OA
BRANCH  10  19
HETATM   19  O3  UNL     1      66.935  52.842  17.676  1.00  0.00    -0.345 OA
ATOM     20  H3  UNL     1      67.796  52.450  17.761  1.00  0.00     0.219 HD
ENDBRANCH  10  19
ENDBRANCH   8   9
ENDBRANCH   2   8
BRANCH   1  21
HETATM   21  N1  UNL     1      61.025  52.508  17.658  1.00  0.00    -0.180 N 
BRANCH  21  22
HETATM   22  C1  UNL     1      60.816  51.223  18.122  1.00  0.00     0.383 C 
HETATM   23  O1  UNL     1      60.977  50.940  19.350  1.00  0.00    -0.281 OA
ENDBRANCH  21  22
BRANCH  21  24
HETATM   24  O2  UNL     1      60.186  52.872  16.729  1.00  0.00    -0.279 OA
ATOM     25  H2  UNL     1      60.554  53.479  16.098  1.00  0.00     0.245 HD
ENDBRANCH  21  24
ENDBRANCH   1  21
BRANCH   7  26
HETATM   26  C10 UNL     1      60.586  54.575  19.774  1.00  0.00     0.302 C 
BRANCH  26  27
HETATM   27  O7  UNL     1      60.624  53.615  20.814  1.00  0.00    -0.382 OA
ATOM     28  H7  UNL     1      61.221  52.920  20.563  1.00  0.00     0.211 HD
ENDBRANCH  26  27
ENDBRANCH   7  26
TORSDOF 8
ENDMDL
MODEL 3
REMARK VINA RESULT: -7.640596439      1.767      2.344
REMARK  8 active torsions:
REMARK  status: ('A' for Active; 'I' for Inactive)
REMARK    1  A    between atoms: C1_2  and  N1_3 
REMARK    2  A    between atoms: N1_3  and  O2_4 
REMARK    3  A    between atoms: N1_3  and  C2_6 
REMARK    4  A    between atoms: C3_7  and  C4_8 
REMARK    5  A    between atoms: C4_8  and  C5_9 
REMARK    6  A    between atoms: C6_10  and  O3_11 
REMARK    7  A    between atoms: N5_25  and  C10_26 
REMARK    8  A    between atoms: C10_26  and  O7_27 
ROOT
HETATM    1  C2  UNL     1      61.617  53.610  18.338  1.00  0.00     0.167 A 
HETATM    2  C3  UNL     1      62.890  53.791  17.897  1.00  0.00     0.065 A 
HETATM    3  N4  UNL     1      63.458  54.863  18.541  1.00  0.00    -0.308 N 
ATOM      4  H4  UNL     1      64.400  55.230  18.407  1.00  0.00     0.170 HD
HETATM    5  C9  UNL     1      62.532  55.324  19.375  1.00  0.00     0.330 A 
HETATM    6  O6  UNL     1      62.704  56.307  20.137  1.00  0.00    -0.246 OA
HETATM    7  N5  UNL     1      61.421  54.595  19.276  1.00  0.00    -0.260 N 
ENDROOT
BRANCH   2   8
HETATM    8  C4  UNL     1      63.743  52.976  17.004  1.00  0.00     0.110 C 
BRANCH   8   9
HETATM    9  C5  UNL     1      64.862  53.737  16.392  1.00  0.00     0.067 A 
HETATM   10  C6  UNL     1      66.179  53.597  16.675  1.00  0.00     0.156 A 
HETATM   11  N2  UNL     1      67.105  54.381  16.037  1.00  0.00    -0.288 N 
HETATM   12  C7  UNL     1      66.691  55.284  15.130  1.00  0.00     0.329 A 
ATOM     13  H2  UNL     1      68.099  54.280  16.247  1.00  0.00     0.172 HD
HETATM   14  O4  UNL     1      67.491  56.027  14.517  1.00  0.00    -0.247 OA
HETATM   15  N3  UNL     1      65.375  55.427  14.843  1.00  0.00    -0.275 N 
HETATM   16  C8  UNL     1      64.439  54.695  15.431  1.00  0.00     0.260 A 
ATOM     17  H3  UNL     1      65.095  56.121  14.150  1.00  0.00     0.173 HD
HETATM   18  O5  UNL     1      63.231  54.850  15.146  1.00  0.00    -0.267 OA
BRANCH  10  19
HETATM   19  O3  UNL     1      66.692  52.705  17.583  1.00  0.00    -0.345 OA
ATOM     20  H3  UNL     1      67.615  52.501  17.678  1.00  0.00     0.219 HD
ENDBRANCH  10  19
ENDBRANCH   8   9
ENDBRANCH   2   8
BRANCH   1  21
HETATM   21  N1  UNL     1      60.576  52.738  17.941  1.00  0.00    -0.180 N 
BRANCH  21  22
HETATM   22  C1  UNL     1      59.756  52.774  16.829  1.00  0.00     0.383 C 
HETATM   23  O1  UNL     1      60.126  53.358  15.764  1.00  0.00    -0.281 OA
ENDBRANCH  21  22
BRANCH  21  24
HETATM   24  O2  UNL     1      60.324  51.745  18.747  1.00  0.00    -0.279 OA
ATOM     25  H2  UNL     1      59.401  51.531  18.813  1.00  0.00     0.245 HD
ENDBRANCH  21  24
ENDBRANCH   1  21
BRANCH   7  26
HETATM   26  C10 UNL     1      60.231  54.849  20.032  1.00  0.00     0.302 C 
BRANCH  26  27
HETATM   27  O7  UNL     1      60.112  53.856  21.034  1.00  0.00    -0.382 OA
ATOM     28  H7  UNL     1      59.238  53.485  20.992  1.00  0.00     0.211 HD
ENDBRANCH  26  27
ENDBRANCH   7  26
TORSDOF 8
ENDMDL
MODEL 4
REMARK VINA RESULT: -7.555878060      3.596      5.606
REMARK  8 active torsions:
REMARK  status: ('A' for Active; 'I' for Inactive)
REMARK    1  A    between atoms: C1_2  and  N1_3 
REMARK    2  A    between atoms: N1_3  and  O2_4 
REMARK    3  A    between atoms: N1_3  and  C2_6 
REMARK    4  A    between atoms: C3_7  and  C4_8 
REMARK    5  A    between atoms: C4_8  and  C5_9 
REMARK    6  A    between atoms: C6_10  and  O3_11 
REMARK    7  A    between atoms: N5_25  and  C10_26 
REMARK    8  A    between atoms: C10_26  and  O7_27 
ROOT
HETATM    1  C2  UNL     1      61.507  57.286  18.765  1.00  0.00     0.167 A 
HETATM    2  C3  UNL     1      61.283  56.845  17.499  1.00  0.00     0.065 A 
HETATM    3  N4  UNL     1      60.136  57.416  17.004  1.00  0.00    -0.308 N 
ATOM      4  H4  UNL     1      59.724  57.264  16.083  1.00  0.00     0.170 HD
HETATM    5  C9  UNL     1      59.671  58.205  17.967  1.00  0.00     0.330 A 
HETATM    6  O6  UNL     1      58.628  58.895  17.864  1.00  0.00    -0.246 OA
HETATM    7  N5  UNL     1      60.471  58.148  19.032  1.00  0.00    -0.260 N 
ENDROOT
BRANCH   2   8
HETATM    8  C4  UNL     1      62.108  56.023  16.587  1.00  0.00     0.110 C 
BRANCH   8   9
HETATM    9  C5  UNL     1      62.140  54.583  16.950  1.00  0.00     0.067 A 
HETATM   10  C6  UNL     1      63.126  53.945  17.625  1.00  0.00     0.156 A 
HETATM   11  N2  UNL     1      63.026  52.602  17.881  1.00  0.00    -0.288 N 
HETATM   12  C7  UNL     1      61.941  51.930  17.456  1.00  0.00     0.329 A 
ATOM     13  H2  UNL     1      63.766  52.117  18.389  1.00  0.00     0.172 HD
HETATM   14  O4  UNL     1      61.795  50.703  17.661  1.00  0.00    -0.247 OA
HETATM   15  N3  UNL     1      60.952  52.563  16.781  1.00  0.00    -0.275 N 
HETATM   16  C8  UNL     1      60.999  53.860  16.508  1.00  0.00     0.260 A 
ATOM     17  H3  UNL     1      60.142  52.024  16.473  1.00  0.00     0.173 HD
HETATM   18  O5  UNL     1      60.070  54.417  15.883  1.00  0.00    -0.267 OA
BRANCH  10  19
HETATM   19  O3  UNL     1      64.267  54.548  18.096  1.00  0.00    -0.345 OA
ATOM     20  H3  UNL     1      65.150  54.249  17.915  1.00  0.00     0.219 HD
ENDBRANCH  10  19
ENDBRANCH   8   9
ENDBRANCH   2   8
BRANCH   1  21
HETATM   21  N1  UNL     1      62.466  56.943  19.748  1.00  0.00    -0.180 N 
BRANCH  21  22
HETATM   22  C1  UNL     1      63.726  57.457  19.984  1.00  0.00     0.383 C 
HETATM   23  O1  UNL     1      63.941  58.708  19.928  1.00  0.00    -0.281 OA
ENDBRANCH  21  22
BRANCH  21  24
HETATM   24  O2  UNL     1      62.131  55.979  20.560  1.00  0.00    -0.279 OA
ATOM     25  H2  UNL     1      61.352  55.507  20.293  1.00  0.00     0.245 HD
ENDBRANCH  21  24
ENDBRANCH   1  21
BRANCH   7  26
HETATM   26  C10 UNL     1      60.234  58.871  20.246  1.00  0.00     0.302 C 
BRANCH  26  27
HETATM   27  O7  UNL     1      60.161  60.252  19.941  1.00  0.00    -0.382 OA
ATOM     28  H7  UNL     1      60.579  60.740  20.641  1.00  0.00     0.211 HD
ENDBRANCH  26  27
ENDBRANCH   7  26
TORSDOF 8
ENDMDL
MODEL 5
REMARK VINA RESULT: -7.414248911      0.812      1.962
REMARK  8 active torsions:
REMARK  status: ('A' for Active; 'I' for Inactive)
REMARK    1  A    between atoms: C1_2  and  N1_3 
REMARK    2  A    between atoms: N1_3  and  O2_4 
REMARK    3  A    between atoms: N1_3  and  C2_6 
REMARK    4  A    between atoms: C3_7  and  C4_8 
REMARK    5  A    between atoms: C4_8  and  C5_9 
REMARK    6  A    between atoms: C6_10  and  O3_11 
REMARK    7  A    between atoms: N5_25  and  C10_26 
REMARK    8  A    between atoms: C10_26  and  O7_27 
ROOT
HETATM    1  C2  UNL     1      63.120  54.158  17.447  1.00  0.00     0.167 A 
HETATM    2  C3  UNL     1      64.208  54.595  16.760  1.00  0.00     0.065 A 
HETATM    3  N4  UNL     1      64.613  55.810  17.254  1.00  0.00    -0.308 N 
ATOM      4  H4  UNL     1      65.398  56.374  16.929  1.00  0.00     0.170 HD
HETATM    5  C9  UNL     1      63.775  56.104  18.243  1.00  0.00     0.330 A 
HETATM    6  O6  UNL     1      63.845  57.151  18.933  1.00  0.00    -0.246 OA
HETATM    7  N5  UNL     1      62.872  55.134  18.382  1.00  0.00    -0.260 N 
ENDROOT
BRANCH   2   8
HETATM    8  C4  UNL     1      65.050  53.937  15.736  1.00  0.00     0.110 C 
BRANCH   8   9
HETATM    9  C5  UNL     1      66.438  54.462  15.682  1.00  0.00     0.067 A 
HETATM   10  C6  UNL     1      66.905  55.419  14.844  1.00  0.00     0.156 A 
HETATM   11  N2  UNL     1      68.221  55.797  14.899  1.00  0.00    -0.288 N 
HETATM   12  C7  UNL     1      69.038  55.210  15.791  1.00  0.00     0.329 A 
ATOM     13  H2  UNL     1      68.577  56.517  14.269  1.00  0.00     0.172 HD
HETATM   14  O4  UNL     1      70.249  55.515  15.887  1.00  0.00    -0.247 OA
HETATM   15  N3  UNL     1      68.576  54.254  16.632  1.00  0.00    -0.275 N 
HETATM   16  C8  UNL     1      67.313  53.851  16.620  1.00  0.00     0.260 A 
ATOM     17  H3  UNL     1      69.223  53.829  17.297  1.00  0.00     0.173 HD
HETATM   18  O5  UNL     1      66.916  52.965  17.409  1.00  0.00    -0.267 OA
BRANCH  10  19
HETATM   19  O3  UNL     1      66.146  56.070  13.903  1.00  0.00    -0.345 OA
ATOM     20  H3  UNL     1      65.206  56.198  13.961  1.00  0.00     0.219 HD
ENDBRANCH  10  19
ENDBRANCH   8   9
ENDBRANCH   2   8
BRANCH   1  21
HETATM   21  N1  UNL     1      62.261  53.045  17.283  1.00  0.00    -0.180 N 
BRANCH  21  22
HETATM   22  C1  UNL     1      62.308  51.788  17.856  1.00  0.00     0.383 C 
HETATM   23  O1  UNL     1      61.646  50.823  17.365  1.00  0.00    -0.281 OA
ENDBRANCH  21  22
BRANCH  21  24
HETATM   24  O2  UNL     1      61.270  53.205  16.450  1.00  0.00    -0.279 OA
ATOM     25  H2  UNL     1      60.964  54.102  16.390  1.00  0.00     0.245 HD
ENDBRANCH  21  24
ENDBRANCH   1  21
BRANCH   7  26
HETATM   26  C10 UNL     1      61.816  55.160  19.351  1.00  0.00     0.302 C 
BRANCH  26  27
HETATM   27  O7  UNL     1      62.352  55.586  20.590  1.00  0.00    -0.382 OA
ATOM     28  H7  UNL     1      61.848  55.188  21.291  1.00  0.00     0.211 HD
ENDBRANCH  26  27
ENDBRANCH   7  26
TORSDOF 8
ENDMDL
