MODEL 1
REMARK VINA RESULT: -8.002998558      0.000      0.000
REMARK  5 active torsions:
REMARK  status: ('A' for Active; 'I' for Inactive)
REMARK    1  A    between atoms: C2_2  and  N1_3 
REMARK       I    between atoms: N5_12  and  C4_14 
REMARK    2  A    between atoms: C4_14  and  C5_16 
REMARK    3  A    between atoms: C5_16  and  S1_17 
REMARK    4  A    between atoms: S1_17  and  C6_18 
REMARK    5  A    between atoms: C6_18  and  C7_19 
ROOT
HETATM    1  C1  UNL     1      68.828  56.345  15.848  1.00  0.00     0.076 C 
HETATM    2  C2  UNL     1      68.419  54.907  15.725  1.00  0.00     0.264 C 
HETATM    3  N2  UNL     1      68.586  54.519  14.330  1.00  0.00    -0.079 NA
HETATM    4  N3  UNL     1      67.542  55.208  13.704  1.00  0.00    -0.027 NA
HETATM    5  N4  UNL     1      66.435  55.068  14.581  1.00  0.00    -0.273 N 
ATOM      6  H4  UNL     1      65.453  55.195  14.335  1.00  0.00     0.185 HD
HETATM    7  C3  UNL     1      66.943  54.716  15.864  1.00  0.00     0.151 C 
HETATM    8  N5  UNL     1      66.334  54.324  16.914  1.00  0.00    -0.312 N 
ATOM      9  H5  UNL     1      66.903  54.122  17.736  1.00  0.00     0.170 HD
HETATM   10  C4  UNL     1      64.946  54.147  17.037  1.00  0.00     0.232 C 
HETATM   11  O1  UNL     1      64.365  53.092  16.616  1.00  0.00    -0.272 OA
ENDROOT
BRANCH  10  12
HETATM   12  C5  UNL     1      64.076  55.174  17.664  1.00  0.00     0.177 C 
BRANCH  12  13
HETATM   13  S1  UNL     1      63.085  56.049  16.443  1.00  0.00    -0.153 SA
BRANCH  13  14
HETATM   14  C6  UNL     1      61.459  55.331  16.232  1.00  0.00     0.139 C 
BRANCH  14  15
HETATM   15  C7  UNL     1      61.180  54.228  17.186  1.00  0.00     0.069 A 
HETATM   16  N6  UNL     1      61.412  52.950  16.942  1.00  0.00    -0.305 N 
HETATM   17  C8  UNL     1      61.183  51.918  17.753  1.00  0.00     0.328 A 
ATOM     18  H6  UNL     1      61.811  52.729  16.030  1.00  0.00     0.171 HD
HETATM   19  O2  UNL     1      61.495  50.770  17.279  1.00  0.00    -0.247 OA
HETATM   20  N7  UNL     1      60.677  51.962  18.972  1.00  0.00    -0.269 N 
HETATM   21  C9  UNL     1      60.292  53.076  19.631  1.00  0.00     0.293 A 
ATOM     22  H7  UNL     1      60.566  51.073  19.460  1.00  0.00     0.174 HD
HETATM   23  O3  UNL     1      59.824  53.017  20.782  1.00  0.00    -0.260 OA
HETATM   24  S2  UNL     1      60.509  54.533  18.741  1.00  0.00    -0.015 SA
ENDBRANCH  14  15
ENDBRANCH  13  14
ENDBRANCH  12  13
ENDBRANCH  10  12
BRANCH   2  25
HETATM   25  N1  UNL     1      69.153  54.037  16.614  1.00  0.00    -0.048 N 
ATOM     26  H13 UNL     1      69.847  54.561  17.147  1.00  0.00     0.277 HD
ATOM     27  H12 UNL     1      68.562  53.715  17.380  1.00  0.00     0.277 HD
ATOM     28  H11 UNL     1      69.584  53.249  16.130  1.00  0.00     0.277 HD
ENDBRANCH   2  25
TORSDOF 5
ENDMDL
MODEL 2
REMARK VINA RESULT: -7.851202108      4.947      7.116
REMARK  5 active torsions:
REMARK  status: ('A' for Active; 'I' for Inactive)
REMARK    1  A    between atoms: C2_2  and  N1_3 
REMARK       I    between atoms: N5_12  and  C4_14 
REMARK    2  A    between atoms: C4_14  and  C5_16 
REMARK    3  A    between atoms: C5_16  and  S1_17 
REMARK    4  A    between atoms: S1_17  and  C6_18 
REMARK    5  A    between atoms: C6_18  and  C7_19 
ROOT
HETATM    1  C1  UNL     1      60.398  60.804  15.447  1.00  0.00     0.076 C 
HETATM    2  C2  UNL     1      60.818  61.163  16.842  1.00  0.00     0.264 C 
HETATM    3  N2  UNL     1      61.543  62.425  16.772  1.00  0.00    -0.079 NA
HETATM    4  N3  UNL     1      62.742  62.045  16.160  1.00  0.00    -0.027 NA
HETATM    5  N4  UNL     1      63.085  60.809  16.768  1.00  0.00    -0.273 N 
ATOM      6  H4  UNL     1      64.011  60.380  16.778  1.00  0.00     0.185 HD
HETATM    7  C3  UNL     1      61.905  60.277  17.361  1.00  0.00     0.151 C 
HETATM    8  N5  UNL     1      61.751  59.288  18.152  1.00  0.00    -0.312 N 
ATOM      9  H5  UNL     1      60.801  59.080  18.460  1.00  0.00     0.170 HD
HETATM   10  C4  UNL     1      62.777  58.460  18.635  1.00  0.00     0.232 C 
HETATM   11  O1  UNL     1      63.509  58.807  19.621  1.00  0.00    -0.272 OA
ENDROOT
BRANCH  10  12
HETATM   12  C5  UNL     1      63.069  57.136  18.029  1.00  0.00     0.177 C 
BRANCH  12  13
HETATM   13  S1  UNL     1      61.722  56.569  16.978  1.00  0.00    -0.153 SA
BRANCH  13  14
HETATM   14  C6  UNL     1      62.161  55.126  16.014  1.00  0.00     0.139 C 
BRANCH  14  15
HETATM   15  C7  UNL     1      63.628  54.907  15.928  1.00  0.00     0.069 A 
HETATM   16  N6  UNL     1      64.426  55.515  15.068  1.00  0.00    -0.305 N 
HETATM   17  C8  UNL     1      65.744  55.360  14.941  1.00  0.00     0.328 A 
ATOM     18  H6  UNL     1      63.985  56.178  14.431  1.00  0.00     0.171 HD
HETATM   19  O2  UNL     1      66.292  56.069  14.025  1.00  0.00    -0.247 OA
HETATM   20  N7  UNL     1      66.523  54.564  15.650  1.00  0.00    -0.269 N 
HETATM   21  C9  UNL     1      66.124  53.750  16.650  1.00  0.00     0.293 A 
ATOM     22  H7  UNL     1      67.517  54.565  15.422  1.00  0.00     0.174 HD
HETATM   23  O3  UNL     1      66.936  53.034  17.264  1.00  0.00    -0.260 OA
HETATM   24  S2  UNL     1      64.435  53.804  16.974  1.00  0.00    -0.015 SA
ENDBRANCH  14  15
ENDBRANCH  13  14
ENDBRANCH  12  13
ENDBRANCH  10  12
BRANCH   2  25
HETATM   25  N1  UNL     1      59.706  61.234  17.761  1.00  0.00    -0.048 N 
ATOM     26  H13 UNL     1      59.832  61.997  18.426  1.00  0.00     0.277 HD
ATOM     27  H12 UNL     1      58.864  61.562  17.289  1.00  0.00     0.277 HD
ATOM     28  H11 UNL     1      59.534  60.352  18.244  1.00  0.00     0.277 HD
ENDBRANCH   2  25
TORSDOF 5
ENDMDL
MODEL 3
REMARK VINA RESULT: -7.795702415      5.332      7.159
REMARK  5 active torsions:
REMARK  status: ('A' for Active; 'I' for Inactive)
REMARK    1  A    between atoms: C2_2  and  N1_3 
REMARK       I    between atoms: N5_12  and  C4_14 
REMARK    2  A    between atoms: C4_14  and  C5_16 
REMARK    3  A    between atoms: C5_16  and  S1_17 
REMARK    4  A    between atoms: S1_17  and  C6_18 
REMARK    5  A    between atoms: C6_18  and  C7_19 
ROOT
HETATM    1  C1  UNL     1      61.523  60.570  15.732  1.00  0.00     0.076 C 
HETATM    2  C2  UNL     1      60.098  60.274  15.367  1.00  0.00     0.264 C 
HETATM    3  N2  UNL     1      59.251  60.828  16.415  1.00  0.00    -0.079 NA
HETATM    4  N3  UNL     1      59.499  59.962  17.485  1.00  0.00    -0.027 NA
HETATM    5  N4  UNL     1      59.532  58.667  16.905  1.00  0.00    -0.273 N 
ATOM      6  H4  UNL     1      59.414  57.783  17.400  1.00  0.00     0.185 HD
HETATM    7  C3  UNL     1      59.758  58.825  15.508  1.00  0.00     0.151 C 
HETATM    8  N5  UNL     1      59.698  57.974  14.560  1.00  0.00    -0.312 N 
ATOM      9  H5  UNL     1      59.899  58.310  13.618  1.00  0.00     0.170 HD
HETATM   10  C4  UNL     1      59.377  56.614  14.701  1.00  0.00     0.232 C 
HETATM   11  O1  UNL     1      58.168  56.217  14.792  1.00  0.00    -0.272 OA
ENDROOT
BRANCH  10  12
HETATM   12  C5  UNL     1      60.424  55.562  14.749  1.00  0.00     0.177 C 
BRANCH  12  13
HETATM   13  S1  UNL     1      60.285  54.548  16.230  1.00  0.00    -0.153 SA
BRANCH  13  14
HETATM   14  C6  UNL     1      61.826  54.434  17.133  1.00  0.00     0.139 C 
BRANCH  14  15
HETATM   15  C7  UNL     1      61.934  55.429  18.231  1.00  0.00     0.069 A 
HETATM   16  N6  UNL     1      61.155  55.454  19.298  1.00  0.00    -0.305 N 
HETATM   17  C8  UNL     1      61.201  56.319  20.311  1.00  0.00     0.328 A 
ATOM     18  H6  UNL     1      60.439  54.731  19.353  1.00  0.00     0.171 HD
HETATM   19  O2  UNL     1      60.331  56.129  21.231  1.00  0.00    -0.247 OA
HETATM   20  N7  UNL     1      62.038  57.330  20.456  1.00  0.00    -0.269 N 
HETATM   21  C9  UNL     1      63.015  57.679  19.593  1.00  0.00     0.293 A 
ATOM     22  H7  UNL     1      61.936  57.899  21.296  1.00  0.00     0.174 HD
HETATM   23  O3  UNL     1      63.758  58.653  19.817  1.00  0.00    -0.260 OA
HETATM   24  S2  UNL     1      63.122  56.674  18.201  1.00  0.00    -0.015 SA
ENDBRANCH  14  15
ENDBRANCH  13  14
ENDBRANCH  12  13
ENDBRANCH  10  12
BRANCH   2  25
HETATM   25  N1  UNL     1      59.736  60.780  14.064  1.00  0.00    -0.048 N 
ATOM     26  H13 UNL     1      59.445  61.756  14.120  1.00  0.00     0.277 HD
ATOM     27  H12 UNL     1      60.560  60.886  13.472  1.00  0.00     0.277 HD
ATOM     28  H11 UNL     1      59.025  60.213  13.602  1.00  0.00     0.277 HD
ENDBRANCH   2  25
TORSDOF 5
ENDMDL
MODEL 4
REMARK VINA RESULT: -7.759181415      4.808      6.268
REMARK  5 active torsions:
REMARK  status: ('A' for Active; 'I' for Inactive)
REMARK    1  A    between atoms: C2_2  and  N1_3 
REMARK       I    between atoms: N5_12  and  C4_14 
REMARK    2  A    between atoms: C4_14  and  C5_16 
REMARK    3  A    between atoms: C5_16  and  S1_17 
REMARK    4  A    between atoms: S1_17  and  C6_18 
REMARK    5  A    between atoms: C6_18  and  C7_19 
ROOT
HETATM    1  C1  UNL     1      60.336  60.896  15.548  1.00  0.00     0.076 C 
HETATM    2  C2  UNL     1      60.847  61.243  16.915  1.00  0.00     0.264 C 
HETATM    3  N2  UNL     1      61.632  62.465  16.794  1.00  0.00    -0.079 NA
HETATM    4  N3  UNL     1      62.775  62.016  16.124  1.00  0.00    -0.027 NA
HETATM    5  N4  UNL     1      63.085  60.770  16.726  1.00  0.00    -0.273 N 
ATOM      6  H4  UNL     1      63.986  60.292  16.692  1.00  0.00     0.185 HD
HETATM    7  C3  UNL     1      61.912  60.306  17.386  1.00  0.00     0.151 C 
HETATM    8  N5  UNL     1      61.749  59.332  18.195  1.00  0.00    -0.312 N 
ATOM      9  H5  UNL     1      60.807  59.178  18.555  1.00  0.00     0.170 HD
HETATM   10  C4  UNL     1      62.754  58.456  18.632  1.00  0.00     0.232 C 
HETATM   11  O1  UNL     1      63.555  58.771  19.575  1.00  0.00    -0.272 OA
ENDROOT
BRANCH  10  12
HETATM   12  C5  UNL     1      62.943  57.113  18.027  1.00  0.00     0.177 C 
BRANCH  12  13
HETATM   13  S1  UNL     1      61.951  56.902  16.541  1.00  0.00    -0.153 SA
BRANCH  13  14
HETATM   14  C6  UNL     1      60.421  56.027  16.852  1.00  0.00     0.139 C 
BRANCH  14  15
HETATM   15  C7  UNL     1      60.621  54.733  17.552  1.00  0.00     0.069 A 
HETATM   16  N6  UNL     1      60.413  54.540  18.843  1.00  0.00    -0.305 N 
HETATM   17  C8  UNL     1      60.575  53.408  19.527  1.00  0.00     0.328 A 
ATOM     18  H6  UNL     1      60.091  55.348  19.375  1.00  0.00     0.171 HD
HETATM   19  O2  UNL     1      60.306  53.481  20.777  1.00  0.00    -0.247 OA
HETATM   20  N7  UNL     1      60.979  52.243  19.053  1.00  0.00    -0.269 N 
HETATM   21  C9  UNL     1      61.305  51.981  17.770  1.00  0.00     0.293 A 
ATOM     22  H7  UNL     1      61.050  51.472  19.717  1.00  0.00     0.174 HD
HETATM   23  O3  UNL     1      61.676  50.847  17.416  1.00  0.00    -0.260 OA
HETATM   24  S2  UNL     1      61.160  53.331  16.713  1.00  0.00    -0.015 SA
ENDBRANCH  14  15
ENDBRANCH  13  14
ENDBRANCH  12  13
ENDBRANCH  10  12
BRANCH   2  25
HETATM   25  N1  UNL     1      59.791  61.381  17.890  1.00  0.00    -0.048 N 
ATOM     26  H13 UNL     1      59.785  60.591  18.537  1.00  0.00     0.277 HD
ATOM     27  H12 UNL     1      59.998  62.133  18.548  1.00  0.00     0.277 HD
ATOM     28  H11 UNL     1      58.873  61.511  17.465  1.00  0.00     0.277 HD
ENDBRANCH   2  25
TORSDOF 5
ENDMDL
MODEL 5
REMARK VINA RESULT: -7.709016494      1.723      1.942
REMARK  5 active torsions:
REMARK  status: ('A' for Active; 'I' for Inactive)
REMARK    1  A    between atoms: C2_2  and  N1_3 
REMARK       I    between atoms: N5_12  and  C4_14 
REMARK    2  A    between atoms: C4_14  and  C5_16 
REMARK    3  A    between atoms: C5_16  and  S1_17 
REMARK    4  A    between atoms: S1_17  and  C6_18 
REMARK    5  A    between atoms: C6_18  and  C7_19 
ROOT
HETATM    1  C1  UNL     1      68.750  56.333  15.820  1.00  0.00     0.076 C 
HETATM    2  C2  UNL     1      68.219  54.932  15.755  1.00  0.00     0.264 C 
HETATM    3  N2  UNL     1      68.450  54.436  14.404  1.00  0.00    -0.079 NA
HETATM    4  N3  UNL     1      67.523  55.170  13.657  1.00  0.00    -0.027 NA
HETATM    5  N4  UNL     1      66.347  55.188  14.450  1.00  0.00    -0.273 N 
ATOM      6  H4  UNL     1      65.402  55.384  14.121  1.00  0.00     0.185 HD
HETATM    7  C3  UNL     1      66.725  54.881  15.789  1.00  0.00     0.151 C 
HETATM    8  N5  UNL     1      66.008  54.617  16.810  1.00  0.00    -0.312 N 
ATOM      9  H5  UNL     1      66.495  54.423  17.685  1.00  0.00     0.170 HD
HETATM   10  C4  UNL     1      64.604  54.572  16.834  1.00  0.00     0.232 C 
HETATM   11  O1  UNL     1      63.960  53.545  16.434  1.00  0.00    -0.272 OA
ENDROOT
BRANCH  10  12
HETATM   12  C5  UNL     1      63.790  55.712  17.326  1.00  0.00     0.177 C 
BRANCH  12  13
HETATM   13  S1  UNL     1      63.986  55.959  19.098  1.00  0.00    -0.153 SA
BRANCH  13  14
HETATM   14  C6  UNL     1      62.460  56.442  19.899  1.00  0.00     0.139 C 
BRANCH  14  15
HETATM   15  C7  UNL     1      61.343  55.497  19.645  1.00  0.00     0.069 A 
HETATM   16  N6  UNL     1      61.471  54.183  19.593  1.00  0.00    -0.305 N 
HETATM   17  C8  UNL     1      60.512  53.286  19.368  1.00  0.00     0.328 A 
ATOM     18  H6  UNL     1      62.410  53.814  19.741  1.00  0.00     0.171 HD
HETATM   19  O2  UNL     1      60.895  52.064  19.365  1.00  0.00    -0.247 OA
HETATM   20  N7  UNL     1      59.231  53.528  19.152  1.00  0.00    -0.269 N 
HETATM   21  C9  UNL     1      58.650  54.746  19.119  1.00  0.00     0.293 A 
ATOM     22  H7  UNL     1      58.627  52.722  18.996  1.00  0.00     0.174 HD
HETATM   23  O3  UNL     1      57.431  54.875  18.907  1.00  0.00    -0.260 OA
HETATM   24  S2  UNL     1      59.735  56.054  19.389  1.00  0.00    -0.015 SA
ENDBRANCH  14  15
ENDBRANCH  13  14
ENDBRANCH  12  13
ENDBRANCH  10  12
BRANCH   2  25
HETATM   25  N1  UNL     1      68.802  54.064  16.750  1.00  0.00    -0.048 N 
ATOM     26  H13 UNL     1      69.766  53.828  16.509  1.00  0.00     0.277 HD
ATOM     27  H12 UNL     1      68.967  54.567  17.622  1.00  0.00     0.277 HD
ATOM     28  H11 UNL     1      68.251  53.221  16.914  1.00  0.00     0.277 HD
ENDBRANCH   2  25
TORSDOF 5
ENDMDL
