MODEL 1
REMARK VINA RESULT: -8.154009756      0.000      0.000
REMARK  12 active torsions:
REMARK  status: ('A' for Active; 'I' for Inactive)
REMARK    1  A    between atoms: C2_2  and  C4_4 
REMARK    2  A    between atoms: C4_4  and  C5_5 
REMARK    3  A    between atoms: C5_5  and  C6_7 
REMARK    4  A    between atoms: C6_7  and  N1_8 
REMARK    5  A    between atoms: C6_7  and  C30_45 
REMARK       I    between atoms: N1_8  and  C7_10 
REMARK    6  A    between atoms: C7_10  and  C8_12 
REMARK       I    between atoms: N3_22  and  C16_23 
REMARK    7  A    between atoms: C16_23  and  C17_25 
REMARK    8  A    between atoms: C17_25  and  N4_26 
REMARK    9  A    between atoms: C17_25  and  C26_41 
REMARK       I    between atoms: N4_26  and  C18_28 
REMARK   10  A    between atoms: C18_28  and  C19_30 
REMARK   11  A    between atoms: C19_30  and  N5_31 
REMARK   12  A    between atoms: C19_30  and  C20_35 
ROOT
HETATM    1  C8  UNL     1      -9.904  15.928  26.142  1.00  0.00     0.180 C 
HETATM    2  C9  UNL     1     -10.914  16.788  25.448  1.00  0.00     0.040 C 
HETATM    3  C10 UNL     1     -10.431  17.151  24.092  1.00  0.00     0.043 C 
HETATM    4  C11 UNL     1      -9.462  16.262  23.457  1.00  0.00    -0.033 A 
HETATM    5  C12 UNL     1      -9.695  15.752  22.161  1.00  0.00     0.026 A 
HETATM    6  C13 UNL     1      -8.611  14.984  21.867  1.00  0.00     0.089 A 
HETATM    7  N2  UNL     1      -7.767  15.012  22.900  1.00  0.00    -0.367 N 
ATOM      8  H2  UNL     1      -6.876  14.516  22.932  1.00  0.00     0.165 HD
HETATM    9  C14 UNL     1      -8.245  15.777  23.888  1.00  0.00     0.033 A 
HETATM   10  C15 UNL     1      -7.542  16.011  25.204  1.00  0.00     0.184 C 
HETATM   11  N3  UNL     1      -8.577  16.507  26.124  1.00  0.00    -0.331 N 
HETATM   12  C16 UNL     1      -8.289  17.558  26.982  1.00  0.00     0.244 C 
HETATM   13  O3  UNL     1      -9.211  18.016  27.750  1.00  0.00    -0.271 OA
ENDROOT
BRANCH   1  14
HETATM   14  C7  UNL     1     -10.331  15.376  27.437  1.00  0.00     0.241 C 
HETATM   15  N1  UNL     1     -11.265  16.031  28.285  1.00  0.00    -0.348 N 
ATOM     16  H1  UNL     1     -11.665  16.927  28.004  1.00  0.00     0.163 HD
HETATM   17  O2  UNL     1      -9.875  14.279  27.846  1.00  0.00    -0.271 OA
BRANCH  15  18
HETATM   18  C6  UNL     1     -11.659  15.421  29.573  1.00  0.00     0.157 C 
BRANCH  18  19
HETATM   19  C5  UNL     1     -13.053  14.956  29.464  1.00  0.00     0.150 C 
HETATM   20  O1  UNL     1     -13.849  15.792  28.990  1.00  0.00    -0.296 OA
BRANCH  19  21
HETATM   21  C4  UNL     1     -13.533  13.637  29.855  1.00  0.00     0.084 C 
BRANCH  21  22
HETATM   22  C2  UNL     1     -12.492  12.548  29.639  1.00  0.00    -0.016 C 
HETATM   23  C1  UNL     1     -12.820  11.299  30.389  1.00  0.00     0.010 C 
HETATM   24  C3  UNL     1     -12.517  12.219  28.146  1.00  0.00     0.010 C 
ENDBRANCH  21  22
ENDBRANCH  19  21
ENDBRANCH  18  19
BRANCH  18  25
HETATM   25  C30 UNL     1     -11.370  16.352  30.698  1.00  0.00     0.007 C 
HETATM   26  C31 UNL     1      -9.915  16.621  30.830  1.00  0.00     0.012 C 
HETATM   27  C32 UNL     1     -11.870  15.828  32.030  1.00  0.00     0.012 C 
ENDBRANCH  18  25
ENDBRANCH  15  18
ENDBRANCH   1  14
BRANCH  12  28
HETATM   28  C17 UNL     1      -6.979  18.257  27.139  1.00  0.00     0.184 C 
BRANCH  28  29
HETATM   29  N4  UNL     1      -6.319  18.126  25.812  1.00  0.00    -0.345 N 
HETATM   30  C18 UNL     1      -5.685  19.240  25.204  1.00  0.00     0.249 C 
HETATM   31  O4  UNL     1      -5.719  20.338  25.862  1.00  0.00    -0.271 OA
ATOM     32  H4  UNL     1      -6.323  17.225  25.334  1.00  0.00     0.163 HD
BRANCH  30  33
HETATM   33  C19 UNL     1      -5.010  19.264  23.912  1.00  0.00     0.278 C 
BRANCH  33  34
HETATM   34  N5  UNL     1      -3.629  18.746  24.039  1.00  0.00    -0.066 N 
ATOM     35  H53 UNL     1      -3.158  19.121  24.863  1.00  0.00     0.275 HD
ATOM     36  H52 UNL     1      -3.617  17.758  24.292  1.00  0.00     0.275 HD
ATOM     37  H51 UNL     1      -3.100  18.925  23.186  1.00  0.00     0.275 HD
ENDBRANCH  33  34
BRANCH  33  38
HETATM   38  C20 UNL     1      -5.629  18.391  22.833  1.00  0.00     0.025 C 
HETATM   39  C21 UNL     1      -6.816  19.041  22.198  1.00  0.00     0.007 C 
HETATM   40  C22 UNL     1      -7.379  18.260  21.049  1.00  0.00     0.000 C 
HETATM   41  C23 UNL     1      -6.341  17.981  20.015  1.00  0.00     0.000 C 
HETATM   42  C24 UNL     1      -5.173  17.264  20.670  1.00  0.00     0.000 C 
HETATM   43  C25 UNL     1      -4.602  18.088  21.760  1.00  0.00     0.007 C 
ENDBRANCH  33  38
ENDBRANCH  30  33
ENDBRANCH  28  29
BRANCH  28  44
HETATM   44  C26 UNL     1      -6.060  17.595  28.119  1.00  0.00    -0.022 C 
HETATM   45  C27 UNL     1      -6.782  16.381  28.699  1.00  0.00     0.017 C 
HETATM   46  C28 UNL     1      -4.777  17.058  27.529  1.00  0.00     0.017 C 
HETATM   47  C29 UNL     1      -5.619  18.519  29.252  1.00  0.00     0.017 C 
ENDBRANCH  28  44
ENDBRANCH  12  28
TORSDOF 12
ENDMDL
MODEL 2
REMARK VINA RESULT: -8.089733205      1.299      2.662
REMARK  12 active torsions:
REMARK  status: ('A' for Active; 'I' for Inactive)
REMARK    1  A    between atoms: C2_2  and  C4_4 
REMARK    2  A    between atoms: C4_4  and  C5_5 
REMARK    3  A    between atoms: C5_5  and  C6_7 
REMARK    4  A    between atoms: C6_7  and  N1_8 
REMARK    5  A    between atoms: C6_7  and  C30_45 
REMARK       I    between atoms: N1_8  and  C7_10 
REMARK    6  A    between atoms: C7_10  and  C8_12 
REMARK       I    between atoms: N3_22  and  C16_23 
REMARK    7  A    between atoms: C16_23  and  C17_25 
REMARK    8  A    between atoms: C17_25  and  N4_26 
REMARK    9  A    between atoms: C17_25  and  C26_41 
REMARK       I    between atoms: N4_26  and  C18_28 
REMARK   10  A    between atoms: C18_28  and  C19_30 
REMARK   11  A    between atoms: C19_30  and  N5_31 
REMARK   12  A    between atoms: C19_30  and  C20_35 
ROOT
HETATM    1  C8  UNL     1     -10.584  15.968  26.002  1.00  0.00     0.180 C 
HETATM    2  C9  UNL     1     -11.244  16.836  24.977  1.00  0.00     0.040 C 
HETATM    3  C10 UNL     1     -10.315  17.090  23.848  1.00  0.00     0.043 C 
HETATM    4  C11 UNL     1      -9.256  16.114  23.609  1.00  0.00    -0.033 A 
HETATM    5  C12 UNL     1      -9.081  15.540  22.330  1.00  0.00     0.026 A 
HETATM    6  C13 UNL     1      -8.018  14.699  22.445  1.00  0.00     0.089 A 
HETATM    7  N2  UNL     1      -7.564  14.744  23.699  1.00  0.00    -0.367 N 
ATOM      8  H2  UNL     1      -6.771  14.205  24.047  1.00  0.00     0.165 HD
HETATM    9  C14 UNL     1      -8.287  15.592  24.440  1.00  0.00     0.033 A 
HETATM   10  C15 UNL     1      -8.045  15.868  25.905  1.00  0.00     0.184 C 
HETATM   11  N3  UNL     1      -9.289  16.472  26.406  1.00  0.00    -0.331 N 
HETATM   12  C16 UNL     1      -9.228  17.557  27.269  1.00  0.00     0.244 C 
HETATM   13  O3  UNL     1     -10.317  18.108  27.666  1.00  0.00    -0.271 OA
ENDROOT
BRANCH   1  14
HETATM   14  C7  UNL     1     -11.453  15.518  27.101  1.00  0.00     0.241 C 
HETATM   15  N1  UNL     1     -10.966  14.798  28.225  1.00  0.00    -0.348 N 
ATOM     16  H1  UNL     1      -9.974  14.570  28.291  1.00  0.00     0.163 HD
HETATM   17  O2  UNL     1     -12.686  15.762  27.082  1.00  0.00    -0.271 OA
BRANCH  15  18
HETATM   18  C6  UNL     1     -11.890  14.379  29.300  1.00  0.00     0.157 C 
BRANCH  18  19
HETATM   19  C5  UNL     1     -11.488  15.046  30.551  1.00  0.00     0.150 C 
HETATM   20  O1  UNL     1     -12.210  16.007  30.889  1.00  0.00    -0.296 OA
BRANCH  19  21
HETATM   21  C4  UNL     1     -10.352  14.665  31.382  1.00  0.00     0.084 C 
BRANCH  21  22
HETATM   22  C2  UNL     1     -10.323  15.407  32.710  1.00  0.00    -0.016 C 
HETATM   23  C1  UNL     1     -10.858  14.578  33.830  1.00  0.00     0.010 C 
HETATM   24  C3  UNL     1      -8.852  15.703  33.005  1.00  0.00     0.010 C 
ENDBRANCH  21  22
ENDBRANCH  19  21
ENDBRANCH  18  19
BRANCH  18  25
HETATM   25  C30 UNL     1     -11.982  12.894  29.357  1.00  0.00     0.007 C 
HETATM   26  C31 UNL     1     -12.400  12.319  28.053  1.00  0.00     0.012 C 
HETATM   27  C32 UNL     1     -12.955  12.411  30.414  1.00  0.00     0.012 C 
ENDBRANCH  18  25
ENDBRANCH  15  18
ENDBRANCH   1  14
BRANCH  12  28
HETATM   28  C17 UNL     1      -7.997  18.193  27.827  1.00  0.00     0.184 C 
BRANCH  28  29
HETATM   29  N4  UNL     1      -6.912  17.809  26.885  1.00  0.00    -0.345 N 
HETATM   30  C18 UNL     1      -6.135  18.799  26.230  1.00  0.00     0.249 C 
HETATM   31  O4  UNL     1      -6.427  20.016  26.501  1.00  0.00    -0.271 OA
ATOM     32  H4  UNL     1      -6.724  16.822  26.708  1.00  0.00     0.163 HD
BRANCH  30  33
HETATM   33  C19 UNL     1      -5.052  18.573  25.281  1.00  0.00     0.278 C 
BRANCH  33  34
HETATM   34  N5  UNL     1      -4.691  17.139  25.239  1.00  0.00    -0.066 N 
ATOM     35  H53 UNL     1      -3.717  16.985  25.501  1.00  0.00     0.275 HD
ATOM     36  H52 UNL     1      -5.136  16.613  25.990  1.00  0.00     0.275 HD
ATOM     37  H51 UNL     1      -4.903  16.743  24.322  1.00  0.00     0.275 HD
ENDBRANCH  33  34
BRANCH  33  38
HETATM   38  C20 UNL     1      -5.367  18.913  23.834  1.00  0.00     0.025 C 
HETATM   39  C21 UNL     1      -4.524  18.130  22.877  1.00  0.00     0.007 C 
HETATM   40  C22 UNL     1      -4.891  18.353  21.442  1.00  0.00     0.000 C 
HETATM   41  C23 UNL     1      -6.334  18.071  21.193  1.00  0.00     0.000 C 
HETATM   42  C24 UNL     1      -7.171  18.924  22.130  1.00  0.00     0.000 C 
HETATM   43  C25 UNL     1      -6.828  18.636  23.542  1.00  0.00     0.007 C 
ENDBRANCH  33  38
ENDBRANCH  30  33
ENDBRANCH  28  29
BRANCH  28  44
HETATM   44  C26 UNL     1      -7.593  17.647  29.161  1.00  0.00    -0.022 C 
HETATM   45  C27 UNL     1      -6.131  18.020  29.402  1.00  0.00     0.017 C 
HETATM   46  C28 UNL     1      -8.353  18.212  30.339  1.00  0.00     0.017 C 
HETATM   47  C29 UNL     1      -7.760  16.133  29.271  1.00  0.00     0.017 C 
ENDBRANCH  28  44
ENDBRANCH  12  28
TORSDOF 12
ENDMDL
MODEL 3
REMARK VINA RESULT: -8.061793713      2.158      9.162
REMARK  12 active torsions:
REMARK  status: ('A' for Active; 'I' for Inactive)
REMARK    1  A    between atoms: C2_2  and  C4_4 
REMARK    2  A    between atoms: C4_4  and  C5_5 
REMARK    3  A    between atoms: C5_5  and  C6_7 
REMARK    4  A    between atoms: C6_7  and  N1_8 
REMARK    5  A    between atoms: C6_7  and  C30_45 
REMARK       I    between atoms: N1_8  and  C7_10 
REMARK    6  A    between atoms: C7_10  and  C8_12 
REMARK       I    between atoms: N3_22  and  C16_23 
REMARK    7  A    between atoms: C16_23  and  C17_25 
REMARK    8  A    between atoms: C17_25  and  N4_26 
REMARK    9  A    between atoms: C17_25  and  C26_41 
REMARK       I    between atoms: N4_26  and  C18_28 
REMARK   10  A    between atoms: C18_28  and  C19_30 
REMARK   11  A    between atoms: C19_30  and  N5_31 
REMARK   12  A    between atoms: C19_30  and  C20_35 
ROOT
HETATM    1  C8  UNL     1      -8.417  17.225  29.781  1.00  0.00     0.180 C 
HETATM    2  C9  UNL     1      -8.834  18.233  30.805  1.00  0.00     0.040 C 
HETATM    3  C10 UNL     1      -9.524  17.560  31.934  1.00  0.00     0.043 C 
HETATM    4  C11 UNL     1      -9.217  16.153  32.174  1.00  0.00    -0.033 A 
HETATM    5  C12 UNL     1      -8.812  15.712  33.453  1.00  0.00     0.026 A 
HETATM    6  C13 UNL     1      -8.623  14.370  33.338  1.00  0.00     0.089 A 
HETATM    7  N2  UNL     1      -8.890  14.001  32.083  1.00  0.00    -0.367 N 
ATOM      8  H2  UNL     1      -8.824  13.044  31.736  1.00  0.00     0.165 HD
HETATM    9  C14 UNL     1      -9.255  15.053  31.342  1.00  0.00     0.033 A 
HETATM   10  C15 UNL     1      -9.613  14.984  29.876  1.00  0.00     0.184 C 
HETATM   11  N3  UNL     1      -9.506  16.362  29.376  1.00  0.00    -0.331 N 
HETATM   12  C16 UNL     1     -10.472  16.857  28.512  1.00  0.00     0.244 C 
HETATM   13  O3  UNL     1     -10.397  18.076  28.114  1.00  0.00    -0.271 OA
ENDROOT
BRANCH   1  14
HETATM   14  C7  UNL     1      -7.588  17.747  28.684  1.00  0.00     0.241 C 
HETATM   15  N1  UNL     1      -7.239  16.974  27.544  1.00  0.00    -0.348 N 
ATOM     16  H1  UNL     1      -7.564  16.010  27.465  1.00  0.00     0.163 HD
HETATM   17  O2  UNL     1      -7.151  18.926  28.718  1.00  0.00    -0.271 OA
BRANCH  15  18
HETATM   18  C6  UNL     1      -6.408  17.559  26.471  1.00  0.00     0.157 C 
BRANCH  18  19
HETATM   19  C5  UNL     1      -7.179  17.539  25.215  1.00  0.00     0.150 C 
HETATM   20  O1  UNL     1      -7.691  18.631  24.896  1.00  0.00    -0.296 OA
BRANCH  19  21
HETATM   21  C4  UNL     1      -7.367  16.372  24.361  1.00  0.00     0.084 C 
BRANCH  21  22
HETATM   22  C2  UNL     1      -7.989  16.726  23.017  1.00  0.00    -0.016 C 
HETATM   23  C1  UNL     1      -6.982  16.731  21.915  1.00  0.00     0.010 C 
HETATM   24  C3  UNL     1      -9.011  15.629  22.715  1.00  0.00     0.010 C 
ENDBRANCH  21  22
ENDBRANCH  19  21
ENDBRANCH  18  19
BRANCH  18  25
HETATM   25  C30 UNL     1      -5.076  16.896  26.425  1.00  0.00     0.007 C 
HETATM   26  C31 UNL     1      -4.361  17.006  27.722  1.00  0.00     0.012 C 
HETATM   27  C32 UNL     1      -4.177  17.468  25.348  1.00  0.00     0.012 C 
ENDBRANCH  18  25
ENDBRANCH  15  18
ENDBRANCH   1  14
BRANCH  12  28
HETATM   28  C17 UNL     1     -11.641  16.117  27.952  1.00  0.00     0.184 C 
BRANCH  28  29
HETATM   29  N4  UNL     1     -11.918  15.042  28.942  1.00  0.00    -0.345 N 
HETATM   30  C18 UNL     1     -13.194  14.930  29.554  1.00  0.00     0.249 C 
HETATM   31  O4  UNL     1     -14.067  15.797  29.201  1.00  0.00    -0.271 OA
ATOM     32  H4  UNL     1     -11.183  14.378  29.185  1.00  0.00     0.163 HD
BRANCH  30  33
HETATM   33  C19 UNL     1     -13.605  13.940  30.542  1.00  0.00     0.278 C 
BRANCH  33  34
HETATM   34  N5  UNL     1     -13.292  12.573  30.067  1.00  0.00    -0.066 N 
ATOM     35  H53 UNL     1     -14.129  11.994  29.999  1.00  0.00     0.275 HD
ATOM     36  H52 UNL     1     -13.021  12.566  29.084  1.00  0.00     0.275 HD
ATOM     37  H51 UNL     1     -12.581  12.143  30.659  1.00  0.00     0.275 HD
ENDBRANCH  33  34
BRANCH  33  38
HETATM   38  C20 UNL     1     -12.906  14.027  31.888  1.00  0.00     0.025 C 
HETATM   39  C21 UNL     1     -12.975  15.403  32.468  1.00  0.00     0.007 C 
HETATM   40  C22 UNL     1     -12.399  15.497  33.849  1.00  0.00     0.000 C 
HETATM   41  C23 UNL     1     -13.041  14.524  34.778  1.00  0.00     0.000 C 
HETATM   42  C24 UNL     1     -12.902  13.126  34.200  1.00  0.00     0.000 C 
HETATM   43  C25 UNL     1     -13.534  13.050  32.862  1.00  0.00     0.007 C 
ENDBRANCH  33  38
ENDBRANCH  30  33
ENDBRANCH  28  29
BRANCH  28  44
HETATM   44  C26 UNL     1     -11.346  15.417  26.661  1.00  0.00    -0.022 C 
HETATM   45  C27 UNL     1     -12.344  14.271  26.505  1.00  0.00     0.017 C 
HETATM   46  C28 UNL     1     -11.510  16.267  25.422  1.00  0.00     0.017 C 
HETATM   47  C29 UNL     1      -9.922  14.871  26.582  1.00  0.00     0.017 C 
ENDBRANCH  28  44
ENDBRANCH  12  28
TORSDOF 12
ENDMDL
MODEL 4
REMARK VINA RESULT: -7.935345020      5.627     11.803
REMARK  12 active torsions:
REMARK  status: ('A' for Active; 'I' for Inactive)
REMARK    1  A    between atoms: C2_2  and  C4_4 
REMARK    2  A    between atoms: C4_4  and  C5_5 
REMARK    3  A    between atoms: C5_5  and  C6_7 
REMARK    4  A    between atoms: C6_7  and  N1_8 
REMARK    5  A    between atoms: C6_7  and  C30_45 
REMARK       I    between atoms: N1_8  and  C7_10 
REMARK    6  A    between atoms: C7_10  and  C8_12 
REMARK       I    between atoms: N3_22  and  C16_23 
REMARK    7  A    between atoms: C16_23  and  C17_25 
REMARK    8  A    between atoms: C17_25  and  N4_26 
REMARK    9  A    between atoms: C17_25  and  C26_41 
REMARK       I    between atoms: N4_26  and  C18_28 
REMARK   10  A    between atoms: C18_28  and  C19_30 
REMARK   11  A    between atoms: C19_30  and  N5_31 
REMARK   12  A    between atoms: C19_30  and  C20_35 
ROOT
HETATM    1  C8  UNL     1     -14.276  10.276  31.589  1.00  0.00     0.180 C 
HETATM    2  C9  UNL     1     -13.097   9.439  31.201  1.00  0.00     0.040 C 
HETATM    3  C10 UNL     1     -13.269   8.052  31.698  1.00  0.00     0.043 C 
HETATM    4  C11 UNL     1     -14.632   7.580  31.932  1.00  0.00    -0.033 A 
HETATM    5  C12 UNL     1     -15.086   6.376  31.350  1.00  0.00     0.026 A 
HETATM    6  C13 UNL     1     -16.370   6.224  31.773  1.00  0.00     0.089 A 
HETATM    7  N2  UNL     1     -16.692   7.253  32.559  1.00  0.00    -0.367 N 
ATOM      8  H2  UNL     1     -17.600   7.377  33.006  1.00  0.00     0.165 HD
HETATM    9  C14 UNL     1     -15.664   8.101  32.683  1.00  0.00     0.033 A 
HETATM   10  C15 UNL     1     -15.700   9.375  33.493  1.00  0.00     0.184 C 
HETATM   11  N3  UNL     1     -14.578  10.189  33.002  1.00  0.00    -0.331 N 
HETATM   12  C16 UNL     1     -13.779  10.876  33.905  1.00  0.00     0.244 C 
HETATM   13  O3  UNL     1     -12.773  11.547  33.473  1.00  0.00    -0.271 OA
ENDROOT
BRANCH   1  14
HETATM   14  C7  UNL     1     -14.297  11.635  31.025  1.00  0.00     0.241 C 
HETATM   15  N1  UNL     1     -13.116  12.341  30.670  1.00  0.00    -0.348 N 
ATOM     16  H1  UNL     1     -12.203  11.906  30.808  1.00  0.00     0.163 HD
HETATM   17  O2  UNL     1     -15.386  12.230  30.831  1.00  0.00    -0.271 OA
BRANCH  15  18
HETATM   18  C6  UNL     1     -13.203  13.703  30.101  1.00  0.00     0.157 C 
BRANCH  18  19
HETATM   19  C5  UNL     1     -12.573  13.696  28.769  1.00  0.00     0.150 C 
HETATM   20  O1  UNL     1     -12.036  12.616  28.448  1.00  0.00    -0.296 OA
BRANCH  19  21
HETATM   21  C4  UNL     1     -12.546  14.823  27.845  1.00  0.00     0.084 C 
BRANCH  21  22
HETATM   22  C2  UNL     1     -11.211  14.958  27.126  1.00  0.00    -0.016 C 
HETATM   23  C1  UNL     1     -11.297  15.865  25.943  1.00  0.00     0.010 C 
HETATM   24  C3  UNL     1     -10.244  15.587  28.131  1.00  0.00     0.010 C 
ENDBRANCH  21  22
ENDBRANCH  19  21
ENDBRANCH  18  19
BRANCH  18  25
HETATM   25  C30 UNL     1     -12.672  14.704  31.066  1.00  0.00     0.007 C 
HETATM   26  C31 UNL     1     -11.297  14.363  31.513  1.00  0.00     0.012 C 
HETATM   27  C32 UNL     1     -13.542  14.843  32.299  1.00  0.00     0.012 C 
ENDBRANCH  18  25
ENDBRANCH  15  18
ENDBRANCH   1  14
BRANCH  12  28
HETATM   28  C17 UNL     1     -13.950  10.942  35.387  1.00  0.00     0.184 C 
BRANCH  28  29
HETATM   29  N4  UNL     1     -13.135  12.112  35.810  1.00  0.00    -0.345 N 
HETATM   30  C18 UNL     1     -13.673  13.095  36.680  1.00  0.00     0.249 C 
HETATM   31  O4  UNL     1     -14.879  12.907  37.066  1.00  0.00    -0.271 OA
ATOM     32  H4  UNL     1     -12.178  12.209  35.470  1.00  0.00     0.163 HD
BRANCH  30  33
HETATM   33  C19 UNL     1     -12.999  14.291  37.170  1.00  0.00     0.278 C 
BRANCH  33  34
HETATM   34  N5  UNL     1     -12.450  14.059  38.525  1.00  0.00    -0.066 N 
ATOM     35  H53 UNL     1     -12.957  14.587  39.235  1.00  0.00     0.275 HD
ATOM     36  H52 UNL     1     -12.653  13.118  38.860  1.00  0.00     0.275 HD
ATOM     37  H51 UNL     1     -11.450  14.261  38.544  1.00  0.00     0.275 HD
ENDBRANCH  33  34
BRANCH  33  38
HETATM   38  C20 UNL     1     -11.795  14.744  36.361  1.00  0.00     0.025 C 
HETATM   39  C21 UNL     1     -12.146  15.823  35.388  1.00  0.00     0.007 C 
HETATM   40  C22 UNL     1     -10.959  16.375  34.658  1.00  0.00     0.000 C 
HETATM   41  C23 UNL     1      -9.913  16.865  35.601  1.00  0.00     0.000 C 
HETATM   42  C24 UNL     1      -9.526  15.733  36.537  1.00  0.00     0.000 C 
HETATM   43  C25 UNL     1     -10.709  15.251  37.288  1.00  0.00     0.007 C 
ENDBRANCH  33  38
ENDBRANCH  30  33
ENDBRANCH  28  29
BRANCH  28  44
HETATM   44  C26 UNL     1     -13.378   9.762  36.109  1.00  0.00    -0.022 C 
HETATM   45  C27 UNL     1     -14.503   9.103  36.905  1.00  0.00     0.017 C 
HETATM   46  C28 UNL     1     -12.822   8.675  35.219  1.00  0.00     0.017 C 
HETATM   47  C29 UNL     1     -12.231  10.127  37.050  1.00  0.00     0.017 C 
ENDBRANCH  28  44
ENDBRANCH  12  28
TORSDOF 12
ENDMDL
MODEL 5
REMARK VINA RESULT: -7.809114218      2.147      7.100
REMARK  12 active torsions:
REMARK  status: ('A' for Active; 'I' for Inactive)
REMARK    1  A    between atoms: C2_2  and  C4_4 
REMARK    2  A    between atoms: C4_4  and  C5_5 
REMARK    3  A    between atoms: C5_5  and  C6_7 
REMARK    4  A    between atoms: C6_7  and  N1_8 
REMARK    5  A    between atoms: C6_7  and  C30_45 
REMARK       I    between atoms: N1_8  and  C7_10 
REMARK    6  A    between atoms: C7_10  and  C8_12 
REMARK       I    between atoms: N3_22  and  C16_23 
REMARK    7  A    between atoms: C16_23  and  C17_25 
REMARK    8  A    between atoms: C17_25  and  N4_26 
REMARK    9  A    between atoms: C17_25  and  C26_41 
REMARK       I    between atoms: N4_26  and  C18_28 
REMARK   10  A    between atoms: C18_28  and  C19_30 
REMARK   11  A    between atoms: C19_30  and  N5_31 
REMARK   12  A    between atoms: C19_30  and  C20_35 
ROOT
HETATM    1  C8  UNL     1      -8.441  17.207  30.017  1.00  0.00     0.180 C 
HETATM    2  C9  UNL     1      -9.522  18.008  30.673  1.00  0.00     0.040 C 
HETATM    3  C10 UNL     1     -10.401  17.121  31.474  1.00  0.00     0.043 C 
HETATM    4  C11 UNL     1      -9.838  15.862  31.955  1.00  0.00    -0.033 A 
HETATM    5  C12 UNL     1      -9.906  15.520  33.323  1.00  0.00     0.026 A 
HETATM    6  C13 UNL     1      -9.311  14.300  33.428  1.00  0.00     0.089 A 
HETATM    7  N2  UNL     1      -8.903  13.912  32.218  1.00  0.00    -0.367 N 
ATOM      8  H2  UNL     1      -8.427  13.031  32.024  1.00  0.00     0.165 HD
HETATM    9  C14 UNL     1      -9.203  14.831  31.294  1.00  0.00     0.033 A 
HETATM   10  C15 UNL     1      -8.870  14.709  29.825  1.00  0.00     0.184 C 
HETATM   11  N3  UNL     1      -8.959  16.072  29.283  1.00  0.00    -0.331 N 
HETATM   12  C16 UNL     1      -9.564  16.285  28.053  1.00  0.00     0.244 C 
HETATM   13  O3  UNL     1      -9.679  17.483  27.606  1.00  0.00    -0.271 OA
ENDROOT
BRANCH   1  14
HETATM   14  C7  UNL     1      -7.413  17.992  29.316  1.00  0.00     0.241 C 
HETATM   15  N1  UNL     1      -6.910  17.636  28.035  1.00  0.00    -0.348 N 
ATOM     16  H1  UNL     1      -7.261  16.801  27.565  1.00  0.00     0.163 HD
HETATM   17  O2  UNL     1      -6.934  19.030  29.839  1.00  0.00    -0.271 OA
BRANCH  15  18
HETATM   18  C6  UNL     1      -5.880  18.470  27.380  1.00  0.00     0.157 C 
BRANCH  18  19
HETATM   19  C5  UNL     1      -6.463  19.066  26.164  1.00  0.00     0.150 C 
HETATM   20  O1  UNL     1      -7.607  18.658  25.877  1.00  0.00    -0.296 OA
BRANCH  19  21
HETATM   21  C4  UNL     1      -5.813  20.062  25.320  1.00  0.00     0.084 C 
BRANCH  21  22
HETATM   22  C2  UNL     1      -5.345  19.486  23.992  1.00  0.00    -0.016 C 
HETATM   23  C1  UNL     1      -5.648  20.394  22.846  1.00  0.00     0.010 C 
HETATM   24  C3  UNL     1      -3.825  19.351  24.094  1.00  0.00     0.010 C 
ENDBRANCH  21  22
ENDBRANCH  19  21
ENDBRANCH  18  19
BRANCH  18  25
HETATM   25  C30 UNL     1      -4.627  17.691  27.185  1.00  0.00     0.007 C 
HETATM   26  C31 UNL     1      -4.799  16.614  26.178  1.00  0.00     0.012 C 
HETATM   27  C32 UNL     1      -4.132  17.054  28.468  1.00  0.00     0.012 C 
ENDBRANCH  18  25
ENDBRANCH  15  18
ENDBRANCH   1  14
BRANCH  12  28
HETATM   28  C17 UNL     1     -10.121  15.248  27.134  1.00  0.00     0.184 C 
BRANCH  28  29
HETATM   29  N4  UNL     1      -9.615  15.626  25.787  1.00  0.00    -0.345 N 
HETATM   30  C18 UNL     1      -8.313  15.248  25.368  1.00  0.00     0.249 C 
HETATM   31  O4  UNL     1      -7.622  14.575  26.211  1.00  0.00    -0.271 OA
ATOM     32  H4  UNL     1     -10.211  16.162  25.156  1.00  0.00     0.163 HD
BRANCH  30  33
HETATM   33  C19 UNL     1      -7.683  15.552  24.089  1.00  0.00     0.278 C 
BRANCH  33  34
HETATM   34  N5  UNL     1      -7.614  14.338  23.245  1.00  0.00    -0.066 N 
ATOM     35  H53 UNL     1      -6.963  14.454  22.468  1.00  0.00     0.275 HD
ATOM     36  H52 UNL     1      -7.145  13.569  23.724  1.00  0.00     0.275 HD
ATOM     37  H51 UNL     1      -8.545  14.072  22.923  1.00  0.00     0.275 HD
ENDBRANCH  33  34
BRANCH  33  38
HETATM   38  C20 UNL     1      -8.418  16.558  23.220  1.00  0.00     0.025 C 
HETATM   39  C21 UNL     1      -7.501  17.241  22.255  1.00  0.00     0.007 C 
HETATM   40  C22 UNL     1      -8.212  18.154  21.303  1.00  0.00     0.000 C 
HETATM   41  C23 UNL     1      -9.289  17.439  20.558  1.00  0.00     0.000 C 
HETATM   42  C24 UNL     1     -10.244  16.809  21.558  1.00  0.00     0.000 C 
HETATM   43  C25 UNL     1      -9.521  15.867  22.445  1.00  0.00     0.007 C 
ENDBRANCH  33  38
ENDBRANCH  30  33
ENDBRANCH  28  29
BRANCH  28  44
HETATM   44  C26 UNL     1     -11.614  15.276  27.032  1.00  0.00    -0.022 C 
HETATM   45  C27 UNL     1     -11.986  15.812  25.651  1.00  0.00     0.017 C 
HETATM   46  C28 UNL     1     -12.287  13.927  27.137  1.00  0.00     0.017 C 
HETATM   47  C29 UNL     1     -12.277  16.134  28.109  1.00  0.00     0.017 C 
ENDBRANCH  28  44
ENDBRANCH  12  28
TORSDOF 12
ENDMDL
