MODEL 1
REMARK VINA RESULT: -8.802886733      0.000      0.000
REMARK  12 active torsions:
REMARK  status: ('A' for Active; 'I' for Inactive)
REMARK    1  A    between atoms: C2_2  and  C3_3 
REMARK    2  A    between atoms: C3_3  and  N1_4 
REMARK    3  A    between atoms: N1_4  and  C4_5 
REMARK       I    between atoms: N1_4  and  C23_31 
REMARK    4  A    between atoms: C4_5  and  C5_6 
REMARK    5  A    between atoms: C5_6  and  C6_7 
REMARK    6  A    between atoms: C5_6  and  N2_14 
REMARK    7  A    between atoms: C6_7  and  C7_8 
REMARK       I    between atoms: N2_14  and  C13_16 
REMARK    8  A    between atoms: C13_16  and  C14_18 
REMARK       I    between atoms: N3_22  and  C18_23 
REMARK       I    between atoms: C18_23  and  N4_25 
REMARK    9  A    between atoms: N4_25  and  C19_27 
REMARK   10  A    between atoms: C23_31  and  C24_33 
REMARK   11  A    between atoms: C24_33  and  N5_35 
REMARK       I    between atoms: N5_35  and  C26_37 
REMARK       I    between atoms: C26_37  and  N6_39 
REMARK   12  A    between atoms: N6_39  and  C27_41 
ROOT
HETATM    1  C5  UNL     1      -7.810  17.692  29.118  1.00  0.00     0.147 C 
ENDROOT
BRANCH   1   2
HETATM    2  C4  UNL     1      -8.636  17.443  30.274  1.00  0.00     0.101 C 
BRANCH   2   3
HETATM    3  N1  UNL     1      -9.895  16.814  30.347  1.00  0.00    -0.307 N 
HETATM    4  C23 UNL     1      -9.997  15.480  30.829  1.00  0.00     0.249 C 
HETATM    5  O3  UNL     1      -8.876  14.838  30.842  1.00  0.00    -0.270 OA
BRANCH   3   6
HETATM    6  C3  UNL     1     -11.084  17.602  30.196  1.00  0.00     0.071 C 
BRANCH   6   7
HETATM    7  C2  UNL     1     -11.792  17.749  28.931  1.00  0.00     0.041 C 
HETATM    8  C1  UNL     1     -12.885  16.689  28.789  1.00  0.00     0.010 C 
ENDBRANCH   6   7
ENDBRANCH   3   6
BRANCH   4   9
HETATM    9  C24 UNL     1     -11.175  14.767  31.306  1.00  0.00     0.175 C 
HETATM   10  C25 UNL     1     -11.722  13.680  30.461  1.00  0.00     0.042 C 
BRANCH   9  11
HETATM   11  N5  UNL     1     -10.833  14.119  32.597  1.00  0.00    -0.330 N 
HETATM   12  C26 UNL     1     -11.132  14.716  33.822  1.00  0.00     0.317 C 
HETATM   13  O4  UNL     1     -11.688  15.861  33.805  1.00  0.00    -0.247 OA
HETATM   14  N6  UNL     1     -10.865  14.145  35.089  1.00  0.00    -0.335 N 
ATOM     15  H6  UNL     1     -10.445  13.217  35.122  1.00  0.00     0.165 HD
ATOM     16  H5  UNL     1     -10.367  13.212  32.588  1.00  0.00     0.165 HD
BRANCH  14  17
HETATM   17  C27 UNL     1     -11.155  14.804  36.335  1.00  0.00     0.023 C 
HETATM   18  C28 UNL     1     -12.402  15.626  36.338  1.00  0.00     0.037 C 
HETATM   19  C29 UNL     1      -9.986  15.642  36.808  1.00  0.00     0.037 C 
HETATM   20  C30 UNL     1     -11.337  13.724  37.406  1.00  0.00     0.037 C 
ENDBRANCH  14  17
ENDBRANCH   9  11
ENDBRANCH   4   9
ENDBRANCH   2   3
ENDBRANCH   1   2
BRANCH   1  21
HETATM   21  C6  UNL     1      -6.408  17.912  28.951  1.00  0.00     0.006 C 
BRANCH  21  22
HETATM   22  C7  UNL     1      -5.656  17.941  27.708  1.00  0.00    -0.081 C 
HETATM   23  C8  UNL     1      -5.868  19.252  26.920  1.00  0.00     0.034 C 
HETATM   24  C9  UNL     1      -5.750  18.903  25.457  1.00  0.00     0.004 C 
HETATM   25  C10 UNL     1      -5.097  17.593  25.174  1.00  0.00     0.001 C 
HETATM   26  C11 UNL     1      -3.981  17.238  26.091  1.00  0.00     0.004 C 
HETATM   27  C12 UNL     1      -4.261  17.570  27.557  1.00  0.00     0.034 C 
ENDBRANCH  21  22
ENDBRANCH   1  21
BRANCH   1  28
HETATM   28  N2  UNL     1      -8.190  16.587  28.153  1.00  0.00    -0.347 N 
HETATM   29  C13 UNL     1      -8.872  16.844  26.964  1.00  0.00     0.241 C 
HETATM   30  O1  UNL     1      -9.181  18.047  26.729  1.00  0.00    -0.271 OA
ATOM     31  H2  UNL     1      -7.939  15.625  28.379  1.00  0.00     0.163 HD
BRANCH  29  32
HETATM   32  C14 UNL     1      -9.253  15.844  25.992  1.00  0.00     0.181 C 
HETATM   33  C15 UNL     1     -10.508  15.081  26.348  1.00  0.00     0.037 C 
HETATM   34  C16 UNL     1     -11.580  15.801  25.622  1.00  0.00     0.022 C 
HETATM   35  C17 UNL     1     -10.917  16.601  24.551  1.00  0.00     0.129 C 
HETATM   36  N3  UNL     1      -9.480  16.287  24.648  1.00  0.00    -0.321 N 
HETATM   37  C18 UNL     1      -8.600  16.424  23.560  1.00  0.00     0.319 C 
HETATM   38  O2  UNL     1      -7.394  16.146  23.671  1.00  0.00    -0.247 OA
HETATM   39  N4  UNL     1      -9.059  16.892  22.274  1.00  0.00    -0.335 N 
ATOM     40  H4  UNL     1     -10.046  17.125  22.173  1.00  0.00     0.165 HD
BRANCH  39  41
HETATM   41  C19 UNL     1      -8.214  17.048  21.132  1.00  0.00     0.023 C 
HETATM   42  C20 UNL     1      -7.514  18.388  21.108  1.00  0.00     0.037 C 
HETATM   43  C21 UNL     1      -7.160  15.963  21.070  1.00  0.00     0.037 C 
HETATM   44  C22 UNL     1      -9.085  17.001  19.868  1.00  0.00     0.037 C 
ENDBRANCH  39  41
ENDBRANCH  29  32
ENDBRANCH   1  28
TORSDOF 12
ENDMDL
MODEL 2
REMARK VINA RESULT: -8.717233719      2.325      9.761
REMARK  12 active torsions:
REMARK  status: ('A' for Active; 'I' for Inactive)
REMARK    1  A    between atoms: C2_2  and  C3_3 
REMARK    2  A    between atoms: C3_3  and  N1_4 
REMARK    3  A    between atoms: N1_4  and  C4_5 
REMARK       I    between atoms: N1_4  and  C23_31 
REMARK    4  A    between atoms: C4_5  and  C5_6 
REMARK    5  A    between atoms: C5_6  and  C6_7 
REMARK    6  A    between atoms: C5_6  and  N2_14 
REMARK    7  A    between atoms: C6_7  and  C7_8 
REMARK       I    between atoms: N2_14  and  C13_16 
REMARK    8  A    between atoms: C13_16  and  C14_18 
REMARK       I    between atoms: N3_22  and  C18_23 
REMARK       I    between atoms: C18_23  and  N4_25 
REMARK    9  A    between atoms: N4_25  and  C19_27 
REMARK   10  A    between atoms: C23_31  and  C24_33 
REMARK   11  A    between atoms: C24_33  and  N5_35 
REMARK       I    between atoms: N5_35  and  C26_37 
REMARK       I    between atoms: C26_37  and  N6_39 
REMARK   12  A    between atoms: N6_39  and  C27_41 
ROOT
HETATM    1  C5  UNL     1      -9.204  16.893  30.705  1.00  0.00     0.147 C 
ENDROOT
BRANCH   1   2
HETATM    2  C4  UNL     1      -8.824  17.489  29.447  1.00  0.00     0.101 C 
BRANCH   2   3
HETATM    3  N1  UNL     1      -8.673  16.880  28.186  1.00  0.00    -0.307 N 
HETATM    4  C23 UNL     1      -9.684  17.032  27.196  1.00  0.00     0.249 C 
HETATM    5  O3  UNL     1     -10.818  17.440  27.662  1.00  0.00    -0.270 OA
BRANCH   3   6
HETATM    6  C3  UNL     1      -7.396  16.344  27.812  1.00  0.00     0.071 C 
BRANCH   6   7
HETATM    7  C2  UNL     1      -6.132  17.004  28.114  1.00  0.00     0.041 C 
HETATM    8  C1  UNL     1      -6.044  18.365  27.423  1.00  0.00     0.010 C 
ENDBRANCH   6   7
ENDBRANCH   3   6
BRANCH   4   9
HETATM    9  C24 UNL     1      -9.602  16.799  25.760  1.00  0.00     0.175 C 
HETATM   10  C25 UNL     1     -10.863  16.564  25.018  1.00  0.00     0.042 C 
BRANCH   9  11
HETATM   11  N5  UNL     1      -9.000  18.000  25.130  1.00  0.00    -0.330 N 
HETATM   12  C26 UNL     1      -7.809  17.932  24.405  1.00  0.00     0.317 C 
HETATM   13  O4  UNL     1      -7.229  16.803  24.321  1.00  0.00    -0.247 OA
HETATM   14  N6  UNL     1      -7.194  19.026  23.752  1.00  0.00    -0.335 N 
ATOM     15  H6  UNL     1      -7.659  19.933  23.785  1.00  0.00     0.165 HD
ATOM     16  H5  UNL     1      -9.469  18.899  25.229  1.00  0.00     0.165 HD
BRANCH  14  17
HETATM   17  C27 UNL     1      -5.946  18.929  23.042  1.00  0.00     0.023 C 
HETATM   18  C28 UNL     1      -6.051  18.377  21.657  1.00  0.00     0.037 C 
HETATM   19  C29 UNL     1      -4.915  18.148  23.829  1.00  0.00     0.037 C 
HETATM   20  C30 UNL     1      -5.369  20.342  22.911  1.00  0.00     0.037 C 
ENDBRANCH  14  17
ENDBRANCH   9  11
ENDBRANCH   4   9
ENDBRANCH   2   3
ENDBRANCH   1   2
BRANCH   1  21
HETATM   21  C6  UNL     1      -9.124  17.342  32.059  1.00  0.00     0.006 C 
BRANCH  21  22
HETATM   22  C7  UNL     1      -9.578  16.647  33.251  1.00  0.00    -0.081 C 
HETATM   23  C8  UNL     1      -9.116  15.174  33.290  1.00  0.00     0.034 C 
HETATM   24  C9  UNL     1     -10.185  14.403  34.025  1.00  0.00     0.004 C 
HETATM   25  C10 UNL     1     -11.122  15.238  34.828  1.00  0.00     0.001 C 
HETATM   26  C11 UNL     1     -10.501  16.416  35.490  1.00  0.00     0.004 C 
HETATM   27  C12 UNL     1      -9.496  17.157  34.608  1.00  0.00     0.034 C 
ENDBRANCH  21  22
ENDBRANCH   1  21
BRANCH   1  28
HETATM   28  N2  UNL     1     -10.638  16.454  30.482  1.00  0.00    -0.347 N 
HETATM   29  C13 UNL     1     -10.966  15.143  30.137  1.00  0.00     0.241 C 
HETATM   30  O1  UNL     1     -10.007  14.330  29.999  1.00  0.00    -0.271 OA
ATOM     31  H2  UNL     1     -11.386  17.138  30.587  1.00  0.00     0.163 HD
BRANCH  29  32
HETATM   32  C14 UNL     1     -12.308  14.651  29.924  1.00  0.00     0.181 C 
HETATM   33  C15 UNL     1     -12.666  14.438  28.471  1.00  0.00     0.037 C 
HETATM   34  C16 UNL     1     -12.396  12.999  28.245  1.00  0.00     0.022 C 
HETATM   35  C17 UNL     1     -12.362  12.347  29.587  1.00  0.00     0.129 C 
HETATM   36  N3  UNL     1     -12.664  13.415  30.557  1.00  0.00    -0.321 N 
HETATM   37  C18 UNL     1     -13.205  13.152  31.829  1.00  0.00     0.319 C 
HETATM   38  O2  UNL     1     -13.454  14.074  32.624  1.00  0.00    -0.247 OA
HETATM   39  N4  UNL     1     -13.493  11.805  32.261  1.00  0.00    -0.335 N 
ATOM     40  H4  UNL     1     -13.290  11.042  31.616  1.00  0.00     0.165 HD
BRANCH  39  41
HETATM   41  C19 UNL     1     -14.045  11.477  33.537  1.00  0.00     0.023 C 
HETATM   42  C20 UNL     1     -13.172  11.935  34.682  1.00  0.00     0.037 C 
HETATM   43  C21 UNL     1     -15.420  12.084  33.719  1.00  0.00     0.037 C 
HETATM   44  C22 UNL     1     -14.132   9.948  33.654  1.00  0.00     0.037 C 
ENDBRANCH  39  41
ENDBRANCH  29  32
ENDBRANCH   1  28
TORSDOF 12
ENDMDL
MODEL 3
REMARK VINA RESULT: -8.716048297      2.775      5.595
REMARK  12 active torsions:
REMARK  status: ('A' for Active; 'I' for Inactive)
REMARK    1  A    between atoms: C2_2  and  C3_3 
REMARK    2  A    between atoms: C3_3  and  N1_4 
REMARK    3  A    between atoms: N1_4  and  C4_5 
REMARK       I    between atoms: N1_4  and  C23_31 
REMARK    4  A    between atoms: C4_5  and  C5_6 
REMARK    5  A    between atoms: C5_6  and  C6_7 
REMARK    6  A    between atoms: C5_6  and  N2_14 
REMARK    7  A    between atoms: C6_7  and  C7_8 
REMARK       I    between atoms: N2_14  and  C13_16 
REMARK    8  A    between atoms: C13_16  and  C14_18 
REMARK       I    between atoms: N3_22  and  C18_23 
REMARK       I    between atoms: C18_23  and  N4_25 
REMARK    9  A    between atoms: N4_25  and  C19_27 
REMARK   10  A    between atoms: C23_31  and  C24_33 
REMARK   11  A    between atoms: C24_33  and  N5_35 
REMARK       I    between atoms: N5_35  and  C26_37 
REMARK       I    between atoms: C26_37  and  N6_39 
REMARK   12  A    between atoms: N6_39  and  C27_41 
ROOT
HETATM    1  C5  UNL     1      -9.773  16.755  30.941  1.00  0.00     0.147 C 
ENDROOT
BRANCH   1   2
HETATM    2  C4  UNL     1     -10.076  15.442  30.425  1.00  0.00     0.101 C 
BRANCH   2   3
HETATM    3  N1  UNL     1     -11.330  14.871  30.130  1.00  0.00    -0.307 N 
HETATM    4  C23 UNL     1     -11.431  13.833  29.164  1.00  0.00     0.249 C 
HETATM    5  O3  UNL     1     -10.401  13.734  28.389  1.00  0.00    -0.270 OA
BRANCH   3   6
HETATM    6  C3  UNL     1     -12.445  15.144  30.990  1.00  0.00     0.071 C 
BRANCH   6   7
HETATM    7  C2  UNL     1     -12.659  14.468  32.263  1.00  0.00     0.041 C 
HETATM    8  C1  UNL     1     -13.782  15.136  33.057  1.00  0.00     0.010 C 
ENDBRANCH   6   7
ENDBRANCH   3   6
BRANCH   4   9
HETATM    9  C24 UNL     1     -12.516  12.885  28.948  1.00  0.00     0.175 C 
HETATM   10  C25 UNL     1     -12.679  12.309  27.592  1.00  0.00     0.042 C 
BRANCH   9  11
HETATM   11  N5  UNL     1     -12.298  11.719  29.840  1.00  0.00    -0.330 N 
HETATM   12  C26 UNL     1     -13.291  11.257  30.704  1.00  0.00     0.317 C 
HETATM   13  O4  UNL     1     -14.396  11.888  30.729  1.00  0.00    -0.247 OA
HETATM   14  N6  UNL     1     -13.167  10.137  31.558  1.00  0.00    -0.335 N 
ATOM     15  H6  UNL     1     -12.298   9.603  31.532  1.00  0.00     0.165 HD
ATOM     16  H5  UNL     1     -11.397  11.242  29.820  1.00  0.00     0.165 HD
BRANCH  14  17
HETATM   17  C27 UNL     1     -14.200   9.708  32.464  1.00  0.00     0.023 C 
HETATM   18  C28 UNL     1     -15.450   9.220  31.807  1.00  0.00     0.037 C 
HETATM   19  C29 UNL     1     -14.536  10.782  33.475  1.00  0.00     0.037 C 
HETATM   20  C30 UNL     1     -13.648   8.539  33.285  1.00  0.00     0.037 C 
ENDBRANCH  14  17
ENDBRANCH   9  11
ENDBRANCH   4   9
ENDBRANCH   2   3
ENDBRANCH   1   2
BRANCH   1  21
HETATM   21  C6  UNL     1      -9.457  17.238  32.248  1.00  0.00     0.006 C 
BRANCH  21  22
HETATM   22  C7  UNL     1      -9.698  16.578  33.520  1.00  0.00    -0.081 C 
HETATM   23  C8  UNL     1      -9.144  15.137  33.552  1.00  0.00     0.034 C 
HETATM   24  C9  UNL     1     -10.051  14.344  34.461  1.00  0.00     0.004 C 
HETATM   25  C10 UNL     1     -10.918  15.163  35.354  1.00  0.00     0.001 C 
HETATM   26  C11 UNL     1     -10.286  16.406  35.873  1.00  0.00     0.004 C 
HETATM   27  C12 UNL     1      -9.461  17.158  34.829  1.00  0.00     0.034 C 
ENDBRANCH  21  22
ENDBRANCH   1  21
BRANCH   1  28
HETATM   28  N2  UNL     1      -8.685  17.268  30.018  1.00  0.00    -0.347 N 
HETATM   29  C13 UNL     1      -8.967  17.771  28.748  1.00  0.00     0.241 C 
HETATM   30  O1  UNL     1     -10.179  17.766  28.386  1.00  0.00    -0.271 OA
ATOM     31  H2  UNL     1      -7.717  17.245  30.336  1.00  0.00     0.163 HD
BRANCH  29  32
HETATM   32  C14 UNL     1      -7.985  18.289  27.823  1.00  0.00     0.181 C 
HETATM   33  C15 UNL     1      -6.622  18.521  28.433  1.00  0.00     0.037 C 
HETATM   34  C16 UNL     1      -5.874  17.284  28.109  1.00  0.00     0.022 C 
HETATM   35  C17 UNL     1      -6.595  16.621  26.983  1.00  0.00     0.129 C 
HETATM   36  N3  UNL     1      -7.717  17.516  26.647  1.00  0.00    -0.321 N 
HETATM   37  C18 UNL     1      -8.323  17.525  25.377  1.00  0.00     0.319 C 
HETATM   38  O2  UNL     1      -9.265  18.295  25.122  1.00  0.00    -0.247 OA
HETATM   39  N4  UNL     1      -7.878  16.646  24.323  1.00  0.00    -0.335 N 
ATOM     40  H4  UNL     1      -7.107  16.009  24.524  1.00  0.00     0.165 HD
BRANCH  39  41
HETATM   41  C19 UNL     1      -8.450  16.613  23.015  1.00  0.00     0.023 C 
HETATM   42  C20 UNL     1      -9.947  16.404  23.041  1.00  0.00     0.037 C 
HETATM   43  C21 UNL     1      -8.166  17.890  22.253  1.00  0.00     0.037 C 
HETATM   44  C22 UNL     1      -7.868  15.412  22.255  1.00  0.00     0.037 C 
ENDBRANCH  39  41
ENDBRANCH  29  32
ENDBRANCH   1  28
TORSDOF 12
ENDMDL
MODEL 4
REMARK VINA RESULT: -8.634777437      2.608      9.389
REMARK  12 active torsions:
REMARK  status: ('A' for Active; 'I' for Inactive)
REMARK    1  A    between atoms: C2_2  and  C3_3 
REMARK    2  A    between atoms: C3_3  and  N1_4 
REMARK    3  A    between atoms: N1_4  and  C4_5 
REMARK       I    between atoms: N1_4  and  C23_31 
REMARK    4  A    between atoms: C4_5  and  C5_6 
REMARK    5  A    between atoms: C5_6  and  C6_7 
REMARK    6  A    between atoms: C5_6  and  N2_14 
REMARK    7  A    between atoms: C6_7  and  C7_8 
REMARK       I    between atoms: N2_14  and  C13_16 
REMARK    8  A    between atoms: C13_16  and  C14_18 
REMARK       I    between atoms: N3_22  and  C18_23 
REMARK       I    between atoms: C18_23  and  N4_25 
REMARK    9  A    between atoms: N4_25  and  C19_27 
REMARK   10  A    between atoms: C23_31  and  C24_33 
REMARK   11  A    between atoms: C24_33  and  N5_35 
REMARK       I    between atoms: N5_35  and  C26_37 
REMARK       I    between atoms: C26_37  and  N6_39 
REMARK   12  A    between atoms: N6_39  and  C27_41 
ROOT
HETATM    1  C5  UNL     1      -9.677  16.797  25.059  1.00  0.00     0.147 C 
ENDROOT
BRANCH   1   2
HETATM    2  C4  UNL     1      -8.383  16.475  25.608  1.00  0.00     0.101 C 
BRANCH   2   3
HETATM    3  N1  UNL     1      -7.293  17.329  25.873  1.00  0.00    -0.307 N 
HETATM    4  C23 UNL     1      -6.300  16.944  26.815  1.00  0.00     0.249 C 
HETATM    5  O3  UNL     1      -6.665  15.985  27.602  1.00  0.00    -0.270 OA
BRANCH   3   6
HETATM    6  C3  UNL     1      -7.046  18.444  25.005  1.00  0.00     0.071 C 
BRANCH   6   7
HETATM    7  C2  UNL     1      -6.403  18.317  23.704  1.00  0.00     0.041 C 
HETATM    8  C1  UNL     1      -6.583  19.591  22.877  1.00  0.00     0.010 C 
ENDBRANCH   6   7
ENDBRANCH   3   6
BRANCH   4   9
HETATM    9  C24 UNL     1      -4.955  17.474  26.996  1.00  0.00     0.175 C 
HETATM   10  C25 UNL     1      -4.346  17.387  28.345  1.00  0.00     0.042 C 
BRANCH   9  11
HETATM   11  N5  UNL     1      -4.036  16.721  26.108  1.00  0.00    -0.330 N 
HETATM   12  C26 UNL     1      -3.215  17.365  25.182  1.00  0.00     0.317 C 
HETATM   13  O4  UNL     1      -3.295  18.632  25.098  1.00  0.00    -0.247 OA
HETATM   14  N6  UNL     1      -2.293  16.717  24.325  1.00  0.00    -0.335 N 
ATOM     15  H6  UNL     1      -2.196  15.705  24.398  1.00  0.00     0.165 HD
ATOM     16  H5  UNL     1      -4.004  15.704  26.175  1.00  0.00     0.165 HD
BRANCH  14  17
HETATM   17  C27 UNL     1      -1.485  17.410  23.356  1.00  0.00     0.023 C 
HETATM   18  C28 UNL     1      -0.557  18.432  23.926  1.00  0.00     0.037 C 
HETATM   19  C29 UNL     1      -2.332  18.034  22.268  1.00  0.00     0.037 C 
HETATM   20  C30 UNL     1      -0.614  16.371  22.644  1.00  0.00     0.037 C 
ENDBRANCH  14  17
ENDBRANCH   9  11
ENDBRANCH   4   9
ENDBRANCH   2   3
ENDBRANCH   1   2
BRANCH   1  21
HETATM   21  C6  UNL     1     -10.221  16.727  23.739  1.00  0.00     0.006 C 
BRANCH  21  22
HETATM   22  C7  UNL     1      -9.494  16.620  22.486  1.00  0.00    -0.081 C 
HETATM   23  C8  UNL     1      -8.640  15.336  22.406  1.00  0.00     0.034 C 
HETATM   24  C9  UNL     1      -7.433  15.669  21.563  1.00  0.00     0.004 C 
HETATM   25  C10 UNL     1      -7.563  16.905  20.741  1.00  0.00     0.001 C 
HETATM   26  C11 UNL     1      -8.920  17.146  20.182  1.00  0.00     0.004 C 
HETATM   27  C12 UNL     1     -10.051  16.846  21.165  1.00  0.00     0.034 C 
ENDBRANCH  21  22
ENDBRANCH   1  21
BRANCH   1  28
HETATM   28  N2  UNL     1     -10.650  16.067  25.964  1.00  0.00    -0.347 N 
HETATM   29  C13 UNL     1     -10.999  16.554  27.223  1.00  0.00     0.241 C 
HETATM   30  O1  UNL     1     -10.452  17.633  27.592  1.00  0.00    -0.271 OA
ATOM     31  H2  UNL     1     -11.062  15.191  25.642  1.00  0.00     0.163 HD
BRANCH  29  32
HETATM   32  C14 UNL     1     -11.928  15.919  28.131  1.00  0.00     0.181 C 
HETATM   33  C15 UNL     1     -12.747  14.813  27.506  1.00  0.00     0.037 C 
HETATM   34  C16 UNL     1     -11.997  13.582  27.846  1.00  0.00     0.022 C 
HETATM   35  C17 UNL     1     -11.099  13.920  28.989  1.00  0.00     0.129 C 
HETATM   36  N3  UNL     1     -11.386  15.328  29.319  1.00  0.00    -0.321 N 
HETATM   37  C18 UNL     1     -11.142  15.872  30.593  1.00  0.00     0.319 C 
HETATM   38  O2  UNL     1     -11.399  17.062  30.842  1.00  0.00    -0.247 OA
HETATM   39  N4  UNL     1     -10.586  15.074  31.659  1.00  0.00    -0.335 N 
ATOM     40  H4  UNL     1     -10.369  14.097  31.463  1.00  0.00     0.165 HD
BRANCH  39  41
HETATM   41  C19 UNL     1     -10.320  15.568  32.972  1.00  0.00     0.023 C 
HETATM   42  C20 UNL     1      -9.331  16.712  32.972  1.00  0.00     0.037 C 
HETATM   43  C21 UNL     1     -11.587  16.040  33.654  1.00  0.00     0.037 C 
HETATM   44  C22 UNL     1      -9.671  14.447  33.796  1.00  0.00     0.037 C 
ENDBRANCH  39  41
ENDBRANCH  29  32
ENDBRANCH   1  28
TORSDOF 12
ENDMDL
MODEL 5
REMARK VINA RESULT: -8.633070350      2.318      4.674
REMARK  12 active torsions:
REMARK  status: ('A' for Active; 'I' for Inactive)
REMARK    1  A    between atoms: C2_2  and  C3_3 
REMARK    2  A    between atoms: C3_3  and  N1_4 
REMARK    3  A    between atoms: N1_4  and  C4_5 
REMARK       I    between atoms: N1_4  and  C23_31 
REMARK    4  A    between atoms: C4_5  and  C5_6 
REMARK    5  A    between atoms: C5_6  and  C6_7 
REMARK    6  A    between atoms: C5_6  and  N2_14 
REMARK    7  A    between atoms: C6_7  and  C7_8 
REMARK       I    between atoms: N2_14  and  C13_16 
REMARK    8  A    between atoms: C13_16  and  C14_18 
REMARK       I    between atoms: N3_22  and  C18_23 
REMARK       I    between atoms: C18_23  and  N4_25 
REMARK    9  A    between atoms: N4_25  and  C19_27 
REMARK   10  A    between atoms: C23_31  and  C24_33 
REMARK   11  A    between atoms: C24_33  and  N5_35 
REMARK       I    between atoms: N5_35  and  C26_37 
REMARK       I    between atoms: C26_37  and  N6_39 
REMARK   12  A    between atoms: N6_39  and  C27_41 
ROOT
HETATM    1  C5  UNL     1      -9.020  15.613  25.468  1.00  0.00     0.147 C 
ENDROOT
BRANCH   1   2
HETATM    2  C4  UNL     1      -9.400  15.214  26.802  1.00  0.00     0.101 C 
BRANCH   2   3
HETATM    3  N1  UNL     1     -10.249  15.868  27.716  1.00  0.00    -0.307 N 
HETATM    4  C23 UNL     1     -11.559  15.367  27.955  1.00  0.00     0.249 C 
HETATM    5  O3  UNL     1     -11.980  14.543  27.052  1.00  0.00    -0.270 OA
BRANCH   3   6
HETATM    6  C3  UNL     1      -9.704  16.862  28.595  1.00  0.00     0.071 C 
BRANCH   6   7
HETATM    7  C2  UNL     1      -8.546  16.627  29.448  1.00  0.00     0.041 C 
HETATM    8  C1  UNL     1      -8.340  17.786  30.424  1.00  0.00     0.010 C 
ENDBRANCH   6   7
ENDBRANCH   3   6
BRANCH   4   9
HETATM    9  C24 UNL     1     -12.460  15.652  29.064  1.00  0.00     0.175 C 
HETATM   10  C25 UNL     1     -13.912  15.442  28.854  1.00  0.00     0.042 C 
BRANCH   9  11
HETATM   11  N5  UNL     1     -12.100  14.761  30.194  1.00  0.00    -0.330 N 
HETATM   12  C26 UNL     1     -11.623  15.264  31.405  1.00  0.00     0.317 C 
HETATM   13  O4  UNL     1     -11.476  16.524  31.508  1.00  0.00    -0.247 OA
HETATM   14  N6  UNL     1     -11.290  14.480  32.535  1.00  0.00    -0.335 N 
ATOM     15  H6  UNL     1     -11.428  13.471  32.480  1.00  0.00     0.165 HD
ATOM     16  H5  UNL     1     -12.204  13.753  30.083  1.00  0.00     0.165 HD
BRANCH  14  17
HETATM   17  C27 UNL     1     -10.768  15.029  33.758  1.00  0.00     0.023 C 
HETATM   18  C28 UNL     1     -11.677  15.985  34.459  1.00  0.00     0.037 C 
HETATM   19  C29 UNL     1      -9.413  15.669  33.548  1.00  0.00     0.037 C 
HETATM   20  C30 UNL     1     -10.520  13.867  34.726  1.00  0.00     0.037 C 
ENDBRANCH  14  17
ENDBRANCH   9  11
ENDBRANCH   4   9
ENDBRANCH   2   3
ENDBRANCH   1   2
BRANCH   1  21
HETATM   21  C6  UNL     1      -9.701  16.326  24.434  1.00  0.00     0.006 C 
BRANCH  21  22
HETATM   22  C7  UNL     1      -9.301  16.468  23.044  1.00  0.00    -0.081 C 
HETATM   23  C8  UNL     1      -8.296  15.382  22.604  1.00  0.00     0.034 C 
HETATM   24  C9  UNL     1      -7.408  16.010  21.558  1.00  0.00     0.004 C 
HETATM   25  C10 UNL     1      -7.938  17.267  20.956  1.00  0.00     0.001 C 
HETATM   26  C11 UNL     1      -9.412  17.293  20.759  1.00  0.00     0.004 C 
HETATM   27  C12 UNL     1     -10.199  16.699  21.928  1.00  0.00     0.034 C 
ENDBRANCH  21  22
ENDBRANCH   1  21
BRANCH   1  28
HETATM   28  N2  UNL     1      -7.685  16.305  25.661  1.00  0.00    -0.347 N 
HETATM   29  C13 UNL     1      -7.587  17.680  25.871  1.00  0.00     0.241 C 
HETATM   30  O1  UNL     1      -8.667  18.337  25.877  1.00  0.00    -0.271 OA
ATOM     31  H2  UNL     1      -6.831  15.748  25.636  1.00  0.00     0.163 HD
BRANCH  29  32
HETATM   32  C14 UNL     1      -6.352  18.403  26.076  1.00  0.00     0.181 C 
HETATM   33  C15 UNL     1      -5.990  18.611  27.529  1.00  0.00     0.037 C 
HETATM   34  C16 UNL     1      -5.066  17.492  27.827  1.00  0.00     0.022 C 
HETATM   35  C17 UNL     1      -4.560  16.985  26.519  1.00  0.00     0.129 C 
HETATM   36  N3  UNL     1      -5.164  17.854  25.492  1.00  0.00    -0.321 N 
HETATM   37  C18 UNL     1      -4.588  18.040  24.223  1.00  0.00     0.319 C 
HETATM   38  O2  UNL     1      -5.118  18.783  23.380  1.00  0.00    -0.247 OA
HETATM   39  N4  UNL     1      -3.362  17.376  23.847  1.00  0.00    -0.335 N 
ATOM     40  H4  UNL     1      -2.921  16.762  24.531  1.00  0.00     0.165 HD
BRANCH  39  41
HETATM   41  C19 UNL     1      -2.728  17.528  22.576  1.00  0.00     0.023 C 
HETATM   42  C20 UNL     1      -3.689  17.349  21.424  1.00  0.00     0.037 C 
HETATM   43  C21 UNL     1      -2.077  18.889  22.440  1.00  0.00     0.037 C 
HETATM   44  C22 UNL     1      -1.669  16.427  22.422  1.00  0.00     0.037 C 
ENDBRANCH  39  41
ENDBRANCH  29  32
ENDBRANCH   1  28
TORSDOF 12
ENDMDL
