MODEL 1
REMARK VINA RESULT: -9.851578204      0.000      0.000
REMARK  12 active torsions:
REMARK  status: ('A' for Active; 'I' for Inactive)
REMARK    1  A    between atoms: O1_2  and  C2_3 
REMARK    2  A    between atoms: C2_3  and  C3_4 
REMARK    3  A    between atoms: C2_3  and  C32_41 
REMARK    4  A    between atoms: C3_4  and  N1_5 
REMARK       I    between atoms: N1_5  and  C4_7 
REMARK    5  A    between atoms: C4_7  and  C5_9 
REMARK    6  A    between atoms: C5_9  and  C6_10 
REMARK    7  A    between atoms: C6_10  and  C7_11 
REMARK    8  A    between atoms: C7_11  and  N2_12 
REMARK       I    between atoms: N2_12  and  C8_14 
REMARK    9  A    between atoms: C8_14  and  C9_16 
REMARK   10  A    between atoms: C12_19  and  O4_20 
REMARK   11  A    between atoms: C20_29  and  C21_30 
REMARK   12  A    between atoms: C21_30  and  C22_31 
ROOT
HETATM    1  C9  UNL     1      -9.802  16.669  25.746  1.00  0.00     0.044 C 
HETATM    2  C10 UNL     1     -11.288  16.702  25.616  1.00  0.00     0.026 C 
HETATM    3  C11 UNL     1      -9.321  18.077  26.016  1.00  0.00     0.051 C 
HETATM    4  C12 UNL     1      -9.339  18.138  27.520  1.00  0.00     0.128 C 
HETATM    5  C13 UNL     1      -8.855  16.769  27.890  1.00  0.00    -0.009 C 
HETATM    6  C14 UNL     1      -7.317  16.892  27.759  1.00  0.00     0.018 C 
HETATM    7  C15 UNL     1      -9.076  16.381  29.317  1.00  0.00     0.001 C 
HETATM    8  C16 UNL     1      -8.762  17.473  30.267  1.00  0.00     0.007 C 
HETATM    9  C17 UNL     1      -9.243  17.264  31.659  1.00  0.00     0.010 C 
HETATM   10  C18 UNL     1      -9.901  15.970  31.925  1.00  0.00    -0.036 C 
HETATM   11  C19 UNL     1      -9.031  14.800  32.203  1.00  0.00     0.016 C 
HETATM   12  C20 UNL     1     -10.909  16.041  33.085  1.00  0.00    -0.006 C 
HETATM   13  C25 UNL     1     -11.675  14.790  32.846  1.00  0.00     0.006 C 
HETATM   14  C26 UNL     1     -11.498  14.424  31.358  1.00  0.00     0.006 C 
HETATM   15  C27 UNL     1     -10.944  15.694  30.831  1.00  0.00    -0.002 C 
HETATM   16  C28 UNL     1     -10.440  15.763  29.471  1.00  0.00    -0.005 C 
HETATM   17  C29 UNL     1     -10.309  14.415  28.747  1.00  0.00     0.006 C 
HETATM   18  C30 UNL     1     -10.275  14.754  27.279  1.00  0.00     0.007 C 
HETATM   19  C31 UNL     1      -9.300  15.796  26.874  1.00  0.00     0.014 C 
ENDROOT
BRANCH   1  20
HETATM   20  C8  UNL     1      -9.240  16.282  24.426  1.00  0.00     0.226 C 
HETATM   21  N2  UNL     1     -10.065  16.362  23.291  1.00  0.00    -0.360 N 
ATOM     22  H2  UNL     1     -11.025  16.684  23.405  1.00  0.00     0.162 HD
HETATM   23  O3  UNL     1      -8.029  15.882  24.334  1.00  0.00    -0.273 OA
BRANCH  21  24
HETATM   24  C7  UNL     1      -9.600  16.002  21.955  1.00  0.00     0.123 C 
BRANCH  24  25
HETATM   25  C6  UNL     1      -9.247  17.210  21.155  1.00  0.00     0.029 C 
BRANCH  25  26
HETATM   26  C5  UNL     1      -7.801  17.291  20.803  1.00  0.00     0.104 C 
BRANCH  26  27
HETATM   27  C4  UNL     1      -6.961  18.075  21.723  1.00  0.00     0.217 C 
HETATM   28  N1  UNL     1      -5.864  17.436  22.397  1.00  0.00    -0.358 N 
ATOM     29  H1  UNL     1      -5.680  16.447  22.230  1.00  0.00     0.162 HD
HETATM   30  O2  UNL     1      -7.168  19.288  21.942  1.00  0.00    -0.274 OA
BRANCH  28  31
HETATM   31  C3  UNL     1      -5.029  18.165  23.295  1.00  0.00     0.165 C 
BRANCH  31  32
HETATM   32  C2  UNL     1      -5.597  18.187  24.690  1.00  0.00     0.239 C 
BRANCH  32  33
HETATM   33  O1  UNL     1      -4.740  17.427  25.503  1.00  0.00    -0.378 OA
HETATM   34  C1  UNL     1      -3.420  17.662  25.097  1.00  0.00     0.202 C 
ENDBRANCH  32  33
BRANCH  32  35
HETATM   35  C32 UNL     1      -5.653  19.540  25.248  1.00  0.00     0.204 C 
HETATM   36  O5  UNL     1      -6.073  19.836  26.411  1.00  0.00    -0.646 OA
HETATM   37  O6  UNL     1      -5.212  20.618  24.458  1.00  0.00    -0.646 OA
ENDBRANCH  32  35
ENDBRANCH  31  32
ENDBRANCH  28  31
ENDBRANCH  26  27
ENDBRANCH  25  26
ENDBRANCH  24  25
ENDBRANCH  21  24
ENDBRANCH   1  20
BRANCH   4  38
HETATM   38  O4  UNL     1     -10.571  18.507  27.939  1.00  0.00    -0.395 OA
ATOM     39  H4  UNL     1     -11.223  18.158  27.343  1.00  0.00     0.210 HD
ENDBRANCH   4  38
BRANCH  12  40
HETATM   40  C21 UNL     1     -10.184  16.191  34.354  1.00  0.00     0.009 C 
BRANCH  40  41
HETATM   41  C22 UNL     1     -10.673  15.462  35.540  1.00  0.00    -0.022 C 
HETATM   42  C23 UNL     1     -12.104  15.773  35.917  1.00  0.00     0.009 C 
HETATM   43  C24 UNL     1      -9.789  15.592  36.760  1.00  0.00     0.009 C 
ENDBRANCH  40  41
ENDBRANCH  12  40
TORSDOF 12
ENDMDL
MODEL 2
REMARK VINA RESULT: -9.793908537      0.650      1.347
REMARK  12 active torsions:
REMARK  status: ('A' for Active; 'I' for Inactive)
REMARK    1  A    between atoms: O1_2  and  C2_3 
REMARK    2  A    between atoms: C2_3  and  C3_4 
REMARK    3  A    between atoms: C2_3  and  C32_41 
REMARK    4  A    between atoms: C3_4  and  N1_5 
REMARK       I    between atoms: N1_5  and  C4_7 
REMARK    5  A    between atoms: C4_7  and  C5_9 
REMARK    6  A    between atoms: C5_9  and  C6_10 
REMARK    7  A    between atoms: C6_10  and  C7_11 
REMARK    8  A    between atoms: C7_11  and  N2_12 
REMARK       I    between atoms: N2_12  and  C8_14 
REMARK    9  A    between atoms: C8_14  and  C9_16 
REMARK   10  A    between atoms: C12_19  and  O4_20 
REMARK   11  A    between atoms: C20_29  and  C21_30 
REMARK   12  A    between atoms: C21_30  and  C22_31 
ROOT
HETATM    1  C9  UNL     1      -9.807  16.640  25.616  1.00  0.00     0.044 C 
HETATM    2  C10 UNL     1     -11.295  16.644  25.505  1.00  0.00     0.026 C 
HETATM    3  C11 UNL     1      -9.347  18.063  25.838  1.00  0.00     0.051 C 
HETATM    4  C12 UNL     1      -9.346  18.169  27.339  1.00  0.00     0.128 C 
HETATM    5  C13 UNL     1      -8.835  16.820  27.744  1.00  0.00    -0.009 C 
HETATM    6  C14 UNL     1      -7.300  16.965  27.589  1.00  0.00     0.018 C 
HETATM    7  C15 UNL     1      -9.031  16.472  29.185  1.00  0.00     0.001 C 
HETATM    8  C16 UNL     1      -8.724  17.597  30.097  1.00  0.00     0.007 C 
HETATM    9  C17 UNL     1      -9.183  17.422  31.501  1.00  0.00     0.010 C 
HETATM   10  C18 UNL     1      -9.815  16.126  31.814  1.00  0.00    -0.036 C 
HETATM   11  C19 UNL     1      -8.922  14.980  32.116  1.00  0.00     0.016 C 
HETATM   12  C20 UNL     1     -10.810  16.215  32.985  1.00  0.00    -0.006 C 
HETATM   13  C25 UNL     1     -11.557  14.945  32.793  1.00  0.00     0.006 C 
HETATM   14  C26 UNL     1     -11.393  14.538  31.315  1.00  0.00     0.006 C 
HETATM   15  C27 UNL     1     -10.868  15.800  30.742  1.00  0.00    -0.002 C 
HETATM   16  C28 UNL     1     -10.381  15.836  29.375  1.00  0.00    -0.005 C 
HETATM   17  C29 UNL     1     -10.237  14.469  28.690  1.00  0.00     0.006 C 
HETATM   18  C30 UNL     1     -10.227  14.764  27.212  1.00  0.00     0.007 C 
HETATM   19  C31 UNL     1      -9.276  15.810  26.763  1.00  0.00     0.014 C 
ENDROOT
BRANCH   1  20
HETATM   20  C8  UNL     1      -9.255  16.222  24.301  1.00  0.00     0.226 C 
HETATM   21  N2  UNL     1      -9.926  16.615  23.131  1.00  0.00    -0.360 N 
ATOM     22  H2  UNL     1     -10.773  17.176  23.217  1.00  0.00     0.162 HD
HETATM   23  O3  UNL     1      -8.190  15.516  24.245  1.00  0.00    -0.273 OA
BRANCH  21  24
HETATM   24  C7  UNL     1      -9.459  16.252  21.797  1.00  0.00     0.123 C 
BRANCH  24  25
HETATM   25  C6  UNL     1      -9.099  17.457  20.997  1.00  0.00     0.029 C 
BRANCH  25  26
HETATM   26  C5  UNL     1      -7.632  17.711  20.929  1.00  0.00     0.104 C 
BRANCH  26  27
HETATM   27  C4  UNL     1      -7.029  18.313  22.130  1.00  0.00     0.217 C 
HETATM   28  N1  UNL     1      -6.239  17.495  23.009  1.00  0.00    -0.358 N 
ATOM     29  H1  UNL     1      -6.105  16.508  22.791  1.00  0.00     0.162 HD
HETATM   30  O2  UNL     1      -7.179  19.520  22.415  1.00  0.00    -0.274 OA
BRANCH  28  31
HETATM   31  C3  UNL     1      -5.640  18.045  24.182  1.00  0.00     0.165 C 
BRANCH  31  32
HETATM   32  C2  UNL     1      -4.212  18.453  23.939  1.00  0.00     0.239 C 
BRANCH  32  33
HETATM   33  O1  UNL     1      -4.118  19.829  24.211  1.00  0.00    -0.378 OA
HETATM   34  C1  UNL     1      -5.030  20.143  25.226  1.00  0.00     0.202 C 
ENDBRANCH  32  33
BRANCH  32  35
HETATM   35  C32 UNL     1      -3.275  17.760  24.826  1.00  0.00     0.204 C 
HETATM   36  O5  UNL     1      -2.020  17.962  24.866  1.00  0.00    -0.646 OA
HETATM   37  O6  UNL     1      -3.774  16.791  25.715  1.00  0.00    -0.646 OA
ENDBRANCH  32  35
ENDBRANCH  31  32
ENDBRANCH  28  31
ENDBRANCH  26  27
ENDBRANCH  25  26
ENDBRANCH  24  25
ENDBRANCH  21  24
ENDBRANCH   1  20
BRANCH   4  38
HETATM   38  O4  UNL     1     -10.580  18.529  27.763  1.00  0.00    -0.395 OA
ATOM     39  H4  UNL     1     -10.835  19.338  27.335  1.00  0.00     0.210 HD
ENDBRANCH   4  38
BRANCH  12  40
HETATM   40  C21 UNL     1     -10.072  16.416  34.239  1.00  0.00     0.009 C 
BRANCH  40  41
HETATM   41  C22 UNL     1     -10.482  15.651  35.433  1.00  0.00    -0.022 C 
HETATM   42  C23 UNL     1     -11.924  15.854  35.838  1.00  0.00     0.009 C 
HETATM   43  C24 UNL     1      -9.587  15.846  36.636  1.00  0.00     0.009 C 
ENDBRANCH  40  41
ENDBRANCH  12  40
TORSDOF 12
ENDMDL
MODEL 3
REMARK VINA RESULT: -9.732826717      3.656     10.070
REMARK  12 active torsions:
REMARK  status: ('A' for Active; 'I' for Inactive)
REMARK    1  A    between atoms: O1_2  and  C2_3 
REMARK    2  A    between atoms: C2_3  and  C3_4 
REMARK    3  A    between atoms: C2_3  and  C32_41 
REMARK    4  A    between atoms: C3_4  and  N1_5 
REMARK       I    between atoms: N1_5  and  C4_7 
REMARK    5  A    between atoms: C4_7  and  C5_9 
REMARK    6  A    between atoms: C5_9  and  C6_10 
REMARK    7  A    between atoms: C6_10  and  C7_11 
REMARK    8  A    between atoms: C7_11  and  N2_12 
REMARK       I    between atoms: N2_12  and  C8_14 
REMARK    9  A    between atoms: C8_14  and  C9_16 
REMARK   10  A    between atoms: C12_19  and  O4_20 
REMARK   11  A    between atoms: C20_29  and  C21_30 
REMARK   12  A    between atoms: C21_30  and  C22_31 
ROOT
HETATM    1  C9  UNL     1      -9.420  16.914  30.219  1.00  0.00     0.044 C 
HETATM    2  C10 UNL     1      -8.656  18.191  30.327  1.00  0.00     0.026 C 
HETATM    3  C11 UNL     1     -10.873  17.253  29.976  1.00  0.00     0.051 C 
HETATM    4  C12 UNL     1     -10.944  17.292  28.472  1.00  0.00     0.128 C 
HETATM    5  C13 UNL     1     -10.049  16.153  28.091  1.00  0.00    -0.009 C 
HETATM    6  C14 UNL     1     -10.968  14.916  28.246  1.00  0.00     0.018 C 
HETATM    7  C15 UNL     1      -9.631  16.126  26.656  1.00  0.00     0.001 C 
HETATM    8  C16 UNL     1     -10.741  16.435  25.726  1.00  0.00     0.007 C 
HETATM    9  C17 UNL     1     -10.335  16.724  24.324  1.00  0.00     0.010 C 
HETATM   10  C18 UNL     1      -8.895  16.592  24.030  1.00  0.00    -0.036 C 
HETATM   11  C19 UNL     1      -8.372  15.231  23.749  1.00  0.00     0.016 C 
HETATM   12  C20 UNL     1      -8.442  17.477  22.856  1.00  0.00    -0.006 C 
HETATM   13  C25 UNL     1      -6.971  17.462  23.067  1.00  0.00     0.006 C 
HETATM   14  C26 UNL     1      -6.726  17.126  24.553  1.00  0.00     0.006 C 
HETATM   15  C27 UNL     1      -8.086  17.335  25.105  1.00  0.00    -0.002 C 
HETATM   16  C28 UNL     1      -8.386  16.951  26.473  1.00  0.00    -0.005 C 
HETATM   17  C29 UNL     1      -7.300  16.129  27.180  1.00  0.00     0.006 C 
HETATM   18  C30 UNL     1      -7.576  16.287  28.653  1.00  0.00     0.007 C 
HETATM   19  C31 UNL     1      -8.969  16.018  29.087  1.00  0.00     0.014 C 
ENDROOT
BRANCH   1  20
HETATM   20  C8  UNL     1      -9.364  16.238  31.542  1.00  0.00     0.226 C 
HETATM   21  N2  UNL     1      -9.301  17.030  32.702  1.00  0.00    -0.360 N 
ATOM     22  H2  UNL     1      -9.295  18.045  32.603  1.00  0.00     0.162 HD
HETATM   23  O3  UNL     1      -9.373  14.962  31.614  1.00  0.00    -0.273 OA
BRANCH  21  24
HETATM   24  C7  UNL     1      -9.244  16.456  34.043  1.00  0.00     0.123 C 
BRANCH  24  25
HETATM   25  C6  UNL     1     -10.550  16.585  34.749  1.00  0.00     0.029 C 
BRANCH  25  26
HETATM   26  C5  UNL     1     -11.401  15.365  34.658  1.00  0.00     0.104 C 
BRANCH  26  27
HETATM   27  C4  UNL     1     -12.462  15.398  33.638  1.00  0.00     0.217 C 
HETATM   28  N1  UNL     1     -12.275  14.691  32.402  1.00  0.00    -0.358 N 
ATOM     29  H1  UNL     1     -11.410  14.174  32.244  1.00  0.00     0.162 HD
HETATM   30  O2  UNL     1     -13.530  16.024  33.811  1.00  0.00    -0.274 OA
BRANCH  28  31
HETATM   31  C3  UNL     1     -13.282  14.701  31.391  1.00  0.00     0.165 C 
BRANCH  31  32
HETATM   32  C2  UNL     1     -13.634  13.309  30.940  1.00  0.00     0.239 C 
BRANCH  32  33
HETATM   33  O1  UNL     1     -12.435  12.667  30.586  1.00  0.00    -0.378 OA
HETATM   34  C1  UNL     1     -12.673  11.876  29.455  1.00  0.00     0.202 C 
ENDBRANCH  32  33
BRANCH  32  35
HETATM   35  C32 UNL     1     -14.262  12.520  32.003  1.00  0.00     0.204 C 
HETATM   36  O5  UNL     1     -13.668  12.082  33.038  1.00  0.00    -0.646 OA
HETATM   37  O6  UNL     1     -15.630  12.208  31.897  1.00  0.00    -0.646 OA
ENDBRANCH  32  35
ENDBRANCH  31  32
ENDBRANCH  28  31
ENDBRANCH  26  27
ENDBRANCH  25  26
ENDBRANCH  24  25
ENDBRANCH  21  24
ENDBRANCH   1  20
BRANCH   4  38
HETATM   38  O4  UNL     1     -10.610  18.530  28.040  1.00  0.00    -0.395 OA
ATOM     39  H4  UNL     1      -9.823  18.817  28.488  1.00  0.00     0.210 HD
ENDBRANCH   4  38
BRANCH  12  40
HETATM   40  C21 UNL     1      -8.979  16.935  21.601  1.00  0.00     0.009 C 
BRANCH  40  41
HETATM   41  C22 UNL     1      -8.122  16.950  20.399  1.00  0.00    -0.022 C 
HETATM   42  C23 UNL     1      -7.559  18.308  20.051  1.00  0.00     0.009 C 
HETATM   43  C24 UNL     1      -8.759  16.337  19.173  1.00  0.00     0.009 C 
ENDBRANCH  40  41
ENDBRANCH  12  40
TORSDOF 12
ENDMDL
MODEL 4
REMARK VINA RESULT: -9.711326775      0.991      1.429
REMARK  12 active torsions:
REMARK  status: ('A' for Active; 'I' for Inactive)
REMARK    1  A    between atoms: O1_2  and  C2_3 
REMARK    2  A    between atoms: C2_3  and  C3_4 
REMARK    3  A    between atoms: C2_3  and  C32_41 
REMARK    4  A    between atoms: C3_4  and  N1_5 
REMARK       I    between atoms: N1_5  and  C4_7 
REMARK    5  A    between atoms: C4_7  and  C5_9 
REMARK    6  A    between atoms: C5_9  and  C6_10 
REMARK    7  A    between atoms: C6_10  and  C7_11 
REMARK    8  A    between atoms: C7_11  and  N2_12 
REMARK       I    between atoms: N2_12  and  C8_14 
REMARK    9  A    between atoms: C8_14  and  C9_16 
REMARK   10  A    between atoms: C12_19  and  O4_20 
REMARK   11  A    between atoms: C20_29  and  C21_30 
REMARK   12  A    between atoms: C21_30  and  C22_31 
ROOT
HETATM    1  C9  UNL     1      -9.713  16.699  25.473  1.00  0.00     0.044 C 
HETATM    2  C10 UNL     1     -11.200  16.677  25.352  1.00  0.00     0.026 C 
HETATM    3  C11 UNL     1      -9.281  18.129  25.709  1.00  0.00     0.051 C 
HETATM    4  C12 UNL     1      -9.292  18.222  27.212  1.00  0.00     0.128 C 
HETATM    5  C13 UNL     1      -8.758  16.880  27.608  1.00  0.00    -0.009 C 
HETATM    6  C14 UNL     1      -7.226  17.054  27.465  1.00  0.00     0.018 C 
HETATM    7  C15 UNL     1      -8.957  16.516  29.045  1.00  0.00     0.001 C 
HETATM    8  C16 UNL     1      -8.677  17.639  29.968  1.00  0.00     0.007 C 
HETATM    9  C17 UNL     1      -9.142  17.444  31.368  1.00  0.00     0.010 C 
HETATM   10  C18 UNL     1      -9.752  16.134  31.667  1.00  0.00    -0.036 C 
HETATM   11  C19 UNL     1      -8.839  15.001  31.965  1.00  0.00     0.016 C 
HETATM   12  C20 UNL     1     -10.756  16.194  32.832  1.00  0.00    -0.006 C 
HETATM   13  C25 UNL     1     -11.478  14.912  32.624  1.00  0.00     0.006 C 
HETATM   14  C26 UNL     1     -11.297  14.520  31.144  1.00  0.00     0.006 C 
HETATM   15  C27 UNL     1     -10.791  15.797  30.585  1.00  0.00    -0.002 C 
HETATM   16  C28 UNL     1     -10.297  15.853  29.222  1.00  0.00    -0.005 C 
HETATM   17  C29 UNL     1     -10.123  14.495  28.526  1.00  0.00     0.006 C 
HETATM   18  C30 UNL     1     -10.108  14.803  27.051  1.00  0.00     0.007 C 
HETATM   19  C31 UNL     1      -9.174  15.870  26.617  1.00  0.00     0.014 C 
ENDROOT
BRANCH   1  20
HETATM   20  C8  UNL     1      -9.144  16.303  24.159  1.00  0.00     0.226 C 
HETATM   21  N2  UNL     1      -9.873  16.594  22.992  1.00  0.00    -0.360 N 
ATOM     22  H2  UNL     1     -10.770  17.070  23.081  1.00  0.00     0.162 HD
HETATM   23  O3  UNL     1      -8.015  15.707  24.099  1.00  0.00    -0.273 OA
BRANCH  21  24
HETATM   24  C7  UNL     1      -9.395  16.243  21.659  1.00  0.00     0.123 C 
BRANCH  24  25
HETATM   25  C6  UNL     1      -9.120  17.458  20.839  1.00  0.00     0.029 C 
BRANCH  25  26
HETATM   26  C5  UNL     1      -7.669  17.772  20.707  1.00  0.00     0.104 C 
BRANCH  26  27
HETATM   27  C4  UNL     1      -7.022  18.330  21.906  1.00  0.00     0.217 C 
HETATM   28  N1  UNL     1      -5.947  17.608  22.529  1.00  0.00    -0.358 N 
ATOM     29  H1  UNL     1      -5.644  16.718  22.134  1.00  0.00     0.162 HD
HETATM   30  O2  UNL     1      -7.377  19.419  22.406  1.00  0.00    -0.274 OA
BRANCH  28  31
HETATM   31  C3  UNL     1      -5.297  18.119  23.692  1.00  0.00     0.165 C 
BRANCH  31  32
HETATM   32  C2  UNL     1      -4.470  19.337  23.379  1.00  0.00     0.239 C 
BRANCH  32  33
HETATM   33  O1  UNL     1      -4.075  19.901  24.604  1.00  0.00    -0.378 OA
HETATM   34  C1  UNL     1      -5.207  20.031  25.417  1.00  0.00     0.202 C 
ENDBRANCH  32  33
BRANCH  32  35
HETATM   35  C32 UNL     1      -3.255  19.008  22.630  1.00  0.00     0.204 C 
HETATM   36  O5  UNL     1      -2.835  17.831  22.396  1.00  0.00    -0.646 OA
HETATM   37  O6  UNL     1      -2.471  20.057  22.116  1.00  0.00    -0.646 OA
ENDBRANCH  32  35
ENDBRANCH  31  32
ENDBRANCH  28  31
ENDBRANCH  26  27
ENDBRANCH  25  26
ENDBRANCH  24  25
ENDBRANCH  21  24
ENDBRANCH   1  20
BRANCH   4  38
HETATM   38  O4  UNL     1     -10.535  18.556  27.630  1.00  0.00    -0.395 OA
ATOM     39  H4  UNL     1     -10.530  18.667  28.574  1.00  0.00     0.210 HD
ENDBRANCH   4  38
BRANCH  12  40
HETATM   40  C21 UNL     1     -10.029  16.398  34.092  1.00  0.00     0.009 C 
BRANCH  40  41
HETATM   41  C22 UNL     1     -10.469  15.658  35.291  1.00  0.00    -0.022 C 
HETATM   42  C23 UNL     1     -11.917  15.877  35.663  1.00  0.00     0.009 C 
HETATM   43  C24 UNL     1      -9.597  15.868  36.507  1.00  0.00     0.009 C 
ENDBRANCH  40  41
ENDBRANCH  12  40
TORSDOF 12
ENDMDL
MODEL 5
REMARK VINA RESULT: -9.658039623      3.893     10.413
REMARK  12 active torsions:
REMARK  status: ('A' for Active; 'I' for Inactive)
REMARK    1  A    between atoms: O1_2  and  C2_3 
REMARK    2  A    between atoms: C2_3  and  C3_4 
REMARK    3  A    between atoms: C2_3  and  C32_41 
REMARK    4  A    between atoms: C3_4  and  N1_5 
REMARK       I    between atoms: N1_5  and  C4_7 
REMARK    5  A    between atoms: C4_7  and  C5_9 
REMARK    6  A    between atoms: C5_9  and  C6_10 
REMARK    7  A    between atoms: C6_10  and  C7_11 
REMARK    8  A    between atoms: C7_11  and  N2_12 
REMARK       I    between atoms: N2_12  and  C8_14 
REMARK    9  A    between atoms: C8_14  and  C9_16 
REMARK   10  A    between atoms: C12_19  and  O4_20 
REMARK   11  A    between atoms: C20_29  and  C21_30 
REMARK   12  A    between atoms: C21_30  and  C22_31 
ROOT
HETATM    1  C9  UNL     1      -9.660  16.760  30.315  1.00  0.00     0.044 C 
HETATM    2  C10 UNL     1      -8.872  18.018  30.465  1.00  0.00     0.026 C 
HETATM    3  C11 UNL     1     -11.099  17.136  30.042  1.00  0.00     0.051 C 
HETATM    4  C12 UNL     1     -11.132  17.203  28.538  1.00  0.00     0.128 C 
HETATM    5  C13 UNL     1     -10.252  16.052  28.158  1.00  0.00    -0.009 C 
HETATM    6  C14 UNL     1     -11.201  14.833  28.268  1.00  0.00     0.018 C 
HETATM    7  C15 UNL     1      -9.799  16.042  26.733  1.00  0.00     0.001 C 
HETATM    8  C16 UNL     1     -10.879  16.392  25.782  1.00  0.00     0.007 C 
HETATM    9  C17 UNL     1     -10.432  16.697  24.396  1.00  0.00     0.010 C 
HETATM   10  C18 UNL     1      -8.988  16.539  24.136  1.00  0.00    -0.036 C 
HETATM   11  C19 UNL     1      -8.487  15.173  23.842  1.00  0.00     0.016 C 
HETATM   12  C20 UNL     1      -8.487  17.435  22.989  1.00  0.00    -0.006 C 
HETATM   13  C25 UNL     1      -7.023  17.384  23.236  1.00  0.00     0.006 C 
HETATM   14  C26 UNL     1      -6.822  17.017  24.721  1.00  0.00     0.006 C 
HETATM   15  C27 UNL     1      -8.190  17.245  25.244  1.00  0.00    -0.002 C 
HETATM   16  C28 UNL     1      -8.532  16.843  26.596  1.00  0.00    -0.005 C 
HETATM   17  C29 UNL     1      -7.482  15.984  27.315  1.00  0.00     0.006 C 
HETATM   18  C30 UNL     1      -7.792  16.122  28.783  1.00  0.00     0.007 C 
HETATM   19  C31 UNL     1      -9.200  15.876  29.177  1.00  0.00     0.014 C 
ENDROOT
BRANCH   1  20
HETATM   20  C8  UNL     1      -9.652  16.060  31.625  1.00  0.00     0.226 C 
HETATM   21  N2  UNL     1      -9.440  16.815  32.793  1.00  0.00    -0.360 N 
ATOM     22  H2  UNL     1      -9.298  17.821  32.707  1.00  0.00     0.162 HD
HETATM   23  O3  UNL     1      -9.834  14.796  31.682  1.00  0.00    -0.273 OA
BRANCH  21  24
HETATM   24  C7  UNL     1      -9.416  16.214  34.123  1.00  0.00     0.123 C 
BRANCH  24  25
HETATM   25  C6  UNL     1     -10.664  16.514  34.881  1.00  0.00     0.029 C 
BRANCH  25  26
HETATM   26  C5  UNL     1     -11.561  15.335  35.042  1.00  0.00     0.104 C 
BRANCH  26  27
HETATM   27  C4  UNL     1     -12.512  15.098  33.943  1.00  0.00     0.217 C 
HETATM   28  N1  UNL     1     -12.383  13.913  33.140  1.00  0.00    -0.358 N 
ATOM     29  H1  UNL     1     -11.636  13.250  33.341  1.00  0.00     0.162 HD
HETATM   30  O2  UNL     1     -13.436  15.898  33.680  1.00  0.00    -0.274 OA
BRANCH  28  31
HETATM   31  C3  UNL     1     -13.286  13.652  32.067  1.00  0.00     0.165 C 
BRANCH  31  32
HETATM   32  C2  UNL     1     -14.267  12.565  32.416  1.00  0.00     0.239 C 
BRANCH  32  33
HETATM   33  O1  UNL     1     -15.345  13.171  33.084  1.00  0.00    -0.378 OA
HETATM   34  C1  UNL     1     -15.432  12.623  34.370  1.00  0.00     0.202 C 
ENDBRANCH  32  33
BRANCH  32  35
HETATM   35  C32 UNL     1     -14.802  11.894  31.228  1.00  0.00     0.204 C 
HETATM   36  O5  UNL     1     -14.104  11.307  30.342  1.00  0.00    -0.646 OA
HETATM   37  O6  UNL     1     -16.194  11.881  31.027  1.00  0.00    -0.646 OA
ENDBRANCH  32  35
ENDBRANCH  31  32
ENDBRANCH  28  31
ENDBRANCH  26  27
ENDBRANCH  25  26
ENDBRANCH  24  25
ENDBRANCH  21  24
ENDBRANCH   1  20
BRANCH   4  38
HETATM   38  O4  UNL     1     -10.760  18.441  28.137  1.00  0.00    -0.395 OA
ATOM     39  H4  UNL     1     -10.338  18.383  27.288  1.00  0.00     0.210 HD
ENDBRANCH   4  38
BRANCH  12  40
HETATM   40  C21 UNL     1      -9.004  16.928  21.711  1.00  0.00     0.009 C 
BRANCH  40  41
HETATM   41  C22 UNL     1      -8.118  16.945  20.532  1.00  0.00    -0.022 C 
HETATM   42  C23 UNL     1      -7.558  18.307  20.191  1.00  0.00     0.009 C 
HETATM   43  C24 UNL     1      -8.717  16.320  19.293  1.00  0.00     0.009 C 
ENDBRANCH  40  41
ENDBRANCH  12  40
TORSDOF 12
ENDMDL
