MODEL 1
REMARK VINA RESULT: -9.188211089      0.000      0.000
REMARK  16 active torsions:
REMARK  status: ('A' for Active; 'I' for Inactive)
REMARK       I    between atoms: C2_2  and  N1_4 
REMARK    1  A    between atoms: N1_4  and  C3_6 
REMARK    2  A    between atoms: C3_6  and  C4_7 
REMARK    3  A    between atoms: C3_6  and  C27_40 
REMARK    4  A    between atoms: C4_7  and  C5_8 
REMARK    5  A    between atoms: C5_8  and  C6_9 
REMARK    6  A    between atoms: C6_9  and  O2_10 
REMARK    7  A    between atoms: C6_9  and  N2_12 
REMARK    8  A    between atoms: N2_12  and  C7_13 
REMARK    9  A    between atoms: N2_12  and  C14_23 
REMARK   10  A    between atoms: C7_13  and  O3_14 
REMARK   11  A    between atoms: C7_13  and  N3_16 
REMARK   12  A    between atoms: C25_34  and  C26_35 
REMARK   13  A    between atoms: C26_35  and  O4_36 
REMARK   14  A    between atoms: C27_40  and  O5_41 
REMARK   15  A    between atoms: C27_40  and  C28_43 
REMARK   16  A    between atoms: C28_43  and  C29_44 
ROOT
HETATM    1  N2  UNL     1      -7.436  17.363  27.571  1.00  0.00    -0.292 N 
ENDROOT
BRANCH   1   2
HETATM    2  C6  UNL     1      -6.057  17.465  27.551  1.00  0.00     0.121 C 
BRANCH   2   3
HETATM    3  C5  UNL     1      -5.093  18.558  27.356  1.00  0.00     0.090 C 
BRANCH   3   4
HETATM    4  C4  UNL     1      -5.281  19.203  26.000  1.00  0.00     0.063 C 
BRANCH   4   5
HETATM    5  C3  UNL     1      -5.157  18.350  24.817  1.00  0.00     0.018 C 
BRANCH   5   6
HETATM    6  N1  UNL     1      -3.794  18.161  24.311  1.00  0.00    -0.332 N 
HETATM    7  C2  UNL     1      -2.936  17.129  24.748  1.00  0.00     0.217 C 
HETATM    8  C1  UNL     1      -1.579  17.008  24.192  1.00  0.00     0.117 C 
HETATM    9  O1  UNL     1      -3.336  16.320  25.608  1.00  0.00    -0.274 OA
ATOM     10  H1  UNL     1      -3.447  18.811  23.605  1.00  0.00     0.168 HD
ENDBRANCH   5   6
BRANCH   5  11
HETATM   11  C27 UNL     1      -6.152  18.500  23.711  1.00  0.00     0.164 C 
BRANCH  11  12
HETATM   12  O5  UNL     1      -6.781  19.716  23.692  1.00  0.00    -0.390 OA
ATOM     13  H5  UNL     1      -7.729  19.660  23.721  1.00  0.00     0.210 HD
ENDBRANCH  11  12
BRANCH  11  14
HETATM   14  C28 UNL     1      -5.669  18.124  22.343  1.00  0.00     0.041 C 
BRANCH  14  15
HETATM   15  C29 UNL     1      -6.623  17.153  21.712  1.00  0.00    -0.020 C 
HETATM   16  C30 UNL     1      -6.081  16.341  20.591  1.00  0.00     0.009 C 
HETATM   17  C31 UNL     1      -7.891  17.851  21.228  1.00  0.00     0.009 C 
ENDBRANCH  14  15
ENDBRANCH  11  14
ENDBRANCH   5  11
ENDBRANCH   4   5
ENDBRANCH   3   4
ENDBRANCH   2   3
BRANCH   2  18
HETATM   18  O2  UNL     1      -5.367  16.324  27.753  1.00  0.00    -0.349 OA
ATOM     19  H2  UNL     1      -5.988  15.631  27.945  1.00  0.00     0.219 HD
ENDBRANCH   2  18
ENDBRANCH   1   2
BRANCH   1  20
HETATM   20  C7  UNL     1      -8.403  17.578  26.617  1.00  0.00     0.224 C 
BRANCH  20  21
HETATM   21  O3  UNL     1      -8.945  18.815  26.793  1.00  0.00    -0.332 OA
ATOM     22  H3  UNL     1      -8.610  19.403  26.126  1.00  0.00     0.221 HD
ENDBRANCH  20  21
BRANCH  20  23
HETATM   23  N3  UNL     1      -9.037  17.007  25.537  1.00  0.00    -0.338 N 
HETATM   24  C8  UNL     1     -10.416  17.226  25.110  1.00  0.00     0.206 C 
HETATM   25  C9  UNL     1     -10.697  16.450  23.935  1.00  0.00    -0.163 C 
HETATM   26  C10 UNL     1     -10.749  15.601  22.830  1.00  0.00     0.081 C 
HETATM   27  C11 UNL     1      -9.416  14.770  22.830  1.00  0.00     0.013 C 
HETATM   28  C12 UNL     1      -8.749  14.857  24.198  1.00  0.00     0.021 C 
HETATM   29  C13 UNL     1      -8.181  16.083  24.708  1.00  0.00     0.127 C 
ENDBRANCH  20  23
ENDBRANCH   1  20
BRANCH   1  30
HETATM   30  C14 UNL     1      -7.972  16.913  28.892  1.00  0.00     0.095 C 
HETATM   31  C15 UNL     1      -7.702  17.831  30.016  1.00  0.00     0.028 C 
HETATM   32  C16 UNL     1      -8.862  17.854  30.990  1.00  0.00     0.032 C 
HETATM   33  C17 UNL     1      -9.374  16.478  31.352  1.00  0.00     0.026 C 
HETATM   34  C18 UNL     1      -9.531  15.577  30.116  1.00  0.00     0.032 C 
HETATM   35  C20 UNL     1      -8.367  15.840  32.234  1.00  0.00     0.031 C 
HETATM   36  N4  UNL     1     -10.681  16.627  31.881  1.00  0.00    -0.406 N 
HETATM   37  C19 UNL     1      -9.393  16.500  28.870  1.00  0.00     0.028 C 
HETATM   38  C21 UNL     1      -8.565  16.187  33.702  1.00  0.00     0.013 C 
HETATM   39  C22 UNL     1      -9.950  15.677  34.042  1.00  0.00    -0.025 C 
HETATM   40  C23 UNL     1     -10.220  16.034  35.489  1.00  0.00     0.017 C 
HETATM   41  C24 UNL     1      -9.874  14.148  33.998  1.00  0.00     0.017 C 
HETATM   42  C25 UNL     1     -11.000  16.228  33.170  1.00  0.00     0.108 C 
ATOM     43  H4  UNL     1     -11.408  17.041  31.297  1.00  0.00     0.154 HD
BRANCH  42  44
HETATM   44  C26 UNL     1     -12.137  15.195  33.101  1.00  0.00     0.189 C 
BRANCH  44  45
HETATM   45  O4  UNL     1     -13.347  15.865  33.313  1.00  0.00    -0.399 OA
ATOM     46  H4  UNL     1     -14.047  15.223  33.298  1.00  0.00     0.209 HD
ENDBRANCH  44  45
ENDBRANCH  42  44
ENDBRANCH   1  30
TORSDOF 16
ENDMDL
MODEL 2
REMARK VINA RESULT: -9.126696116      1.193      1.684
REMARK  16 active torsions:
REMARK  status: ('A' for Active; 'I' for Inactive)
REMARK       I    between atoms: C2_2  and  N1_4 
REMARK    1  A    between atoms: N1_4  and  C3_6 
REMARK    2  A    between atoms: C3_6  and  C4_7 
REMARK    3  A    between atoms: C3_6  and  C27_40 
REMARK    4  A    between atoms: C4_7  and  C5_8 
REMARK    5  A    between atoms: C5_8  and  C6_9 
REMARK    6  A    between atoms: C6_9  and  O2_10 
REMARK    7  A    between atoms: C6_9  and  N2_12 
REMARK    8  A    between atoms: N2_12  and  C7_13 
REMARK    9  A    between atoms: N2_12  and  C14_23 
REMARK   10  A    between atoms: C7_13  and  O3_14 
REMARK   11  A    between atoms: C7_13  and  N3_16 
REMARK   12  A    between atoms: C25_34  and  C26_35 
REMARK   13  A    between atoms: C26_35  and  O4_36 
REMARK   14  A    between atoms: C27_40  and  O5_41 
REMARK   15  A    between atoms: C27_40  and  C28_43 
REMARK   16  A    between atoms: C28_43  and  C29_44 
ROOT
HETATM    1  N2  UNL     1      -7.969  16.389  28.227  1.00  0.00    -0.292 N 
ENDROOT
BRANCH   1   2
HETATM    2  C6  UNL     1      -7.226  17.557  28.233  1.00  0.00     0.121 C 
BRANCH   2   3
HETATM    3  C5  UNL     1      -5.800  17.887  28.097  1.00  0.00     0.090 C 
BRANCH   3   4
HETATM    4  C4  UNL     1      -5.561  18.730  26.863  1.00  0.00     0.063 C 
BRANCH   4   5
HETATM    5  C3  UNL     1      -5.599  18.062  25.563  1.00  0.00     0.018 C 
BRANCH   5   6
HETATM    6  N1  UNL     1      -4.360  18.121  24.781  1.00  0.00    -0.332 N 
HETATM    7  C2  UNL     1      -3.296  17.207  24.938  1.00  0.00     0.217 C 
HETATM    8  C1  UNL     1      -2.082  17.336  24.116  1.00  0.00     0.117 C 
HETATM    9  O1  UNL     1      -3.390  16.292  25.778  1.00  0.00    -0.274 OA
ATOM     10  H1  UNL     1      -4.263  18.862  24.087  1.00  0.00     0.168 HD
ENDBRANCH   5   6
BRANCH   5  11
HETATM   11  C27 UNL     1      -6.814  18.221  24.704  1.00  0.00     0.164 C 
BRANCH  11  12
HETATM   12  O5  UNL     1      -7.847  18.874  25.322  1.00  0.00    -0.390 OA
ATOM     13  H5  UNL     1      -8.336  19.450  24.746  1.00  0.00     0.210 HD
ENDBRANCH  11  12
BRANCH  11  14
HETATM   14  C28 UNL     1      -6.575  18.770  23.331  1.00  0.00     0.041 C 
BRANCH  14  15
HETATM   15  C29 UNL     1      -6.828  17.707  22.303  1.00  0.00    -0.020 C 
HETATM   16  C30 UNL     1      -5.682  17.368  21.419  1.00  0.00     0.009 C 
HETATM   17  C31 UNL     1      -8.024  18.055  21.422  1.00  0.00     0.009 C 
ENDBRANCH  14  15
ENDBRANCH  11  14
ENDBRANCH   5  11
ENDBRANCH   4   5
ENDBRANCH   3   4
ENDBRANCH   2   3
BRANCH   2  18
HETATM   18  O2  UNL     1      -7.912  18.705  28.399  1.00  0.00    -0.349 OA
ATOM     19  H2  UNL     1      -8.810  18.486  28.619  1.00  0.00     0.219 HD
ENDBRANCH   2  18
ENDBRANCH   1   2
BRANCH   1  20
HETATM   20  C7  UNL     1      -8.274  15.480  27.242  1.00  0.00     0.224 C 
BRANCH  20  21
HETATM   21  O3  UNL     1      -8.077  14.219  27.715  1.00  0.00    -0.332 OA
ATOM     22  H3  UNL     1      -8.915  13.776  27.790  1.00  0.00     0.221 HD
ENDBRANCH  20  21
BRANCH  20  23
HETATM   23  N3  UNL     1      -8.710  15.362  25.942  1.00  0.00    -0.338 N 
HETATM   24  C8  UNL     1      -7.965  14.817  24.811  1.00  0.00     0.206 C 
HETATM   25  C9  UNL     1      -8.769  14.865  23.621  1.00  0.00    -0.163 C 
HETATM   26  C10 UNL     1      -9.709  15.034  22.605  1.00  0.00     0.081 C 
HETATM   27  C11 UNL     1     -10.883  15.887  23.208  1.00  0.00     0.013 C 
HETATM   28  C12 UNL     1     -10.427  16.568  24.492  1.00  0.00     0.021 C 
HETATM   29  C13 UNL     1     -10.122  15.830  25.696  1.00  0.00     0.127 C 
ENDBRANCH  20  23
ENDBRANCH   1  20
BRANCH   1  30
HETATM   30  C14 UNL     1      -8.536  16.049  29.568  1.00  0.00     0.095 C 
HETATM   31  C15 UNL     1      -8.025  16.868  30.684  1.00  0.00     0.028 C 
HETATM   32  C16 UNL     1      -9.110  17.130  31.707  1.00  0.00     0.032 C 
HETATM   33  C17 UNL     1      -9.897  15.895  32.084  1.00  0.00     0.026 C 
HETATM   34  C18 UNL     1     -10.299  15.069  30.852  1.00  0.00     0.032 C 
HETATM   35  C20 UNL     1      -9.019  15.038  32.918  1.00  0.00     0.031 C 
HETATM   36  N4  UNL     1     -11.116  16.319  32.670  1.00  0.00    -0.406 N 
HETATM   37  C19 UNL     1     -10.013  15.957  29.605  1.00  0.00     0.028 C 
HETATM   38  C21 UNL     1      -9.076  15.398  34.395  1.00  0.00     0.013 C 
HETATM   39  C22 UNL     1     -10.523  15.200  34.793  1.00  0.00    -0.025 C 
HETATM   40  C23 UNL     1     -10.649  15.585  36.252  1.00  0.00     0.017 C 
HETATM   41  C24 UNL     1     -10.787  13.692  34.736  1.00  0.00     0.017 C 
HETATM   42  C25 UNL     1     -11.462  15.980  33.970  1.00  0.00     0.108 C 
ATOM     43  H4  UNL     1     -11.758  16.891  32.120  1.00  0.00     0.154 HD
BRANCH  42  44
HETATM   44  C26 UNL     1     -12.799  15.223  33.944  1.00  0.00     0.189 C 
BRANCH  44  45
HETATM   45  O4  UNL     1     -13.742  16.026  33.291  1.00  0.00    -0.399 OA
ATOM     46  H4  UNL     1     -14.222  16.515  33.950  1.00  0.00     0.209 HD
ENDBRANCH  44  45
ENDBRANCH  42  44
ENDBRANCH   1  30
TORSDOF 16
ENDMDL
MODEL 3
REMARK VINA RESULT: -8.889182739      1.411      2.918
REMARK  16 active torsions:
REMARK  status: ('A' for Active; 'I' for Inactive)
REMARK       I    between atoms: C2_2  and  N1_4 
REMARK    1  A    between atoms: N1_4  and  C3_6 
REMARK    2  A    between atoms: C3_6  and  C4_7 
REMARK    3  A    between atoms: C3_6  and  C27_40 
REMARK    4  A    between atoms: C4_7  and  C5_8 
REMARK    5  A    between atoms: C5_8  and  C6_9 
REMARK    6  A    between atoms: C6_9  and  O2_10 
REMARK    7  A    between atoms: C6_9  and  N2_12 
REMARK    8  A    between atoms: N2_12  and  C7_13 
REMARK    9  A    between atoms: N2_12  and  C14_23 
REMARK   10  A    between atoms: C7_13  and  O3_14 
REMARK   11  A    between atoms: C7_13  and  N3_16 
REMARK   12  A    between atoms: C25_34  and  C26_35 
REMARK   13  A    between atoms: C26_35  and  O4_36 
REMARK   14  A    between atoms: C27_40  and  O5_41 
REMARK   15  A    between atoms: C27_40  and  C28_43 
REMARK   16  A    between atoms: C28_43  and  C29_44 
ROOT
HETATM    1  N2  UNL     1      -7.631  16.333  27.985  1.00  0.00    -0.292 N 
ENDROOT
BRANCH   1   2
HETATM    2  C6  UNL     1      -6.754  17.403  27.968  1.00  0.00     0.121 C 
BRANCH   2   3
HETATM    3  C5  UNL     1      -5.297  17.562  28.096  1.00  0.00     0.090 C 
BRANCH   3   4
HETATM    4  C4  UNL     1      -4.574  16.701  27.083  1.00  0.00     0.063 C 
BRANCH   4   5
HETATM    5  C3  UNL     1      -4.260  17.296  25.784  1.00  0.00     0.018 C 
BRANCH   5   6
HETATM    6  N1  UNL     1      -5.358  17.320  24.814  1.00  0.00    -0.332 N 
HETATM    7  C2  UNL     1      -6.148  18.462  24.559  1.00  0.00     0.217 C 
HETATM    8  C1  UNL     1      -7.236  18.404  23.570  1.00  0.00     0.117 C 
HETATM    9  O1  UNL     1      -5.918  19.520  25.177  1.00  0.00    -0.274 OA
ATOM     10  H1  UNL     1      -5.563  16.466  24.296  1.00  0.00     0.168 HD
ENDBRANCH   5   6
BRANCH   5  11
HETATM   11  C27 UNL     1      -2.948  16.975  25.141  1.00  0.00     0.164 C 
BRANCH  11  12
HETATM   12  O5  UNL     1      -2.639  15.641  25.149  1.00  0.00    -0.390 OA
ATOM     13  H5  UNL     1      -1.767  15.446  24.826  1.00  0.00     0.210 HD
ENDBRANCH  11  12
BRANCH  11  14
HETATM   14  C28 UNL     1      -2.723  17.570  23.784  1.00  0.00     0.041 C 
BRANCH  14  15
HETATM   15  C29 UNL     1      -1.447  17.042  23.198  1.00  0.00    -0.020 C 
HETATM   16  C30 UNL     1      -0.197  17.713  23.646  1.00  0.00     0.009 C 
HETATM   17  C31 UNL     1      -1.482  17.064  21.673  1.00  0.00     0.009 C 
ENDBRANCH  14  15
ENDBRANCH  11  14
ENDBRANCH   5  11
ENDBRANCH   4   5
ENDBRANCH   3   4
ENDBRANCH   2   3
BRANCH   2  18
HETATM   18  O2  UNL     1      -7.299  18.624  27.798  1.00  0.00    -0.349 OA
ATOM     19  H2  UNL     1      -8.032  18.710  28.396  1.00  0.00     0.219 HD
ENDBRANCH   2  18
ENDBRANCH   1   2
BRANCH   1  20
HETATM   20  C7  UNL     1      -8.056  15.457  27.015  1.00  0.00     0.224 C 
BRANCH  20  21
HETATM   21  O3  UNL     1      -7.923  14.180  27.470  1.00  0.00    -0.332 OA
ATOM     22  H3  UNL     1      -7.422  13.673  26.842  1.00  0.00     0.221 HD
ENDBRANCH  20  21
BRANCH  20  23
HETATM   23  N3  UNL     1      -8.572  15.382  25.741  1.00  0.00    -0.338 N 
HETATM   24  C8  UNL     1      -7.891  14.900  24.543  1.00  0.00     0.206 C 
HETATM   25  C9  UNL     1      -8.771  14.978  23.411  1.00  0.00    -0.163 C 
HETATM   26  C10 UNL     1      -9.777  15.168  22.464  1.00  0.00     0.081 C 
HETATM   27  C11 UNL     1     -10.926  15.969  23.175  1.00  0.00     0.013 C 
HETATM   28  C12 UNL     1     -10.402  16.607  24.456  1.00  0.00     0.021 C 
HETATM   29  C13 UNL     1     -10.006  15.828  25.606  1.00  0.00     0.127 C 
ENDBRANCH  20  23
ENDBRANCH   1  20
BRANCH   1  30
HETATM   30  C14 UNL     1      -8.215  16.076  29.338  1.00  0.00     0.095 C 
HETATM   31  C15 UNL     1      -7.872  17.080  30.363  1.00  0.00     0.028 C 
HETATM   32  C16 UNL     1      -9.033  17.310  31.309  1.00  0.00     0.032 C 
HETATM   33  C17 UNL     1      -9.670  16.031  31.805  1.00  0.00     0.026 C 
HETATM   34  C18 UNL     1      -9.899  15.022  30.668  1.00  0.00     0.032 C 
HETATM   35  C20 UNL     1      -8.732  15.403  32.766  1.00  0.00     0.031 C 
HETATM   36  N4  UNL     1     -10.962  16.352  32.293  1.00  0.00    -0.406 N 
HETATM   37  C19 UNL     1      -9.668  15.790  29.334  1.00  0.00     0.028 C 
HETATM   38  C21 UNL     1      -8.909  15.920  34.186  1.00  0.00     0.013 C 
HETATM   39  C22 UNL     1     -10.337  15.575  34.554  1.00  0.00    -0.025 C 
HETATM   40  C23 UNL     1     -10.585  16.106  35.950  1.00  0.00     0.017 C 
HETATM   41  C24 UNL     1     -10.400  14.049  34.672  1.00  0.00     0.017 C 
HETATM   42  C25 UNL     1     -11.326  16.121  33.611  1.00  0.00     0.108 C 
ATOM     43  H4  UNL     1     -11.644  16.764  31.655  1.00  0.00     0.154 HD
BRANCH  42  44
HETATM   44  C26 UNL     1     -12.551  15.193  33.630  1.00  0.00     0.189 C 
BRANCH  44  45
HETATM   45  O4  UNL     1     -13.696  15.978  33.460  1.00  0.00    -0.399 OA
ATOM     46  H4  UNL     1     -14.447  15.474  33.751  1.00  0.00     0.209 HD
ENDBRANCH  44  45
ENDBRANCH  42  44
ENDBRANCH   1  30
TORSDOF 16
ENDMDL
MODEL 4
REMARK VINA RESULT: -8.797750913      2.143      4.645
REMARK  16 active torsions:
REMARK  status: ('A' for Active; 'I' for Inactive)
REMARK       I    between atoms: C2_2  and  N1_4 
REMARK    1  A    between atoms: N1_4  and  C3_6 
REMARK    2  A    between atoms: C3_6  and  C4_7 
REMARK    3  A    between atoms: C3_6  and  C27_40 
REMARK    4  A    between atoms: C4_7  and  C5_8 
REMARK    5  A    between atoms: C5_8  and  C6_9 
REMARK    6  A    between atoms: C6_9  and  O2_10 
REMARK    7  A    between atoms: C6_9  and  N2_12 
REMARK    8  A    between atoms: N2_12  and  C7_13 
REMARK    9  A    between atoms: N2_12  and  C14_23 
REMARK   10  A    between atoms: C7_13  and  O3_14 
REMARK   11  A    between atoms: C7_13  and  N3_16 
REMARK   12  A    between atoms: C25_34  and  C26_35 
REMARK   13  A    between atoms: C26_35  and  O4_36 
REMARK   14  A    between atoms: C27_40  and  O5_41 
REMARK   15  A    between atoms: C27_40  and  C28_43 
REMARK   16  A    between atoms: C28_43  and  C29_44 
ROOT
HETATM    1  N2  UNL     1      -9.924  17.084  26.772  1.00  0.00    -0.292 N 
ENDROOT
BRANCH   1   2
HETATM    2  C6  UNL     1     -10.493  16.506  25.651  1.00  0.00     0.121 C 
BRANCH   2   3
HETATM    3  C5  UNL     1     -10.125  15.412  24.739  1.00  0.00     0.090 C 
BRANCH   3   4
HETATM    4  C4  UNL     1     -10.196  15.870  23.298  1.00  0.00     0.063 C 
BRANCH   4   5
HETATM    5  C3  UNL     1      -9.049  16.599  22.757  1.00  0.00     0.018 C 
BRANCH   5   6
HETATM    6  N1  UNL     1      -8.658  16.244  21.389  1.00  0.00    -0.332 N 
HETATM    7  C2  UNL     1      -8.789  17.120  20.290  1.00  0.00     0.217 C 
HETATM    8  C1  UNL     1      -8.377  16.687  18.945  1.00  0.00     0.117 C 
HETATM    9  O1  UNL     1      -9.258  18.261  20.465  1.00  0.00    -0.274 OA
ATOM     10  H1  UNL     1      -8.271  15.315  21.224  1.00  0.00     0.168 HD
ENDBRANCH   5   6
BRANCH   5  11
HETATM   11  C27 UNL     1      -7.863  16.835  23.638  1.00  0.00     0.164 C 
BRANCH  11  12
HETATM   12  O5  UNL     1      -6.969  15.798  23.654  1.00  0.00    -0.390 OA
ATOM     13  H5  UNL     1      -7.142  15.152  24.328  1.00  0.00     0.210 HD
ENDBRANCH  11  12
BRANCH  11  14
HETATM   14  C28 UNL     1      -7.161  18.146  23.449  1.00  0.00     0.041 C 
BRANCH  14  15
HETATM   15  C29 UNL     1      -5.725  17.910  23.086  1.00  0.00    -0.020 C 
HETATM   16  C30 UNL     1      -4.729  18.781  23.764  1.00  0.00     0.009 C 
HETATM   17  C31 UNL     1      -5.505  18.015  21.580  1.00  0.00     0.009 C 
ENDBRANCH  14  15
ENDBRANCH  11  14
ENDBRANCH   5  11
ENDBRANCH   4   5
ENDBRANCH   3   4
ENDBRANCH   2   3
BRANCH   2  18
HETATM   18  O2  UNL     1     -11.670  17.020  25.241  1.00  0.00    -0.349 OA
ATOM     19  H2  UNL     1     -12.320  16.848  25.913  1.00  0.00     0.219 HD
ENDBRANCH   2  18
ENDBRANCH   1   2
BRANCH   1  20
HETATM   20  C7  UNL     1      -8.926  18.015  26.939  1.00  0.00     0.224 C 
BRANCH  20  21
HETATM   21  O3  UNL     1      -9.471  19.263  26.953  1.00  0.00    -0.332 OA
ATOM     22  H3  UNL     1     -10.125  19.313  27.641  1.00  0.00     0.221 HD
ENDBRANCH  20  21
BRANCH  20  23
HETATM   23  N3  UNL     1      -7.568  18.163  27.101  1.00  0.00    -0.338 N 
HETATM   24  C8  UNL     1      -6.804  19.406  27.033  1.00  0.00     0.206 C 
HETATM   25  C9  UNL     1      -5.411  19.141  27.260  1.00  0.00    -0.163 C 
HETATM   26  C10 UNL     1      -4.124  18.651  27.477  1.00  0.00     0.081 C 
HETATM   27  C11 UNL     1      -4.223  17.083  27.442  1.00  0.00     0.013 C 
HETATM   28  C12 UNL     1      -5.533  16.657  26.791  1.00  0.00     0.021 C 
HETATM   29  C13 UNL     1      -6.818  16.891  27.409  1.00  0.00     0.127 C 
ENDBRANCH  20  23
ENDBRANCH   1  20
BRANCH   1  30
HETATM   30  C14 UNL     1     -10.534  16.606  28.051  1.00  0.00     0.095 C 
HETATM   31  C15 UNL     1     -10.601  15.140  28.196  1.00  0.00     0.028 C 
HETATM   32  C16 UNL     1     -10.372  14.725  29.635  1.00  0.00     0.032 C 
HETATM   33  C17 UNL     1     -11.167  15.538  30.632  1.00  0.00     0.026 C 
HETATM   34  C18 UNL     1     -11.101  17.044  30.332  1.00  0.00     0.032 C 
HETATM   35  C20 UNL     1     -12.588  15.130  30.517  1.00  0.00     0.031 C 
HETATM   36  N4  UNL     1     -10.560  15.378  31.904  1.00  0.00    -0.406 N 
HETATM   37  C19 UNL     1      -9.980  17.240  29.269  1.00  0.00     0.028 C 
HETATM   38  C21 UNL     1     -12.929  13.927  31.383  1.00  0.00     0.013 C 
HETATM   39  C22 UNL     1     -12.629  14.367  32.801  1.00  0.00    -0.025 C 
HETATM   40  C23 UNL     1     -12.912  13.189  33.709  1.00  0.00     0.017 C 
HETATM   41  C24 UNL     1     -13.675  15.428  33.157  1.00  0.00     0.017 C 
HETATM   42  C25 UNL     1     -11.247  14.838  32.981  1.00  0.00     0.108 C 
ATOM     43  H4  UNL     1      -9.590  15.669  32.030  1.00  0.00     0.154 HD
BRANCH  42  44
HETATM   44  C26 UNL     1     -11.249  15.861  34.129  1.00  0.00     0.189 C 
BRANCH  44  45
HETATM   45  O4  UNL     1     -10.112  16.666  33.998  1.00  0.00    -0.399 OA
ATOM     46  H4  UNL     1     -10.386  17.515  33.670  1.00  0.00     0.209 HD
ENDBRANCH  44  45
ENDBRANCH  42  44
ENDBRANCH   1  30
TORSDOF 16
ENDMDL
MODEL 5
REMARK VINA RESULT: -8.777246621      1.241      2.719
REMARK  16 active torsions:
REMARK  status: ('A' for Active; 'I' for Inactive)
REMARK       I    between atoms: C2_2  and  N1_4 
REMARK    1  A    between atoms: N1_4  and  C3_6 
REMARK    2  A    between atoms: C3_6  and  C4_7 
REMARK    3  A    between atoms: C3_6  and  C27_40 
REMARK    4  A    between atoms: C4_7  and  C5_8 
REMARK    5  A    between atoms: C5_8  and  C6_9 
REMARK    6  A    between atoms: C6_9  and  O2_10 
REMARK    7  A    between atoms: C6_9  and  N2_12 
REMARK    8  A    between atoms: N2_12  and  C7_13 
REMARK    9  A    between atoms: N2_12  and  C14_23 
REMARK   10  A    between atoms: C7_13  and  O3_14 
REMARK   11  A    between atoms: C7_13  and  N3_16 
REMARK   12  A    between atoms: C25_34  and  C26_35 
REMARK   13  A    between atoms: C26_35  and  O4_36 
REMARK   14  A    between atoms: C27_40  and  O5_41 
REMARK   15  A    between atoms: C27_40  and  C28_43 
REMARK   16  A    between atoms: C28_43  and  C29_44 
ROOT
HETATM    1  N2  UNL     1      -6.655  17.239  27.264  1.00  0.00    -0.292 N 
ENDROOT
BRANCH   1   2
HETATM    2  C6  UNL     1      -5.277  17.138  27.332  1.00  0.00     0.121 C 
BRANCH   2   3
HETATM    3  C5  UNL     1      -4.147  17.774  26.638  1.00  0.00     0.090 C 
BRANCH   3   4
HETATM    4  C4  UNL     1      -3.777  16.999  25.393  1.00  0.00     0.063 C 
BRANCH   4   5
HETATM    5  C3  UNL     1      -3.701  17.733  24.130  1.00  0.00     0.018 C 
BRANCH   5   6
HETATM    6  N1  UNL     1      -4.930  17.751  23.331  1.00  0.00    -0.332 N 
HETATM    7  C2  UNL     1      -5.789  18.868  23.248  1.00  0.00     0.217 C 
HETATM    8  C1  UNL     1      -7.007  18.806  22.425  1.00  0.00     0.117 C 
HETATM    9  O1  UNL     1      -5.510  19.907  23.877  1.00  0.00    -0.274 OA
ATOM     10  H1  UNL     1      -5.177  16.912  22.807  1.00  0.00     0.168 HD
ENDBRANCH   5   6
BRANCH   5  11
HETATM   11  C27 UNL     1      -2.479  17.584  23.280  1.00  0.00     0.164 C 
BRANCH  11  12
HETATM   12  O5  UNL     1      -2.239  18.656  22.462  1.00  0.00    -0.390 OA
ATOM     13  H5  UNL     1      -1.504  19.191  22.737  1.00  0.00     0.210 HD
ENDBRANCH  11  12
BRANCH  11  14
HETATM   14  C28 UNL     1      -1.232  17.165  23.997  1.00  0.00     0.041 C 
BRANCH  14  15
HETATM   15  C29 UNL     1      -0.734  15.864  23.442  1.00  0.00    -0.020 C 
HETATM   16  C30 UNL     1      -1.281  15.467  22.118  1.00  0.00     0.009 C 
HETATM   17  C31 UNL     1      -0.965  14.715  24.419  1.00  0.00     0.009 C 
ENDBRANCH  14  15
ENDBRANCH  11  14
ENDBRANCH   5  11
ENDBRANCH   4   5
ENDBRANCH   3   4
ENDBRANCH   2   3
BRANCH   2  18
HETATM   18  O2  UNL     1      -4.782  16.263  28.230  1.00  0.00    -0.349 OA
ATOM     19  H2  UNL     1      -4.853  16.651  29.094  1.00  0.00     0.219 HD
ENDBRANCH   2  18
ENDBRANCH   1   2
BRANCH   1  20
HETATM   20  C7  UNL     1      -7.518  17.597  26.254  1.00  0.00     0.224 C 
BRANCH  20  21
HETATM   21  O3  UNL     1      -7.491  18.949  26.097  1.00  0.00    -0.332 OA
ATOM     22  H3  UNL     1      -8.138  19.203  25.449  1.00  0.00     0.221 HD
ENDBRANCH  20  21
BRANCH  20  23
HETATM   23  N3  UNL     1      -8.407  17.098  25.331  1.00  0.00    -0.338 N 
HETATM   24  C8  UNL     1      -9.781  17.537  25.107  1.00  0.00     0.206 C 
HETATM   25  C9  UNL     1     -10.379  16.768  24.051  1.00  0.00    -0.163 C 
HETATM   26  C10 UNL     1     -10.754  15.892  23.033  1.00  0.00     0.081 C 
HETATM   27  C11 UNL     1      -9.596  14.839  22.890  1.00  0.00     0.013 C 
HETATM   28  C12 UNL     1      -8.707  14.870  24.127  1.00  0.00     0.021 C 
HETATM   29  C13 UNL     1      -7.866  15.999  24.451  1.00  0.00     0.127 C 
ENDBRANCH  20  23
ENDBRANCH   1  20
BRANCH   1  30
HETATM   30  C14 UNL     1      -7.334  16.866  28.543  1.00  0.00     0.095 C 
HETATM   31  C15 UNL     1      -7.429  17.954  29.535  1.00  0.00     0.028 C 
HETATM   32  C16 UNL     1      -8.731  17.876  30.305  1.00  0.00     0.032 C 
HETATM   33  C17 UNL     1      -9.058  16.484  30.799  1.00  0.00     0.026 C 
HETATM   34  C18 UNL     1      -8.836  15.420  29.712  1.00  0.00     0.032 C 
HETATM   35  C20 UNL     1      -8.131  16.172  31.913  1.00  0.00     0.031 C 
HETATM   36  N4  UNL     1     -10.444  16.443  31.092  1.00  0.00    -0.406 N 
HETATM   37  C19 UNL     1      -8.637  16.185  28.370  1.00  0.00     0.028 C 
HETATM   38  C21 UNL     1      -8.644  16.658  33.261  1.00  0.00     0.013 C 
HETATM   39  C22 UNL     1      -9.960  15.937  33.463  1.00  0.00    -0.025 C 
HETATM   40  C23 UNL     1     -10.541  16.416  34.777  1.00  0.00     0.017 C 
HETATM   41  C24 UNL     1      -9.619  14.459  33.673  1.00  0.00     0.017 C 
HETATM   42  C25 UNL     1     -10.916  16.157  32.365  1.00  0.00     0.108 C 
ATOM     43  H4  UNL     1     -11.115  16.629  30.346  1.00  0.00     0.154 HD
BRANCH  42  44
HETATM   44  C26 UNL     1     -11.829  14.923  32.288  1.00  0.00     0.189 C 
BRANCH  44  45
HETATM   45  O4  UNL     1     -13.147  15.365  32.123  1.00  0.00    -0.399 OA
ATOM     46  H4  UNL     1     -13.703  14.863  32.707  1.00  0.00     0.209 HD
ENDBRANCH  44  45
ENDBRANCH  42  44
ENDBRANCH   1  30
TORSDOF 16
ENDMDL
