MODEL 1
REMARK VINA RESULT: -7.312648582      0.000      0.000
REMARK  12 active torsions:
REMARK  status: ('A' for Active; 'I' for Inactive)
REMARK    1  A    between atoms: N1_1  and  C1_5 
REMARK    2  A    between atoms: C1_5  and  C2_6 
REMARK    3  A    between atoms: C2_6  and  C3_7 
REMARK       I    between atoms: C3_7  and  N2_9 
REMARK    4  A    between atoms: N2_9  and  C4_11 
REMARK    5  A    between atoms: C5_12  and  O2_13 
REMARK    6  A    between atoms: C6_16  and  N3_17 
REMARK    7  A    between atoms: C9_22  and  N5_23 
REMARK    8  A    between atoms: N5_23  and  C10_24 
REMARK    9  A    between atoms: C10_24  and  C11_25 
REMARK   10  A    between atoms: C12_28  and  C13_29 
REMARK   11  A    between atoms: C13_29  and  N7_30 
REMARK   12  A    between atoms: C13_29  and  O4_34 
ROOT
HETATM    1  N3  UNL     1      12.175 -11.494  62.699  1.00  0.00    -0.297 N 
HETATM    2  C7  UNL     1      12.998 -12.399  62.137  1.00  0.00     0.188 A 
HETATM    3  N4  UNL     1      12.289 -13.293  61.421  1.00  0.00    -0.345 N 
ATOM      4  H4  UNL     1      12.671 -14.080  60.898  1.00  0.00     0.167 HD
HETATM    5  C8  UNL     1      11.004 -12.968  61.516  1.00  0.00     0.137 A 
HETATM    6  C9  UNL     1       9.859 -13.571  60.964  1.00  0.00     0.210 A 
HETATM    7  N11 UNL     1       8.687 -12.945  61.288  1.00  0.00    -0.325 N 
ATOM      8  H11 UNL     1       7.818 -13.330  60.919  1.00  0.00     0.169 HD
HETATM    9  C17 UNL     1       8.616 -11.857  62.060  1.00  0.00     0.184 A 
HETATM   10  N12 UNL     1       9.722 -11.303  62.575  1.00  0.00    -0.336 N 
ATOM     11  H12 UNL     1       9.650 -10.472  63.163  1.00  0.00     0.168 HD
HETATM   12  C18 UNL     1      10.936 -11.846  62.314  1.00  0.00     0.143 A 
ENDROOT
BRANCH   6  13
HETATM   13  N5  UNL     1       9.969 -14.545  60.274  1.00  0.00    -0.394 NA
BRANCH  13  14
HETATM   14  C10 UNL     1       9.958 -15.619  59.489  1.00  0.00     0.235 C 
BRANCH  14  15
HETATM   15  C11 UNL     1      11.261 -15.787  58.742  1.00  0.00     0.157 A 
HETATM   16  N6  UNL     1      12.057 -14.783  58.413  1.00  0.00    -0.337 N 
HETATM   17  C12 UNL     1      13.156 -15.229  57.741  1.00  0.00     0.102 A 
ATOM     18  H6  UNL     1      11.873 -13.804  58.633  1.00  0.00     0.167 HD
HETATM   19  C14 UNL     1      12.993 -16.601  57.671  1.00  0.00     0.153 A 
HETATM   20  C15 UNL     1      13.773 -17.574  57.126  1.00  0.00     0.277 A 
HETATM   21  N10 UNL     1      11.828 -16.897  58.291  1.00  0.00    -0.229 N 
HETATM   22  O5  UNL     1      14.854 -17.285  56.556  1.00  0.00    -0.266 OA
HETATM   23  N8  UNL     1      13.365 -18.874  57.207  1.00  0.00    -0.317 N 
HETATM   24  C16 UNL     1      12.205 -19.118  57.829  1.00  0.00     0.200 A 
ATOM     25  H8  UNL     1      13.922 -19.630  56.810  1.00  0.00     0.170 HD
HETATM   26  N9  UNL     1      11.446 -18.152  58.362  1.00  0.00    -0.287 N 
ATOM     27  H9  UNL     1      10.569 -18.391  58.824  1.00  0.00     0.188 HD
BRANCH  17  28
HETATM   28  C13 UNL     1      14.208 -14.334  57.222  1.00  0.00     0.369 C 
BRANCH  28  29
HETATM   29  N7  UNL     1      14.354 -14.294  55.805  1.00  0.00    -0.047 N 
ATOM     30  H73 UNL     1      13.927 -15.122  55.389  1.00  0.00     0.277 HD
ATOM     31  H72 UNL     1      13.756 -13.564  55.417  1.00  0.00     0.277 HD
ATOM     32  H71 UNL     1      15.305 -14.183  55.454  1.00  0.00     0.277 HD
ENDBRANCH  28  29
BRANCH  28  33
HETATM   33  O4  UNL     1      15.444 -14.644  57.857  1.00  0.00    -0.365 OA
ATOM     34  H4  UNL     1      15.706 -15.526  57.620  1.00  0.00     0.212 HD
ENDBRANCH  28  33
ENDBRANCH  17  28
ENDBRANCH  14  15
ENDBRANCH  13  14
ENDBRANCH   6  13
BRANCH   1  35
HETATM   35  C6  UNL     1      12.570 -10.392  63.536  1.00  0.00     0.261 C 
HETATM   36  C4  UNL     1      13.799  -9.642  63.118  1.00  0.00     0.188 C 
HETATM   37  C5  UNL     1      13.897  -9.496  64.615  1.00  0.00     0.286 C 
HETATM   38  O3  UNL     1      13.224 -10.742  64.722  1.00  0.00    -0.332 OA
BRANCH  36  39
HETATM   39  N2  UNL     1      13.497  -8.460  62.362  1.00  0.00    -0.347 N 
HETATM   40  C3  UNL     1      14.481  -7.729  61.638  1.00  0.00     0.219 C 
HETATM   41  O1  UNL     1      15.679  -8.157  61.669  1.00  0.00    -0.274 OA
ATOM     42  H2  UNL     1      12.532  -8.128  62.343  1.00  0.00     0.163 HD
BRANCH  40  43
HETATM   43  C2  UNL     1      14.165  -6.514  60.862  1.00  0.00     0.130 C 
BRANCH  43  44
HETATM   44  C1  UNL     1      13.836  -6.902  59.439  1.00  0.00     0.238 C 
BRANCH  44  45
HETATM   45  N1  UNL     1      15.020  -7.305  58.706  1.00  0.00    -0.079 N 
ATOM     46  H13 UNL     1      14.797  -7.534  57.737  1.00  0.00     0.274 HD
ATOM     47  H12 UNL     1      15.644  -6.514  58.544  1.00  0.00     0.274 HD
ATOM     48  H11 UNL     1      15.507  -8.074  59.167  1.00  0.00     0.274 HD
ENDBRANCH  44  45
ENDBRANCH  43  44
ENDBRANCH  40  43
ENDBRANCH  36  39
BRANCH  37  49
HETATM   49  O2  UNL     1      13.109  -8.522  65.186  1.00  0.00    -0.369 OA
ATOM     50  H2  UNL     1      13.304  -7.625  64.938  1.00  0.00     0.212 HD
ENDBRANCH  37  49
ENDBRANCH   1  35
TORSDOF 12
ENDMDL
MODEL 2
REMARK VINA RESULT: -7.049044206      2.473      8.204
REMARK  12 active torsions:
REMARK  status: ('A' for Active; 'I' for Inactive)
REMARK    1  A    between atoms: N1_1  and  C1_5 
REMARK    2  A    between atoms: C1_5  and  C2_6 
REMARK    3  A    between atoms: C2_6  and  C3_7 
REMARK       I    between atoms: C3_7  and  N2_9 
REMARK    4  A    between atoms: N2_9  and  C4_11 
REMARK    5  A    between atoms: C5_12  and  O2_13 
REMARK    6  A    between atoms: C6_16  and  N3_17 
REMARK    7  A    between atoms: C9_22  and  N5_23 
REMARK    8  A    between atoms: N5_23  and  C10_24 
REMARK    9  A    between atoms: C10_24  and  C11_25 
REMARK   10  A    between atoms: C12_28  and  C13_29 
REMARK   11  A    between atoms: C13_29  and  N7_30 
REMARK   12  A    between atoms: C13_29  and  O4_34 
ROOT
HETATM    1  N3  UNL     1      13.090 -14.409  59.494  1.00  0.00    -0.297 N 
HETATM    2  C7  UNL     1      13.868 -13.388  59.900  1.00  0.00     0.188 A 
HETATM    3  N4  UNL     1      13.186 -12.589  60.744  1.00  0.00    -0.345 N 
ATOM      4  H4  UNL     1      13.545 -11.747  61.193  1.00  0.00     0.167 HD
HETATM    5  C8  UNL     1      11.964 -13.092  60.887  1.00  0.00     0.137 A 
HETATM    6  C9  UNL     1      10.869 -12.645  61.649  1.00  0.00     0.210 A 
HETATM    7  N11 UNL     1       9.757 -13.433  61.544  1.00  0.00    -0.325 N 
ATOM      8  H11 UNL     1       8.926 -13.166  62.071  1.00  0.00     0.169 HD
HETATM    9  C17 UNL     1       9.697 -14.534  60.788  1.00  0.00     0.184 A 
HETATM   10  N12 UNL     1      10.755 -14.938  60.072  1.00  0.00    -0.336 N 
ATOM     11  H12 UNL     1      10.692 -15.780  59.500  1.00  0.00     0.168 HD
HETATM   12  C18 UNL     1      11.907 -14.226  60.106  1.00  0.00     0.143 A 
ENDROOT
BRANCH   6  13
HETATM   13  N5  UNL     1      10.968 -11.652  62.314  1.00  0.00    -0.394 NA
BRANCH  13  14
HETATM   14  C10 UNL     1      11.199 -10.534  62.996  1.00  0.00     0.235 C 
BRANCH  14  15
HETATM   15  C11 UNL     1      11.689  -9.417  62.105  1.00  0.00     0.157 A 
HETATM   16  N6  UNL     1      11.045  -8.998  61.027  1.00  0.00    -0.337 N 
HETATM   17  C12 UNL     1      11.722  -7.984  60.416  1.00  0.00     0.102 A 
ATOM     18  H6  UNL     1      10.160  -9.382  60.697  1.00  0.00     0.167 HD
HETATM   19  C14 UNL     1      12.849  -7.793  61.195  1.00  0.00     0.153 A 
HETATM   20  C15 UNL     1      13.884  -6.916  61.084  1.00  0.00     0.277 A 
HETATM   21  N10 UNL     1      12.789  -8.685  62.211  1.00  0.00    -0.229 N 
HETATM   22  O5  UNL     1      13.925  -6.090  60.138  1.00  0.00    -0.266 OA
HETATM   23  N8  UNL     1      14.880  -6.944  62.016  1.00  0.00    -0.317 N 
HETATM   24  C16 UNL     1      14.779  -7.844  63.001  1.00  0.00     0.200 A 
ATOM     25  H8  UNL     1      15.672  -6.302  61.964  1.00  0.00     0.170 HD
HETATM   26  N9  UNL     1      13.755  -8.702  63.101  1.00  0.00    -0.287 N 
ATOM     27  H9  UNL     1      13.725  -9.370  63.871  1.00  0.00     0.188 HD
BRANCH  17  28
HETATM   28  C13 UNL     1      11.262  -7.335  59.175  1.00  0.00     0.369 C 
BRANCH  28  29
HETATM   29  N7  UNL     1      12.130  -7.445  58.049  1.00  0.00    -0.047 N 
ATOM     30  H73 UNL     1      11.998  -8.351  57.599  1.00  0.00     0.277 HD
ATOM     31  H72 UNL     1      11.813  -6.823  57.306  1.00  0.00     0.277 HD
ATOM     32  H71 UNL     1      13.121  -7.291  58.230  1.00  0.00     0.277 HD
ENDBRANCH  28  29
BRANCH  28  33
HETATM   33  O4  UNL     1      10.944  -5.973  59.446  1.00  0.00    -0.365 OA
ATOM     34  H4  UNL     1      10.483  -5.605  58.701  1.00  0.00     0.212 HD
ENDBRANCH  28  33
ENDBRANCH  17  28
ENDBRANCH  14  15
ENDBRANCH  13  14
ENDBRANCH   6  13
BRANCH   1  35
HETATM   35  C6  UNL     1      13.473 -15.460  58.588  1.00  0.00     0.261 C 
HETATM   36  C4  UNL     1      14.451 -15.092  57.512  1.00  0.00     0.188 C 
HETATM   37  C5  UNL     1      13.649 -16.145  56.791  1.00  0.00     0.286 C 
HETATM   38  O3  UNL     1      12.540 -15.765  57.592  1.00  0.00    -0.332 OA
BRANCH  36  39
HETATM   39  N2  UNL     1      15.805 -15.420  57.859  1.00  0.00    -0.347 N 
HETATM   40  C3  UNL     1      16.891 -15.295  56.946  1.00  0.00     0.219 C 
HETATM   41  O1  UNL     1      16.635 -14.868  55.775  1.00  0.00    -0.274 OA
ATOM     42  H2  UNL     1      15.997 -15.759  58.801  1.00  0.00     0.163 HD
BRANCH  40  43
HETATM   43  C2  UNL     1      18.281 -15.635  57.307  1.00  0.00     0.130 C 
BRANCH  43  44
HETATM   44  C1  UNL     1      19.196 -14.513  56.875  1.00  0.00     0.238 C 
BRANCH  44  45
HETATM   45  N1  UNL     1      19.418 -14.522  55.443  1.00  0.00    -0.079 N 
ATOM     46  H13 UNL     1      19.371 -15.469  55.065  1.00  0.00     0.274 HD
ATOM     47  H12 UNL     1      18.629 -14.112  54.942  1.00  0.00     0.274 HD
ATOM     48  H11 UNL     1      20.295 -14.064  55.193  1.00  0.00     0.274 HD
ENDBRANCH  44  45
ENDBRANCH  43  44
ENDBRANCH  40  43
ENDBRANCH  36  39
BRANCH  37  49
HETATM   49  O2  UNL     1      13.967 -17.454  57.075  1.00  0.00    -0.369 OA
ATOM     50  H2  UNL     1      14.763 -17.594  57.574  1.00  0.00     0.212 HD
ENDBRANCH  37  49
ENDBRANCH   1  35
TORSDOF 12
ENDMDL
MODEL 3
REMARK VINA RESULT: -7.047675927      3.128      8.760
REMARK  12 active torsions:
REMARK  status: ('A' for Active; 'I' for Inactive)
REMARK    1  A    between atoms: N1_1  and  C1_5 
REMARK    2  A    between atoms: C1_5  and  C2_6 
REMARK    3  A    between atoms: C2_6  and  C3_7 
REMARK       I    between atoms: C3_7  and  N2_9 
REMARK    4  A    between atoms: N2_9  and  C4_11 
REMARK    5  A    between atoms: C5_12  and  O2_13 
REMARK    6  A    between atoms: C6_16  and  N3_17 
REMARK    7  A    between atoms: C9_22  and  N5_23 
REMARK    8  A    between atoms: N5_23  and  C10_24 
REMARK    9  A    between atoms: C10_24  and  C11_25 
REMARK   10  A    between atoms: C12_28  and  C13_29 
REMARK   11  A    between atoms: C13_29  and  N7_30 
REMARK   12  A    between atoms: C13_29  and  O4_34 
ROOT
HETATM    1  N3  UNL     1      15.412 -15.772  57.927  1.00  0.00    -0.297 N 
HETATM    2  C7  UNL     1      14.789 -14.743  57.324  1.00  0.00     0.188 A 
HETATM    3  N4  UNL     1      14.128 -14.001  58.233  1.00  0.00    -0.345 N 
ATOM      4  H4  UNL     1      13.575 -13.166  58.038  1.00  0.00     0.167 HD
HETATM    5  C8  UNL     1      14.323 -14.547  59.429  1.00  0.00     0.137 A 
HETATM    6  C9  UNL     1      13.857 -14.168  60.701  1.00  0.00     0.210 A 
HETATM    7  N11 UNL     1      14.270 -14.988  61.714  1.00  0.00    -0.325 N 
ATOM      8  H11 UNL     1      13.968 -14.770  62.663  1.00  0.00     0.169 HD
HETATM    9  C17 UNL     1      15.047 -16.060  61.530  1.00  0.00     0.184 A 
HETATM   10  N12 UNL     1      15.476 -16.400  60.308  1.00  0.00    -0.336 N 
ATOM     11  H12 UNL     1      16.069 -17.221  60.185  1.00  0.00     0.168 HD
HETATM   12  C18 UNL     1      15.124 -15.652  59.235  1.00  0.00     0.143 A 
ENDROOT
BRANCH   6  13
HETATM   13  N5  UNL     1      13.163 -13.198  60.820  1.00  0.00    -0.394 NA
BRANCH  13  14
HETATM   14  C10 UNL     1      12.295 -12.193  60.894  1.00  0.00     0.235 C 
BRANCH  14  15
HETATM   15  C11 UNL     1      12.986 -10.857  61.041  1.00  0.00     0.157 A 
HETATM   16  N6  UNL     1      13.388 -10.118  60.019  1.00  0.00    -0.337 N 
HETATM   17  C12 UNL     1      13.983  -8.969  60.450  1.00  0.00     0.102 A 
ATOM     18  H6  UNL     1      13.268 -10.374  59.039  1.00  0.00     0.167 HD
HETATM   19  C14 UNL     1      13.926  -9.039  61.829  1.00  0.00     0.153 A 
HETATM   20  C15 UNL     1      14.353  -8.178  62.793  1.00  0.00     0.277 A 
HETATM   21  N10 UNL     1      13.312 -10.202  62.146  1.00  0.00    -0.229 N 
HETATM   22  O5  UNL     1      14.918  -7.100  62.485  1.00  0.00    -0.266 OA
HETATM   23  N8  UNL     1      14.159  -8.502  64.105  1.00  0.00    -0.317 N 
HETATM   24  C16 UNL     1      13.550  -9.664  64.370  1.00  0.00     0.200 A 
ATOM     25  H8  UNL     1      14.467  -7.883  64.855  1.00  0.00     0.170 HD
HETATM   26  N9  UNL     1      13.132 -10.503  63.413  1.00  0.00    -0.287 N 
ATOM     27  H9  UNL     1      12.674 -11.377  63.667  1.00  0.00     0.188 HD
BRANCH  17  28
HETATM   28  C13 UNL     1      14.556  -7.963  59.537  1.00  0.00     0.369 C 
BRANCH  28  29
HETATM   29  N7  UNL     1      14.264  -8.133  58.152  1.00  0.00    -0.047 N 
ATOM     30  H73 UNL     1      14.900  -8.820  57.746  1.00  0.00     0.277 HD
ATOM     31  H72 UNL     1      13.375  -8.620  58.044  1.00  0.00     0.277 HD
ATOM     32  H71 UNL     1      14.264  -7.285  57.585  1.00  0.00     0.277 HD
ENDBRANCH  28  29
BRANCH  28  33
HETATM   33  O4  UNL     1      15.960  -7.872  59.758  1.00  0.00    -0.365 OA
ATOM     34  H4  UNL     1      16.401  -8.542  59.248  1.00  0.00     0.212 HD
ENDBRANCH  28  33
ENDBRANCH  17  28
ENDBRANCH  14  15
ENDBRANCH  13  14
ENDBRANCH   6  13
BRANCH   1  35
HETATM   35  C6  UNL     1      16.211 -16.778  57.278  1.00  0.00     0.261 C 
HETATM   36  C4  UNL     1      17.008 -16.334  56.087  1.00  0.00     0.188 C 
HETATM   37  C5  UNL     1      16.712 -17.758  55.691  1.00  0.00     0.286 C 
HETATM   38  O3  UNL     1      15.512 -17.656  56.444  1.00  0.00    -0.332 OA
BRANCH  36  39
HETATM   39  N2  UNL     1      18.367 -16.014  56.418  1.00  0.00    -0.347 N 
HETATM   40  C3  UNL     1      19.087 -14.954  55.797  1.00  0.00     0.219 C 
HETATM   41  O1  UNL     1      18.485 -14.266  54.912  1.00  0.00    -0.274 OA
ATOM     42  H2  UNL     1      18.839 -16.571  57.131  1.00  0.00     0.163 HD
BRANCH  40  43
HETATM   43  C2  UNL     1      20.486 -14.630  56.140  1.00  0.00     0.130 C 
BRANCH  43  44
HETATM   44  C1  UNL     1      20.703 -14.862  57.617  1.00  0.00     0.238 C 
BRANCH  44  45
HETATM   45  N1  UNL     1      20.281 -13.722  58.407  1.00  0.00    -0.079 N 
ATOM     46  H13 UNL     1      19.295 -13.789  58.660  1.00  0.00     0.274 HD
ATOM     47  H12 UNL     1      20.688 -13.747  59.343  1.00  0.00     0.274 HD
ATOM     48  H11 UNL     1      20.486 -12.840  57.937  1.00  0.00     0.274 HD
ENDBRANCH  44  45
ENDBRANCH  43  44
ENDBRANCH  40  43
ENDBRANCH  36  39
BRANCH  37  49
HETATM   49  O2  UNL     1      17.506 -18.727  56.261  1.00  0.00    -0.369 OA
ATOM     50  H2  UNL     1      17.812 -19.414  55.681  1.00  0.00     0.212 HD
ENDBRANCH  37  49
ENDBRANCH   1  35
TORSDOF 12
ENDMDL
MODEL 4
REMARK VINA RESULT: -7.045701848      4.709     10.632
REMARK  12 active torsions:
REMARK  status: ('A' for Active; 'I' for Inactive)
REMARK    1  A    between atoms: N1_1  and  C1_5 
REMARK    2  A    between atoms: C1_5  and  C2_6 
REMARK    3  A    between atoms: C2_6  and  C3_7 
REMARK       I    between atoms: C3_7  and  N2_9 
REMARK    4  A    between atoms: N2_9  and  C4_11 
REMARK    5  A    between atoms: C5_12  and  O2_13 
REMARK    6  A    between atoms: C6_16  and  N3_17 
REMARK    7  A    between atoms: C9_22  and  N5_23 
REMARK    8  A    between atoms: N5_23  and  C10_24 
REMARK    9  A    between atoms: C10_24  and  C11_25 
REMARK   10  A    between atoms: C12_28  and  C13_29 
REMARK   11  A    between atoms: C13_29  and  N7_30 
REMARK   12  A    between atoms: C13_29  and  O4_34 
ROOT
HETATM    1  N3  UNL     1      13.957 -10.274  63.322  1.00  0.00    -0.297 N 
HETATM    2  C7  UNL     1      14.446  -9.038  63.537  1.00  0.00     0.188 A 
HETATM    3  N4  UNL     1      14.560  -8.806  64.859  1.00  0.00    -0.345 N 
ATOM      4  H4  UNL     1      14.904  -7.947  65.289  1.00  0.00     0.167 HD
HETATM    5  C8  UNL     1      14.145  -9.891  65.504  1.00  0.00     0.137 A 
HETATM    6  C9  UNL     1      14.059 -10.167  66.881  1.00  0.00     0.210 A 
HETATM    7  N11 UNL     1      13.575 -11.412  67.172  1.00  0.00    -0.325 N 
ATOM      8  H11 UNL     1      13.488 -11.677  68.153  1.00  0.00     0.169 HD
HETATM    9  C17 UNL     1      13.210 -12.301  66.244  1.00  0.00     0.184 A 
HETATM   10  N12 UNL     1      13.302 -12.013  64.938  1.00  0.00    -0.336 N 
ATOM     11  H12 UNL     1      13.019 -12.704  64.243  1.00  0.00     0.168 HD
HETATM   12  C18 UNL     1      13.770 -10.805  64.543  1.00  0.00     0.143 A 
ENDROOT
BRANCH   6  13
HETATM   13  N5  UNL     1      14.399  -9.340  67.679  1.00  0.00    -0.394 NA
BRANCH  13  14
HETATM   14  C10 UNL     1      14.880  -8.503  68.595  1.00  0.00     0.235 C 
BRANCH  14  15
HETATM   15  C11 UNL     1      14.101  -7.209  68.645  1.00  0.00     0.157 A 
HETATM   16  N6  UNL     1      14.659  -6.011  68.576  1.00  0.00    -0.337 N 
HETATM   17  C12 UNL     1      13.716  -5.028  68.651  1.00  0.00     0.102 A 
ATOM     18  H6  UNL     1      15.660  -5.844  68.481  1.00  0.00     0.167 HD
HETATM   19  C14 UNL     1      12.514  -5.700  68.771  1.00  0.00     0.153 A 
HETATM   20  C15 UNL     1      11.235  -5.248  68.875  1.00  0.00     0.277 A 
HETATM   21  N10 UNL     1      12.794  -7.024  68.763  1.00  0.00    -0.229 N 
HETATM   22  O5  UNL     1      10.989  -4.016  68.878  1.00  0.00    -0.266 OA
HETATM   23  N8  UNL     1      10.218  -6.152  68.978  1.00  0.00    -0.317 N 
HETATM   24  C16 UNL     1      10.543  -7.450  68.968  1.00  0.00     0.200 A 
ATOM     25  H8  UNL     1       9.247  -5.850  69.058  1.00  0.00     0.170 HD
HETATM   26  N9  UNL     1      11.806  -7.884  68.863  1.00  0.00    -0.287 N 
ATOM     27  H9  UNL     1      12.001  -8.885  68.862  1.00  0.00     0.188 HD
BRANCH  17  28
HETATM   28  C13 UNL     1      14.043  -3.590  68.629  1.00  0.00     0.369 C 
BRANCH  28  29
HETATM   29  N7  UNL     1      13.746  -2.861  69.818  1.00  0.00    -0.047 N 
ATOM     30  H73 UNL     1      12.887  -3.217  70.237  1.00  0.00     0.277 HD
ATOM     31  H72 UNL     1      14.418  -3.101  70.547  1.00  0.00     0.277 HD
ATOM     32  H71 UNL     1      13.689  -1.847  69.721  1.00  0.00     0.277 HD
ENDBRANCH  28  29
BRANCH  28  33
HETATM   33  O4  UNL     1      13.435  -2.986  67.492  1.00  0.00    -0.365 OA
ATOM     34  H4  UNL     1      13.601  -2.051  67.507  1.00  0.00     0.212 HD
ENDBRANCH  28  33
ENDBRANCH  17  28
ENDBRANCH  14  15
ENDBRANCH  13  14
ENDBRANCH   6  13
BRANCH   1  35
HETATM   35  C6  UNL     1      13.696 -10.872  62.039  1.00  0.00     0.261 C 
HETATM   36  C4  UNL     1      12.303 -10.726  61.505  1.00  0.00     0.188 C 
HETATM   37  C5  UNL     1      12.670 -12.068  60.923  1.00  0.00     0.286 C 
HETATM   38  O3  UNL     1      13.514 -12.259  62.048  1.00  0.00    -0.332 OA
BRANCH  36  39
HETATM   39  N2  UNL     1      12.173  -9.628  60.590  1.00  0.00    -0.347 N 
HETATM   40  C3  UNL     1      11.679  -8.350  60.979  1.00  0.00     0.219 C 
HETATM   41  O1  UNL     1      11.345  -8.188  62.195  1.00  0.00    -0.274 OA
ATOM     42  H2  UNL     1      12.446  -9.769  59.618  1.00  0.00     0.163 HD
BRANCH  40  43
HETATM   43  C2  UNL     1      11.547  -7.223  60.034  1.00  0.00     0.130 C 
BRANCH  43  44
HETATM   44  C1  UNL     1      12.915  -6.647  59.752  1.00  0.00     0.238 C 
BRANCH  44  45
HETATM   45  N1  UNL     1      13.738  -6.609  60.944  1.00  0.00    -0.079 N 
ATOM     46  H13 UNL     1      13.269  -6.116  61.704  1.00  0.00     0.274 HD
ATOM     47  H12 UNL     1      13.812  -7.531  61.374  1.00  0.00     0.274 HD
ATOM     48  H11 UNL     1      14.659  -6.211  60.755  1.00  0.00     0.274 HD
ENDBRANCH  44  45
ENDBRANCH  43  44
ENDBRANCH  40  43
ENDBRANCH  36  39
BRANCH  37  49
HETATM   49  O2  UNL     1      13.449 -12.048  59.788  1.00  0.00    -0.369 OA
ATOM     50  H2  UNL     1      13.375 -12.801  59.215  1.00  0.00     0.212 HD
ENDBRANCH  37  49
ENDBRANCH   1  35
TORSDOF 12
ENDMDL
MODEL 5
REMARK VINA RESULT: -6.991548967      2.640      3.417
REMARK  12 active torsions:
REMARK  status: ('A' for Active; 'I' for Inactive)
REMARK    1  A    between atoms: N1_1  and  C1_5 
REMARK    2  A    between atoms: C1_5  and  C2_6 
REMARK    3  A    between atoms: C2_6  and  C3_7 
REMARK       I    between atoms: C3_7  and  N2_9 
REMARK    4  A    between atoms: N2_9  and  C4_11 
REMARK    5  A    between atoms: C5_12  and  O2_13 
REMARK    6  A    between atoms: C6_16  and  N3_17 
REMARK    7  A    between atoms: C9_22  and  N5_23 
REMARK    8  A    between atoms: N5_23  and  C10_24 
REMARK    9  A    between atoms: C10_24  and  C11_25 
REMARK   10  A    between atoms: C12_28  and  C13_29 
REMARK   11  A    between atoms: C13_29  and  N7_30 
REMARK   12  A    between atoms: C13_29  and  O4_34 
ROOT
HETATM    1  N3  UNL     1      13.449 -11.517  61.858  1.00  0.00    -0.297 N 
HETATM    2  C7  UNL     1      13.825 -11.216  60.601  1.00  0.00     0.188 A 
HETATM    3  N4  UNL     1      13.777 -12.316  59.825  1.00  0.00    -0.345 N 
ATOM      4  H4  UNL     1      14.013 -12.360  58.833  1.00  0.00     0.167 HD
HETATM    5  C8  UNL     1      13.369 -13.332  60.577  1.00  0.00     0.137 A 
HETATM    6  C9  UNL     1      13.155 -14.685  60.258  1.00  0.00     0.210 A 
HETATM    7  N11 UNL     1      12.729 -15.447  61.311  1.00  0.00    -0.325 N 
ATOM      8  H11 UNL     1      12.553 -16.438  61.148  1.00  0.00     0.169 HD
HETATM    9  C17 UNL     1      12.530 -14.965  62.541  1.00  0.00     0.184 A 
HETATM   10  N12 UNL     1      12.743 -13.672  62.819  1.00  0.00    -0.336 N 
ATOM     11  H12 UNL     1      12.586 -13.321  63.764  1.00  0.00     0.168 HD
HETATM   12  C18 UNL     1      13.166 -12.831  61.845  1.00  0.00     0.143 A 
ENDROOT
BRANCH   6  13
HETATM   13  N5  UNL     1      13.344 -15.074  59.140  1.00  0.00    -0.394 NA
BRANCH  13  14
HETATM   14  C10 UNL     1      13.491 -15.395  57.857  1.00  0.00     0.235 C 
BRANCH  14  15
HETATM   15  C11 UNL     1      14.946 -15.482  57.459  1.00  0.00     0.157 A 
HETATM   16  N6  UNL     1      15.418 -15.060  56.296  1.00  0.00    -0.337 N 
HETATM   17  C12 UNL     1      16.763 -15.269  56.209  1.00  0.00     0.102 A 
ATOM     18  H6  UNL     1      14.852 -14.635  55.563  1.00  0.00     0.167 HD
HETATM   19  C14 UNL     1      17.106 -15.858  57.412  1.00  0.00     0.153 A 
HETATM   20  C15 UNL     1      18.305 -16.282  57.898  1.00  0.00     0.277 A 
HETATM   21  N10 UNL     1      15.972 -15.969  58.142  1.00  0.00    -0.229 N 
HETATM   22  O5  UNL     1      19.351 -16.170  57.212  1.00  0.00    -0.266 OA
HETATM   23  N8  UNL     1      18.357 -16.832  59.146  1.00  0.00    -0.317 N 
HETATM   24  C16 UNL     1      17.210 -16.923  59.829  1.00  0.00     0.200 A 
ATOM     25  H8  UNL     1      19.237 -17.162  59.543  1.00  0.00     0.170 HD
HETATM   26  N9  UNL     1      16.036 -16.501  59.341  1.00  0.00    -0.287 N 
ATOM     27  H9  UNL     1      15.190 -16.594  59.902  1.00  0.00     0.188 HD
BRANCH  17  28
HETATM   28  C13 UNL     1      17.560 -14.926  55.017  1.00  0.00     0.369 C 
BRANCH  28  29
HETATM   29  N7  UNL     1      18.023 -16.024  54.234  1.00  0.00    -0.047 N 
ATOM     30  H73 UNL     1      18.998 -15.877  53.974  1.00  0.00     0.277 HD
ATOM     31  H72 UNL     1      18.113 -16.853  54.821  1.00  0.00     0.277 HD
ATOM     32  H71 UNL     1      17.474 -16.247  53.404  1.00  0.00     0.277 HD
ENDBRANCH  28  29
BRANCH  28  33
HETATM   33  O4  UNL     1      18.638 -14.079  55.400  1.00  0.00    -0.365 OA
ATOM     34  H4  UNL     1      18.290 -13.276  55.770  1.00  0.00     0.212 HD
ENDBRANCH  28  33
ENDBRANCH  17  28
ENDBRANCH  14  15
ENDBRANCH  13  14
ENDBRANCH   6  13
BRANCH   1  35
HETATM   35  C6  UNL     1      13.380 -10.600  62.965  1.00  0.00     0.261 C 
HETATM   36  C4  UNL     1      14.400  -9.502  62.989  1.00  0.00     0.188 C 
HETATM   37  C5  UNL     1      14.212  -9.719  64.469  1.00  0.00     0.286 C 
HETATM   38  O3  UNL     1      13.907 -11.073  64.172  1.00  0.00    -0.332 OA
BRANCH  36  39
HETATM   39  N2  UNL     1      13.904  -8.273  62.438  1.00  0.00    -0.347 N 
HETATM   40  C3  UNL     1      14.474  -7.652  61.290  1.00  0.00     0.219 C 
HETATM   41  O1  UNL     1      15.466  -8.225  60.737  1.00  0.00    -0.274 OA
ATOM     42  H2  UNL     1      13.106  -7.824  62.889  1.00  0.00     0.163 HD
BRANCH  40  43
HETATM   43  C2  UNL     1      13.960  -6.388  60.727  1.00  0.00     0.130 C 
BRANCH  43  44
HETATM   44  C1  UNL     1      12.785  -6.685  59.825  1.00  0.00     0.238 C 
BRANCH  44  45
HETATM   45  N1  UNL     1      13.023  -7.854  59.001  1.00  0.00    -0.079 N 
ATOM     46  H13 UNL     1      13.352  -7.592  58.071  1.00  0.00     0.274 HD
ATOM     47  H12 UNL     1      13.842  -8.373  59.320  1.00  0.00     0.274 HD
ATOM     48  H11 UNL     1      12.200  -8.454  58.949  1.00  0.00     0.274 HD
ENDBRANCH  44  45
ENDBRANCH  43  44
ENDBRANCH  40  43
ENDBRANCH  36  39
BRANCH  37  49
HETATM   49  O2  UNL     1      13.102  -9.133  65.035  1.00  0.00    -0.369 OA
ATOM     50  H2  UNL     1      13.090  -9.084  65.983  1.00  0.00     0.212 HD
ENDBRANCH  37  49
ENDBRANCH   1  35
TORSDOF 12
ENDMDL
