MODEL 1
REMARK VINA RESULT: -7.608571224      0.000      0.000
REMARK  12 active torsions:
REMARK  status: ('A' for Active; 'I' for Inactive)
REMARK    1  A    between atoms: C2_2  and  N1_3 
REMARK    2  A    between atoms: C2_2  and  C14_34 
REMARK       I    between atoms: N1_3  and  C3_5 
REMARK    3  A    between atoms: C3_5  and  C4_7 
REMARK    4  A    between atoms: C5_8  and  O2_9 
REMARK    5  A    between atoms: C7_12  and  C8_13 
REMARK    6  A    between atoms: C8_13  and  O3_14 
REMARK    7  A    between atoms: C8_13  and  N2_16 
REMARK    8  A    between atoms: N2_16  and  N3_18 
REMARK    9  A    between atoms: N3_18  and  C9_20 
REMARK   10  A    between atoms: C14_34  and  O7_35 
REMARK   11  A    between atoms: C14_34  and  C15_37 
REMARK   12  A    between atoms: C15_37  and  N8_38 
ROOT
HETATM    1  C4  UNL     1      20.605  40.252  22.097  1.00  0.00     0.133 A 
HETATM    2  C5  UNL     1      21.860  40.873  22.075  1.00  0.00     0.088 A 
HETATM    3  C6  UNL     1      22.170  41.725  23.162  1.00  0.00     0.067 A 
HETATM    4  C7  UNL     1      21.336  41.971  24.206  1.00  0.00     0.066 A 
HETATM    5  N7  UNL     1      20.150  41.359  24.189  1.00  0.00    -0.317 N 
HETATM    6  C12 UNL     1      19.232  41.595  25.289  1.00  0.00     0.159 C 
HETATM    7  C13 UNL     1      19.795  40.525  23.166  1.00  0.00     0.266 A 
HETATM    8  O6  UNL     1      18.649  40.028  23.297  1.00  0.00    -0.267 OA
ENDROOT
BRANCH   4   9
HETATM    9  C8  UNL     1      21.727  42.891  25.338  1.00  0.00     0.284 C 
BRANCH   9  10
HETATM   10  O3  UNL     1      22.068  44.142  24.832  1.00  0.00    -0.370 OA
ATOM     11  H3  UNL     1      21.843  44.816  25.461  1.00  0.00     0.212 HD
ENDBRANCH   9  10
BRANCH   9  12
HETATM   12  N2  UNL     1      22.712  42.299  26.172  1.00  0.00    -0.301 N 
ATOM     13  H2  UNL     1      23.567  42.807  26.403  1.00  0.00     0.183 HD
BRANCH  12  14
HETATM   14  N3  UNL     1      22.502  41.056  26.657  1.00  0.00    -0.289 N 
ATOM     15  H3  UNL     1      22.680  40.279  26.019  1.00  0.00     0.188 HD
BRANCH  14  16
HETATM   16  C9  UNL     1      22.047  40.711  28.000  1.00  0.00     0.129 C 
HETATM   17  N4  UNL     1      21.936  39.511  28.420  1.00  0.00    -0.269 N 
HETATM   18  S1  UNL     1      21.372  39.546  30.037  1.00  0.00     0.253 S 
ATOM     19  H4  UNL     1      22.148  38.671  27.882  1.00  0.00     0.180 HD
HETATM   20  O4  UNL     1      22.415  39.266  31.047  1.00  0.00    -0.204 OA
HETATM   21  O5  UNL     1      20.159  38.682  30.184  1.00  0.00    -0.204 OA
HETATM   22  C10 UNL     1      20.881  41.277  30.067  1.00  0.00     0.266 C 
HETATM   23  N5  UNL     1      19.685  41.585  29.357  1.00  0.00    -0.123 NA
HETATM   24  C11 UNL     1      21.710  41.778  28.932  1.00  0.00     0.201 C 
HETATM   25  N6  UNL     1      20.466  42.485  28.583  1.00  0.00    -0.132 NA
ENDBRANCH  14  16
ENDBRANCH  12  14
ENDBRANCH   9  12
ENDBRANCH   4   9
BRANCH   2  26
HETATM   26  O2  UNL     1      22.773  40.721  21.115  1.00  0.00    -0.359 OA
ATOM     27  H2  UNL     1      23.436  41.362  20.886  1.00  0.00     0.217 HD
ENDBRANCH   2  26
BRANCH   1  28
HETATM   28  C3  UNL     1      20.240  39.357  20.992  1.00  0.00     0.260 C 
HETATM   29  N1  UNL     1      19.838  38.036  21.119  1.00  0.00    -0.350 N 
ATOM     30  H1  UNL     1      19.781  37.694  22.078  1.00  0.00     0.163 HD
HETATM   31  O1  UNL     1      20.288  39.802  19.799  1.00  0.00    -0.267 OA
BRANCH  29  32
HETATM   32  C2  UNL     1      19.487  37.068  20.106  1.00  0.00     0.111 C 
HETATM   33  C1  UNL     1      20.003  35.697  20.418  1.00  0.00     0.035 C 
BRANCH  32  34
HETATM   34  C14 UNL     1      18.103  37.009  19.605  1.00  0.00     0.164 C 
BRANCH  34  35
HETATM   35  O7  UNL     1      17.670  38.389  19.500  1.00  0.00    -0.392 OA
ATOM     36  H7  UNL     1      17.538  38.543  18.573  1.00  0.00     0.210 HD
ENDBRANCH  34  35
BRANCH  34  37
HETATM   37  C15 UNL     1      17.052  36.453  20.551  1.00  0.00     0.234 C 
BRANCH  37  38
HETATM   38  N8  UNL     1      16.759  37.271  21.689  1.00  0.00    -0.153 N 
HETATM   39  O8  UNL     1      15.943  38.181  21.784  1.00  0.00    -0.536 OA
HETATM   40  O9  UNL     1      17.484  36.959  22.848  1.00  0.00    -0.536 OA
ENDBRANCH  37  38
ENDBRANCH  34  37
ENDBRANCH  32  34
ENDBRANCH  29  32
ENDBRANCH   1  28
TORSDOF 12
ENDMDL
MODEL 2
REMARK VINA RESULT: -7.430761867      1.036      1.916
REMARK  12 active torsions:
REMARK  status: ('A' for Active; 'I' for Inactive)
REMARK    1  A    between atoms: C2_2  and  N1_3 
REMARK    2  A    between atoms: C2_2  and  C14_34 
REMARK       I    between atoms: N1_3  and  C3_5 
REMARK    3  A    between atoms: C3_5  and  C4_7 
REMARK    4  A    between atoms: C5_8  and  O2_9 
REMARK    5  A    between atoms: C7_12  and  C8_13 
REMARK    6  A    between atoms: C8_13  and  O3_14 
REMARK    7  A    between atoms: C8_13  and  N2_16 
REMARK    8  A    between atoms: N2_16  and  N3_18 
REMARK    9  A    between atoms: N3_18  and  C9_20 
REMARK   10  A    between atoms: C14_34  and  O7_35 
REMARK   11  A    between atoms: C14_34  and  C15_37 
REMARK   12  A    between atoms: C15_37  and  N8_38 
ROOT
HETATM    1  C4  UNL     1      20.508  40.042  21.902  1.00  0.00     0.133 A 
HETATM    2  C5  UNL     1      19.745  40.164  23.071  1.00  0.00     0.088 A 
HETATM    3  C6  UNL     1      20.273  40.985  24.096  1.00  0.00     0.067 A 
HETATM    4  C7  UNL     1      21.455  41.649  24.014  1.00  0.00     0.066 A 
HETATM    5  N7  UNL     1      22.151  41.508  22.884  1.00  0.00    -0.317 N 
HETATM    6  C12 UNL     1      23.418  42.204  22.759  1.00  0.00     0.159 C 
HETATM    7  C13 UNL     1      21.692  40.728  21.859  1.00  0.00     0.266 A 
HETATM    8  O6  UNL     1      22.461  40.698  20.867  1.00  0.00    -0.267 OA
ENDROOT
BRANCH   4   9
HETATM    9  C8  UNL     1      21.964  42.512  25.145  1.00  0.00     0.284 C 
BRANCH   9  10
HETATM   10  O3  UNL     1      23.183  42.019  25.600  1.00  0.00    -0.370 OA
ATOM     11  H3  UNL     1      23.894  42.531  25.233  1.00  0.00     0.212 HD
ENDBRANCH   9  10
BRANCH   9  12
HETATM   12  N2  UNL     1      20.978  42.682  26.153  1.00  0.00    -0.301 N 
ATOM     13  H2  UNL     1      19.998  42.814  25.901  1.00  0.00     0.183 HD
BRANCH  12  14
HETATM   14  N3  UNL     1      21.355  42.665  27.450  1.00  0.00    -0.289 N 
ATOM     15  H3  UNL     1      21.606  43.562  27.867  1.00  0.00     0.188 HD
BRANCH  14  16
HETATM   16  C9  UNL     1      21.439  41.493  28.316  1.00  0.00     0.129 C 
HETATM   17  N4  UNL     1      21.762  40.330  27.898  1.00  0.00    -0.269 N 
HETATM   18  S1  UNL     1      21.739  39.246  29.224  1.00  0.00     0.253 S 
ATOM     19  H4  UNL     1      21.996  40.088  26.935  1.00  0.00     0.180 HD
HETATM   20  O4  UNL     1      23.080  38.882  29.731  1.00  0.00    -0.204 OA
HETATM   21  O5  UNL     1      20.883  38.059  28.910  1.00  0.00    -0.204 OA
HETATM   22  C10 UNL     1      20.873  40.319  30.379  1.00  0.00     0.266 C 
HETATM   23  N5  UNL     1      19.478  40.480  30.136  1.00  0.00    -0.123 NA
HETATM   24  C11 UNL     1      21.158  41.637  29.737  1.00  0.00     0.201 C 
HETATM   25  N6  UNL     1      19.734  41.873  30.027  1.00  0.00    -0.132 NA
ENDBRANCH  14  16
ENDBRANCH  12  14
ENDBRANCH   9  12
ENDBRANCH   4   9
BRANCH   2  26
HETATM   26  O2  UNL     1      18.570  39.569  23.284  1.00  0.00    -0.359 OA
ATOM     27  H2  UNL     1      17.781  40.008  23.577  1.00  0.00     0.217 HD
ENDBRANCH   2  26
BRANCH   1  28
HETATM   28  C3  UNL     1      19.999  39.204  20.810  1.00  0.00     0.260 C 
HETATM   29  N1  UNL     1      19.769  37.838  20.878  1.00  0.00    -0.350 N 
ATOM     30  H1  UNL     1      19.961  37.414  21.785  1.00  0.00     0.163 HD
HETATM   31  O1  UNL     1      19.735  39.748  19.689  1.00  0.00    -0.267 OA
BRANCH  29  32
HETATM   32  C2  UNL     1      19.300  36.921  19.865  1.00  0.00     0.111 C 
HETATM   33  C1  UNL     1      19.855  35.541  20.040  1.00  0.00     0.035 C 
BRANCH  32  34
HETATM   34  C14 UNL     1      17.866  36.875  19.532  1.00  0.00     0.164 C 
BRANCH  34  35
HETATM   35  O7  UNL     1      17.455  38.260  19.402  1.00  0.00    -0.392 OA
ATOM     36  H7  UNL     1      17.784  38.543  18.558  1.00  0.00     0.210 HD
ENDBRANCH  34  35
BRANCH  34  37
HETATM   37  C15 UNL     1      16.922  36.401  20.624  1.00  0.00     0.234 C 
BRANCH  37  38
HETATM   38  N8  UNL     1      16.773  37.293  21.735  1.00  0.00    -0.153 N 
HETATM   39  O8  UNL     1      16.043  38.273  21.832  1.00  0.00    -0.536 OA
HETATM   40  O9  UNL     1      17.544  36.973  22.861  1.00  0.00    -0.536 OA
ENDBRANCH  37  38
ENDBRANCH  34  37
ENDBRANCH  32  34
ENDBRANCH  29  32
ENDBRANCH   1  28
TORSDOF 12
ENDMDL
MODEL 3
REMARK VINA RESULT: -7.356581382      1.055      1.262
REMARK  12 active torsions:
REMARK  status: ('A' for Active; 'I' for Inactive)
REMARK    1  A    between atoms: C2_2  and  N1_3 
REMARK    2  A    between atoms: C2_2  and  C14_34 
REMARK       I    between atoms: N1_3  and  C3_5 
REMARK    3  A    between atoms: C3_5  and  C4_7 
REMARK    4  A    between atoms: C5_8  and  O2_9 
REMARK    5  A    between atoms: C7_12  and  C8_13 
REMARK    6  A    between atoms: C8_13  and  O3_14 
REMARK    7  A    between atoms: C8_13  and  N2_16 
REMARK    8  A    between atoms: N2_16  and  N3_18 
REMARK    9  A    between atoms: N3_18  and  C9_20 
REMARK   10  A    between atoms: C14_34  and  O7_35 
REMARK   11  A    between atoms: C14_34  and  C15_37 
REMARK   12  A    between atoms: C15_37  and  N8_38 
ROOT
HETATM    1  C4  UNL     1      20.628  40.279  22.087  1.00  0.00     0.133 A 
HETATM    2  C5  UNL     1      21.872  40.921  22.045  1.00  0.00     0.088 A 
HETATM    3  C6  UNL     1      22.185  41.780  23.126  1.00  0.00     0.067 A 
HETATM    4  C7  UNL     1      21.363  42.013  24.182  1.00  0.00     0.066 A 
HETATM    5  N7  UNL     1      20.187  41.381  24.185  1.00  0.00    -0.317 N 
HETATM    6  C12 UNL     1      19.283  41.604  25.298  1.00  0.00     0.159 C 
HETATM    7  C13 UNL     1      19.830  40.540  23.168  1.00  0.00     0.266 A 
HETATM    8  O6  UNL     1      18.695  40.024  23.318  1.00  0.00    -0.267 OA
ENDROOT
BRANCH   4   9
HETATM    9  C8  UNL     1      21.756  42.942  25.307  1.00  0.00     0.284 C 
BRANCH   9  10
HETATM   10  O3  UNL     1      22.100  44.188  24.790  1.00  0.00    -0.370 OA
ATOM     11  H3  UNL     1      21.488  44.432  24.107  1.00  0.00     0.212 HD
ENDBRANCH   9  10
BRANCH   9  12
HETATM   12  N2  UNL     1      22.740  42.354  26.146  1.00  0.00    -0.301 N 
ATOM     13  H2  UNL     1      23.585  41.947  25.745  1.00  0.00     0.183 HD
BRANCH  12  14
HETATM   14  N3  UNL     1      22.542  42.342  27.482  1.00  0.00    -0.289 N 
ATOM     15  H3  UNL     1      22.621  43.237  27.966  1.00  0.00     0.188 HD
BRANCH  14  16
HETATM   16  C9  UNL     1      22.226  41.178  28.304  1.00  0.00     0.129 C 
HETATM   17  N4  UNL     1      21.059  40.667  28.383  1.00  0.00    -0.269 N 
HETATM   18  S1  UNL     1      21.119  39.326  29.448  1.00  0.00     0.253 S 
ATOM     19  H4  UNL     1      20.229  41.001  27.894  1.00  0.00     0.180 HD
HETATM   20  O4  UNL     1      21.095  38.013  28.767  1.00  0.00    -0.204 OA
HETATM   21  O5  UNL     1      20.076  39.460  30.512  1.00  0.00    -0.204 OA
HETATM   22  C10 UNL     1      22.739  39.668  30.151  1.00  0.00     0.266 C 
HETATM   23  N5  UNL     1      22.788  40.751  31.076  1.00  0.00    -0.123 NA
HETATM   24  C11 UNL     1      23.288  40.539  29.070  1.00  0.00     0.201 C 
HETATM   25  N6  UNL     1      23.746  41.347  30.213  1.00  0.00    -0.132 NA
ENDBRANCH  14  16
ENDBRANCH  12  14
ENDBRANCH   9  12
ENDBRANCH   4   9
BRANCH   2  26
HETATM   26  O2  UNL     1      22.773  40.783  21.071  1.00  0.00    -0.359 OA
ATOM     27  H2  UNL     1      23.471  41.398  20.882  1.00  0.00     0.217 HD
ENDBRANCH   2  26
BRANCH   1  28
HETATM   28  C3  UNL     1      20.262  39.376  20.989  1.00  0.00     0.260 C 
HETATM   29  N1  UNL     1      19.851  38.059  21.126  1.00  0.00    -0.350 N 
ATOM     30  H1  UNL     1      19.788  37.726  22.088  1.00  0.00     0.163 HD
HETATM   31  O1  UNL     1      20.316  39.810  19.792  1.00  0.00    -0.267 OA
BRANCH  29  32
HETATM   32  C2  UNL     1      19.496  37.084  20.121  1.00  0.00     0.111 C 
HETATM   33  C1  UNL     1      19.997  35.711  20.451  1.00  0.00     0.035 C 
BRANCH  32  34
HETATM   34  C14 UNL     1      18.115  37.033  19.611  1.00  0.00     0.164 C 
BRANCH  34  35
HETATM   35  O7  UNL     1      17.685  38.415  19.521  1.00  0.00    -0.392 OA
ATOM     36  H7  UNL     1      16.785  38.420  19.823  1.00  0.00     0.210 HD
ENDBRANCH  34  35
BRANCH  34  37
HETATM   37  C15 UNL     1      17.058  36.468  20.544  1.00  0.00     0.234 C 
BRANCH  37  38
HETATM   38  N8  UNL     1      16.756  37.275  21.688  1.00  0.00    -0.153 N 
HETATM   39  O8  UNL     1      15.954  38.197  21.779  1.00  0.00    -0.536 OA
HETATM   40  O9  UNL     1      17.453  36.935  22.857  1.00  0.00    -0.536 OA
ENDBRANCH  37  38
ENDBRANCH  34  37
ENDBRANCH  32  34
ENDBRANCH  29  32
ENDBRANCH   1  28
TORSDOF 12
ENDMDL
MODEL 4
REMARK VINA RESULT: -7.286433046      1.128      1.581
REMARK  12 active torsions:
REMARK  status: ('A' for Active; 'I' for Inactive)
REMARK    1  A    between atoms: C2_2  and  N1_3 
REMARK    2  A    between atoms: C2_2  and  C14_34 
REMARK       I    between atoms: N1_3  and  C3_5 
REMARK    3  A    between atoms: C3_5  and  C4_7 
REMARK    4  A    between atoms: C5_8  and  O2_9 
REMARK    5  A    between atoms: C7_12  and  C8_13 
REMARK    6  A    between atoms: C8_13  and  O3_14 
REMARK    7  A    between atoms: C8_13  and  N2_16 
REMARK    8  A    between atoms: N2_16  and  N3_18 
REMARK    9  A    between atoms: N3_18  and  C9_20 
REMARK   10  A    between atoms: C14_34  and  O7_35 
REMARK   11  A    between atoms: C14_34  and  C15_37 
REMARK   12  A    between atoms: C15_37  and  N8_38 
ROOT
HETATM    1  C4  UNL     1      20.687  40.222  22.220  1.00  0.00     0.133 A 
HETATM    2  C5  UNL     1      21.968  40.789  22.255  1.00  0.00     0.088 A 
HETATM    3  C6  UNL     1      22.276  41.603  23.372  1.00  0.00     0.067 A 
HETATM    4  C7  UNL     1      21.417  41.861  24.391  1.00  0.00     0.066 A 
HETATM    5  N7  UNL     1      20.207  41.302  24.320  1.00  0.00    -0.317 N 
HETATM    6  C12 UNL     1      19.263  41.554  25.393  1.00  0.00     0.159 C 
HETATM    7  C13 UNL     1      19.853  40.507  23.266  1.00  0.00     0.266 A 
HETATM    8  O6  UNL     1      18.683  40.057  23.347  1.00  0.00    -0.267 OA
ENDROOT
BRANCH   4   9
HETATM    9  C8  UNL     1      21.807  42.739  25.558  1.00  0.00     0.284 C 
BRANCH   9  10
HETATM   10  O3  UNL     1      22.183  43.997  25.095  1.00  0.00    -0.370 OA
ATOM     11  H3  UNL     1      21.426  44.449  24.742  1.00  0.00     0.212 HD
ENDBRANCH   9  10
BRANCH   9  12
HETATM   12  N2  UNL     1      22.765  42.101  26.390  1.00  0.00    -0.301 N 
ATOM     13  H2  UNL     1      23.725  42.446  26.432  1.00  0.00     0.183 HD
BRANCH  12  14
HETATM   14  N3  UNL     1      22.389  41.033  27.126  1.00  0.00    -0.289 N 
ATOM     15  H3  UNL     1      22.638  40.113  26.761  1.00  0.00     0.188 HD
BRANCH  14  16
HETATM   16  C9  UNL     1      21.663  41.061  28.391  1.00  0.00     0.129 C 
HETATM   17  N4  UNL     1      21.593  42.092  29.141  1.00  0.00    -0.269 N 
HETATM   18  S1  UNL     1      20.655  41.704  30.521  1.00  0.00     0.253 S 
ATOM     19  H4  UNL     1      22.025  42.996  28.950  1.00  0.00     0.180 HD
HETATM   20  O4  UNL     1      19.284  42.257  30.494  1.00  0.00    -0.204 OA
HETATM   21  O5  UNL     1      21.404  42.042  31.772  1.00  0.00    -0.204 OA
HETATM   22  C10 UNL     1      20.645  39.920  30.293  1.00  0.00     0.266 C 
HETATM   23  N5  UNL     1      21.867  39.257  30.602  1.00  0.00    -0.123 NA
HETATM   24  C11 UNL     1      20.959  39.865  28.835  1.00  0.00     0.201 C 
HETATM   25  N6  UNL     1      21.863  38.784  29.262  1.00  0.00    -0.132 NA
ENDBRANCH  14  16
ENDBRANCH  12  14
ENDBRANCH   9  12
ENDBRANCH   4   9
BRANCH   2  26
HETATM   26  O2  UNL     1      22.907  40.618  21.323  1.00  0.00    -0.359 OA
ATOM     27  H2  UNL     1      23.841  40.586  21.489  1.00  0.00     0.217 HD
ENDBRANCH   2  26
BRANCH   1  28
HETATM   28  C3  UNL     1      20.324  39.368  21.082  1.00  0.00     0.260 C 
HETATM   29  N1  UNL     1      19.857  38.066  21.164  1.00  0.00    -0.350 N 
ATOM     30  H1  UNL     1      19.748  37.707  22.113  1.00  0.00     0.163 HD
HETATM   31  O1  UNL     1      20.437  39.835  19.902  1.00  0.00    -0.267 OA
BRANCH  29  32
HETATM   32  C2  UNL     1      19.499  37.136  20.118  1.00  0.00     0.111 C 
HETATM   33  C1  UNL     1      20.002  35.751  20.384  1.00  0.00     0.035 C 
BRANCH  32  34
HETATM   34  C14 UNL     1      18.116  37.107  19.611  1.00  0.00     0.164 C 
BRANCH  34  35
HETATM   35  O7  UNL     1      17.693  38.494  19.562  1.00  0.00    -0.392 OA
ATOM     36  H7  UNL     1      17.023  38.530  18.891  1.00  0.00     0.210 HD
ENDBRANCH  34  35
BRANCH  34  37
HETATM   37  C15 UNL     1      17.059  36.521  20.531  1.00  0.00     0.234 C 
BRANCH  37  38
HETATM   38  N8  UNL     1      16.762  37.298  21.696  1.00  0.00    -0.153 N 
HETATM   39  O8  UNL     1      15.940  38.198  21.822  1.00  0.00    -0.536 OA
HETATM   40  O9  UNL     1      17.491  36.952  22.843  1.00  0.00    -0.536 OA
ENDBRANCH  37  38
ENDBRANCH  34  37
ENDBRANCH  32  34
ENDBRANCH  29  32
ENDBRANCH   1  28
TORSDOF 12
ENDMDL
MODEL 5
REMARK VINA RESULT: -7.251661540      1.380      1.550
REMARK  12 active torsions:
REMARK  status: ('A' for Active; 'I' for Inactive)
REMARK    1  A    between atoms: C2_2  and  N1_3 
REMARK    2  A    between atoms: C2_2  and  C14_34 
REMARK       I    between atoms: N1_3  and  C3_5 
REMARK    3  A    between atoms: C3_5  and  C4_7 
REMARK    4  A    between atoms: C5_8  and  O2_9 
REMARK    5  A    between atoms: C7_12  and  C8_13 
REMARK    6  A    between atoms: C8_13  and  O3_14 
REMARK    7  A    between atoms: C8_13  and  N2_16 
REMARK    8  A    between atoms: N2_16  and  N3_18 
REMARK    9  A    between atoms: N3_18  and  C9_20 
REMARK   10  A    between atoms: C14_34  and  O7_35 
REMARK   11  A    between atoms: C14_34  and  C15_37 
REMARK   12  A    between atoms: C15_37  and  N8_38 
ROOT
HETATM    1  C4  UNL     1      20.609  40.335  22.034  1.00  0.00     0.133 A 
HETATM    2  C5  UNL     1      21.820  41.035  21.961  1.00  0.00     0.088 A 
HETATM    3  C6  UNL     1      22.113  41.920  23.026  1.00  0.00     0.067 A 
HETATM    4  C7  UNL     1      21.301  42.126  24.096  1.00  0.00     0.066 A 
HETATM    5  N7  UNL     1      20.157  41.439  24.129  1.00  0.00    -0.317 N 
HETATM    6  C12 UNL     1      19.265  41.632  25.257  1.00  0.00     0.159 C 
HETATM    7  C13 UNL     1      19.820  40.570  23.128  1.00  0.00     0.266 A 
HETATM    8  O6  UNL     1      18.715  40.003  23.306  1.00  0.00    -0.267 OA
ENDROOT
BRANCH   4   9
HETATM    9  C8  UNL     1      21.671  43.085  25.203  1.00  0.00     0.284 C 
BRANCH   9  10
HETATM   10  O3  UNL     1      21.849  44.362  24.679  1.00  0.00    -0.370 OA
ATOM     11  H3  UNL     1      21.991  44.982  25.385  1.00  0.00     0.212 HD
ENDBRANCH   9  10
BRANCH   9  12
HETATM   12  N2  UNL     1      22.765  42.599  25.968  1.00  0.00    -0.301 N 
ATOM     13  H2  UNL     1      23.562  43.202  26.171  1.00  0.00     0.183 HD
BRANCH  12  14
HETATM   14  N3  UNL     1      22.735  41.327  26.422  1.00  0.00    -0.289 N 
ATOM     15  H3  UNL     1      22.401  40.615  25.771  1.00  0.00     0.188 HD
BRANCH  14  16
HETATM   16  C9  UNL     1      23.133  40.868  27.748  1.00  0.00     0.129 C 
HETATM   17  N4  UNL     1      24.330  40.546  28.054  1.00  0.00    -0.269 N 
HETATM   18  S1  UNL     1      24.366  40.065  29.697  1.00  0.00     0.253 S 
ATOM     19  H4  UNL     1      25.132  40.573  27.423  1.00  0.00     0.180 HD
HETATM   20  O4  UNL     1      24.944  41.075  30.610  1.00  0.00    -0.204 OA
HETATM   21  O5  UNL     1      25.002  38.716  29.830  1.00  0.00    -0.204 OA
HETATM   22  C10 UNL     1      22.589  39.915  29.928  1.00  0.00     0.266 C 
HETATM   23  N5  UNL     1      21.988  38.772  29.324  1.00  0.00    -0.123 NA
HETATM   24  C11 UNL     1      22.130  40.779  28.801  1.00  0.00     0.201 C 
HETATM   25  N6  UNL     1      21.171  39.679  28.598  1.00  0.00    -0.132 NA
ENDBRANCH  14  16
ENDBRANCH  12  14
ENDBRANCH   9  12
ENDBRANCH   4   9
BRANCH   2  26
HETATM   26  O2  UNL     1      22.707  40.929  20.970  1.00  0.00    -0.359 OA
ATOM     27  H2  UNL     1      22.530  41.119  20.057  1.00  0.00     0.217 HD
ENDBRANCH   2  26
BRANCH   1  28
HETATM   28  C3  UNL     1      20.265  39.404  20.953  1.00  0.00     0.260 C 
HETATM   29  N1  UNL     1      19.826  38.099  21.118  1.00  0.00    -0.350 N 
ATOM     30  H1  UNL     1      19.726  37.798  22.087  1.00  0.00     0.163 HD
HETATM   31  O1  UNL     1      20.367  39.798  19.746  1.00  0.00    -0.267 OA
BRANCH  29  32
HETATM   32  C2  UNL     1      19.490  37.098  20.132  1.00  0.00     0.111 C 
HETATM   33  C1  UNL     1      20.000  35.738  20.498  1.00  0.00     0.035 C 
BRANCH  32  34
HETATM   34  C14 UNL     1      18.114  37.022  19.611  1.00  0.00     0.164 C 
BRANCH  34  35
HETATM   35  O7  UNL     1      17.669  38.398  19.493  1.00  0.00    -0.392 OA
ATOM     36  H7  UNL     1      17.844  38.794  20.338  1.00  0.00     0.210 HD
ENDBRANCH  34  35
BRANCH  34  37
HETATM   37  C15 UNL     1      17.055  36.462  20.546  1.00  0.00     0.234 C 
BRANCH  37  38
HETATM   38  N8  UNL     1      16.766  37.265  21.695  1.00  0.00    -0.153 N 
HETATM   39  O8  UNL     1      15.954  38.177  21.803  1.00  0.00    -0.536 OA
HETATM   40  O9  UNL     1      17.490  36.934  22.850  1.00  0.00    -0.536 OA
ENDBRANCH  37  38
ENDBRANCH  34  37
ENDBRANCH  32  34
ENDBRANCH  29  32
ENDBRANCH   1  28
TORSDOF 12
ENDMDL
