MODEL 1
REMARK VINA RESULT: -6.514832169      0.000      0.000
REMARK  11 active torsions:
REMARK  status: ('A' for Active; 'I' for Inactive)
REMARK    1  A    between atoms: N1_1  and  C1_4 
REMARK    2  A    between atoms: C2_7  and  C3_8 
REMARK    3  A    between atoms: C3_8  and  C4_13 
REMARK    4  A    between atoms: N3_9  and  O1_11 
REMARK       I    between atoms: C4_13  and  N4_15 
REMARK    5  A    between atoms: N4_15  and  C5_17 
REMARK    6  A    between atoms: C7_21  and  C8_22 
REMARK    7  A    between atoms: C9_25  and  C10_26 
REMARK    8  A    between atoms: C10_26  and  O6_27 
REMARK    9  A    between atoms: O6_27  and  S1_28 
REMARK   10  A    between atoms: N6_32  and  N7_33 
REMARK   11  A    between atoms: C11_36  and  O10_37 
ROOT
HETATM    1  C5  UNL     1      19.536  42.358  23.203  1.00  0.00     0.205 C 
HETATM    2  C6  UNL     1      19.114  43.217  22.054  1.00  0.00     0.250 C 
HETATM    3  O3  UNL     1      19.156  44.395  21.659  1.00  0.00    -0.271 OA
HETATM    4  N5  UNL     1      18.575  42.033  21.509  1.00  0.00    -0.297 N 
HETATM    5  C7  UNL     1      18.246  41.121  20.440  1.00  0.00     0.141 C 
HETATM    6  C9  UNL     1      17.789  39.907  20.660  1.00  0.00     0.090 C 
HETATM    7  N6  UNL     1      17.614  39.480  22.040  1.00  0.00    -0.267 N 
HETATM    8  C11 UNL     1      18.305  40.186  23.070  1.00  0.00     0.266 C 
HETATM    9  C12 UNL     1      18.225  41.677  22.885  1.00  0.00     0.175 C 
ENDROOT
BRANCH   1  10
HETATM   10  N4  UNL     1      19.456  42.994  24.500  1.00  0.00    -0.340 N 
HETATM   11  C4  UNL     1      19.927  42.361  25.689  1.00  0.00     0.273 C 
HETATM   12  O2  UNL     1      20.431  41.189  25.548  1.00  0.00    -0.266 OA
ATOM     13  H4  UNL     1      19.048  43.927  24.567  1.00  0.00     0.163 HD
BRANCH  11  14
HETATM   14  C3  UNL     1      19.817  43.052  26.947  1.00  0.00     0.149 C 
HETATM   15  N3  UNL     1      19.524  44.271  27.068  1.00  0.00    -0.262 N 
ATOM     16  H3  UNL     1      19.502  44.545  28.050  1.00  0.00     0.194 HD
BRANCH  14  17
HETATM   17  C2  UNL     1      20.069  42.254  28.204  1.00  0.00     0.075 A 
HETATM   18  N2  UNL     1      19.386  41.226  28.599  1.00  0.00    -0.335 N 
HETATM   19  C1  UNL     1      19.743  40.620  29.753  1.00  0.00     0.142 A 
ATOM     20  H2  UNL     1      18.598  40.881  28.050  1.00  0.00     0.168 HD
HETATM   21  S2  UNL     1      21.066  41.529  30.280  1.00  0.00    -0.064 SA
HETATM   22  C13 UNL     1      21.121  42.658  29.003  1.00  0.00     0.085 A 
BRANCH  19  23
HETATM   23  N1  UNL     1      19.164  39.567  30.302  1.00  0.00    -0.380 N 
ATOM     24  H12 UNL     1      18.179  39.389  30.499  1.00  0.00     0.158 HD
ATOM     25  H11 UNL     1      19.629  38.722  30.634  1.00  0.00     0.158 HD
ENDBRANCH  19  23
ENDBRANCH  14  17
BRANCH  15  26
HETATM   26  O1  UNL     1      19.247  45.265  26.309  1.00  0.00    -0.289 OA
ATOM     27  H1  UNL     1      18.579  45.937  26.239  1.00  0.00     0.244 HD
ENDBRANCH  15  26
ENDBRANCH  11  14
ENDBRANCH   1  10
BRANCH   8  28
HETATM   28  O10 UNL     1      17.837  39.880  24.337  1.00  0.00    -0.373 OA
ATOM     29  H10 UNL     1      18.266  40.384  25.019  1.00  0.00     0.212 HD
ENDBRANCH   8  28
BRANCH   5  30
HETATM   30  C8  UNL     1      18.489  41.630  19.104  1.00  0.00     0.229 C 
HETATM   31  O4  UNL     1      17.806  42.532  18.613  1.00  0.00    -0.643 OA
HETATM   32  O5  UNL     1      19.518  41.121  18.301  1.00  0.00    -0.643 OA
ENDBRANCH   5  30
BRANCH   7  33
HETATM   33  N7  UNL     1      16.762  38.376  22.323  1.00  0.00    -0.340 N 
ATOM     34  H72 UNL     1      15.989  38.119  21.709  1.00  0.00     0.177 HD
ATOM     35  H71 UNL     1      16.927  37.823  23.163  1.00  0.00     0.177 HD
ENDBRANCH   7  33
BRANCH   6  36
HETATM   36  C10 UNL     1      17.421  38.901  19.660  1.00  0.00     0.254 C 
BRANCH  36  37
HETATM   37  O6  UNL     1      18.545  38.074  19.403  1.00  0.00    -0.251 OA
BRANCH  37  38
HETATM   38  S1  UNL     1      18.332  36.562  20.083  1.00  0.00     0.251 S 
HETATM   39  O7  UNL     1      18.925  36.504  21.480  1.00  0.00    -0.572 OA
HETATM   40  O8  UNL     1      19.038  35.496  19.287  1.00  0.00    -0.572 OA
HETATM   41  O9  UNL     1      16.708  36.166  20.236  1.00  0.00    -0.572 OA
ENDBRANCH  37  38
ENDBRANCH  36  37
ENDBRANCH   6  36
TORSDOF 11
ENDMDL
MODEL 2
REMARK VINA RESULT: -6.493978227      0.928      1.064
REMARK  11 active torsions:
REMARK  status: ('A' for Active; 'I' for Inactive)
REMARK    1  A    between atoms: N1_1  and  C1_4 
REMARK    2  A    between atoms: C2_7  and  C3_8 
REMARK    3  A    between atoms: C3_8  and  C4_13 
REMARK    4  A    between atoms: N3_9  and  O1_11 
REMARK       I    between atoms: C4_13  and  N4_15 
REMARK    5  A    between atoms: N4_15  and  C5_17 
REMARK    6  A    between atoms: C7_21  and  C8_22 
REMARK    7  A    between atoms: C9_25  and  C10_26 
REMARK    8  A    between atoms: C10_26  and  O6_27 
REMARK    9  A    between atoms: O6_27  and  S1_28 
REMARK   10  A    between atoms: N6_32  and  N7_33 
REMARK   11  A    between atoms: C11_36  and  O10_37 
ROOT
HETATM    1  C5  UNL     1      19.338  42.127  22.797  1.00  0.00     0.205 C 
HETATM    2  C6  UNL     1      18.904  42.754  21.510  1.00  0.00     0.250 C 
HETATM    3  O3  UNL     1      18.906  43.846  20.917  1.00  0.00    -0.271 OA
HETATM    4  N5  UNL     1      18.426  41.471  21.173  1.00  0.00    -0.297 N 
HETATM    5  C7  UNL     1      18.158  40.373  20.274  1.00  0.00     0.141 C 
HETATM    6  C9  UNL     1      17.747  39.197  20.696  1.00  0.00     0.090 C 
HETATM    7  N6  UNL     1      17.561  39.008  22.127  1.00  0.00    -0.267 N 
HETATM    8  C11 UNL     1      18.200  39.911  23.027  1.00  0.00     0.266 C 
HETATM    9  C12 UNL     1      18.062  41.343  22.585  1.00  0.00     0.175 C 
ENDROOT
BRANCH   1  10
HETATM   10  N4  UNL     1      19.204  42.974  23.962  1.00  0.00    -0.340 N 
HETATM   11  C4  UNL     1      19.636  42.560  25.258  1.00  0.00     0.273 C 
HETATM   12  O2  UNL     1      20.155  41.388  25.338  1.00  0.00    -0.266 OA
ATOM     13  H4  UNL     1      18.786  43.898  23.854  1.00  0.00     0.163 HD
BRANCH  11  14
HETATM   14  C3  UNL     1      19.473  43.454  26.375  1.00  0.00     0.149 C 
HETATM   15  N3  UNL     1      19.167  44.671  26.275  1.00  0.00    -0.262 N 
ATOM     16  H3  UNL     1      19.106  45.109  27.194  1.00  0.00     0.194 HD
BRANCH  14  17
HETATM   17  C2  UNL     1      19.685  42.885  27.758  1.00  0.00     0.075 A 
HETATM   18  N2  UNL     1      19.295  41.719  28.165  1.00  0.00    -0.335 N 
HETATM   19  C1  UNL     1      19.564  41.359  29.440  1.00  0.00     0.142 A 
ATOM     20  H2  UNL     1      18.796  41.087  27.539  1.00  0.00     0.168 HD
HETATM   21  S2  UNL     1      20.382  42.701  30.062  1.00  0.00    -0.064 SA
HETATM   22  C13 UNL     1      20.353  43.682  28.667  1.00  0.00     0.085 A 
BRANCH  19  23
HETATM   23  N1  UNL     1      19.244  40.217  30.021  1.00  0.00    -0.380 N 
ATOM     24  H12 UNL     1      18.725  39.418  29.654  1.00  0.00     0.158 HD
ATOM     25  H11 UNL     1      19.473  39.933  30.973  1.00  0.00     0.158 HD
ENDBRANCH  19  23
ENDBRANCH  14  17
BRANCH  15  26
HETATM   26  O1  UNL     1      18.911  45.517  25.347  1.00  0.00    -0.289 OA
ATOM     27  H1  UNL     1      18.165  46.010  25.026  1.00  0.00     0.244 HD
ENDBRANCH  15  26
ENDBRANCH  11  14
ENDBRANCH   1  10
BRANCH   8  28
HETATM   28  O10 UNL     1      17.719  39.810  24.322  1.00  0.00    -0.373 OA
ATOM     29  H10 UNL     1      18.366  39.471  24.930  1.00  0.00     0.212 HD
ENDBRANCH   8  28
BRANCH   5  30
HETATM   30  C8  UNL     1      18.407  40.654  18.873  1.00  0.00     0.229 C 
HETATM   31  O4  UNL     1      19.543  40.861  18.440  1.00  0.00    -0.643 OA
HETATM   32  O5  UNL     1      17.366  40.701  17.938  1.00  0.00    -0.643 OA
ENDBRANCH   5  30
BRANCH   7  33
HETATM   33  N7  UNL     1      16.750  37.934  22.586  1.00  0.00    -0.340 N 
ATOM     34  H72 UNL     1      16.265  37.308  21.941  1.00  0.00     0.177 HD
ATOM     35  H71 UNL     1      16.648  37.780  23.589  1.00  0.00     0.177 HD
ENDBRANCH   7  33
BRANCH   6  36
HETATM   36  C10 UNL     1      17.442  38.017  19.881  1.00  0.00     0.254 C 
BRANCH  36  37
HETATM   37  O6  UNL     1      18.651  37.502  19.346  1.00  0.00    -0.251 OA
BRANCH  37  38
HETATM   38  S1  UNL     1      19.383  36.467  20.436  1.00  0.00     0.251 S 
HETATM   39  O7  UNL     1      20.440  37.191  21.252  1.00  0.00    -0.572 OA
HETATM   40  O8  UNL     1      20.099  35.344  19.733  1.00  0.00    -0.572 OA
HETATM   41  O9  UNL     1      18.284  35.832  21.535  1.00  0.00    -0.572 OA
ENDBRANCH  37  38
ENDBRANCH  36  37
ENDBRANCH   6  36
TORSDOF 11
ENDMDL
MODEL 3
REMARK VINA RESULT: -6.391279290      0.626      1.023
REMARK  11 active torsions:
REMARK  status: ('A' for Active; 'I' for Inactive)
REMARK    1  A    between atoms: N1_1  and  C1_4 
REMARK    2  A    between atoms: C2_7  and  C3_8 
REMARK    3  A    between atoms: C3_8  and  C4_13 
REMARK    4  A    between atoms: N3_9  and  O1_11 
REMARK       I    between atoms: C4_13  and  N4_15 
REMARK    5  A    between atoms: N4_15  and  C5_17 
REMARK    6  A    between atoms: C7_21  and  C8_22 
REMARK    7  A    between atoms: C9_25  and  C10_26 
REMARK    8  A    between atoms: C10_26  and  O6_27 
REMARK    9  A    between atoms: O6_27  and  S1_28 
REMARK   10  A    between atoms: N6_32  and  N7_33 
REMARK   11  A    between atoms: C11_36  and  O10_37 
ROOT
HETATM    1  C5  UNL     1      19.858  42.506  23.414  1.00  0.00     0.205 C 
HETATM    2  C6  UNL     1      19.641  43.347  22.197  1.00  0.00     0.250 C 
HETATM    3  O3  UNL     1      19.806  44.507  21.780  1.00  0.00    -0.271 OA
HETATM    4  N5  UNL     1      19.104  42.179  21.619  1.00  0.00    -0.297 N 
HETATM    5  C7  UNL     1      18.859  41.250  20.541  1.00  0.00     0.141 C 
HETATM    6  C9  UNL     1      18.304  40.073  20.732  1.00  0.00     0.090 C 
HETATM    7  N6  UNL     1      17.927  39.705  22.089  1.00  0.00    -0.267 N 
HETATM    8  C11 UNL     1      18.522  40.405  23.180  1.00  0.00     0.266 C 
HETATM    9  C12 UNL     1      18.559  41.891  22.947  1.00  0.00     0.175 C 
ENDROOT
BRANCH   1  10
HETATM   10  N4  UNL     1      19.651  43.190  24.672  1.00  0.00    -0.340 N 
HETATM   11  C4  UNL     1      19.899  42.562  25.930  1.00  0.00     0.273 C 
HETATM   12  O2  UNL     1      20.319  41.350  25.888  1.00  0.00    -0.266 OA
ATOM     13  H4  UNL     1      19.316  44.153  24.660  1.00  0.00     0.163 HD
BRANCH  11  14
HETATM   14  C3  UNL     1      19.672  43.302  27.144  1.00  0.00     0.149 C 
HETATM   15  N3  UNL     1      19.453  44.541  27.194  1.00  0.00    -0.262 N 
ATOM     16  H3  UNL     1      19.320  44.850  28.157  1.00  0.00     0.194 HD
BRANCH  14  17
HETATM   17  C2  UNL     1      19.701  42.533  28.444  1.00  0.00     0.075 A 
HETATM   18  N2  UNL     1      19.405  41.279  28.589  1.00  0.00    -0.335 N 
HETATM   19  C1  UNL     1      19.481  40.739  29.825  1.00  0.00     0.142 A 
ATOM     20  H2  UNL     1      19.121  40.715  27.788  1.00  0.00     0.168 HD
HETATM   21  S2  UNL     1      19.981  42.034  30.789  1.00  0.00    -0.064 SA
HETATM   22  C13 UNL     1      20.076  43.229  29.576  1.00  0.00     0.085 A 
BRANCH  19  23
HETATM   23  N1  UNL     1      19.218  39.487  30.156  1.00  0.00    -0.380 N 
ATOM     24  H12 UNL     1      19.781  38.645  30.035  1.00  0.00     0.158 HD
ATOM     25  H11 UNL     1      18.370  39.143  30.607  1.00  0.00     0.158 HD
ENDBRANCH  19  23
ENDBRANCH  14  17
BRANCH  15  26
HETATM   26  O1  UNL     1      19.348  45.524  26.379  1.00  0.00    -0.289 OA
ATOM     27  H1  UNL     1      18.714  46.198  26.162  1.00  0.00     0.244 HD
ENDBRANCH  15  26
ENDBRANCH  11  14
ENDBRANCH   1  10
BRANCH   8  28
HETATM   28  O10 UNL     1      17.878  40.171  24.383  1.00  0.00    -0.373 OA
ATOM     29  H10 UNL     1      17.854  40.938  24.943  1.00  0.00     0.212 HD
ENDBRANCH   8  28
BRANCH   5  30
HETATM   30  C8  UNL     1      19.303  41.698  19.235  1.00  0.00     0.229 C 
HETATM   31  O4  UNL     1      20.446  41.487  18.824  1.00  0.00    -0.643 OA
HETATM   32  O5  UNL     1      18.450  42.396  18.370  1.00  0.00    -0.643 OA
ENDBRANCH   5  30
BRANCH   7  33
HETATM   33  N7  UNL     1      16.979  38.663  22.287  1.00  0.00    -0.340 N 
ATOM     34  H72 UNL     1      16.333  38.372  21.553  1.00  0.00     0.177 HD
ATOM     35  H71 UNL     1      16.942  38.189  23.189  1.00  0.00     0.177 HD
ENDBRANCH   7  33
BRANCH   6  36
HETATM   36  C10 UNL     1      18.006  39.056  19.719  1.00  0.00     0.254 C 
BRANCH  36  37
HETATM   37  O6  UNL     1      19.022  38.066  19.748  1.00  0.00    -0.251 OA
BRANCH  37  38
HETATM   38  S1  UNL     1      18.354  36.542  19.913  1.00  0.00     0.251 S 
HETATM   39  O7  UNL     1      19.278  35.478  19.347  1.00  0.00    -0.572 OA
HETATM   40  O8  UNL     1      17.063  36.421  19.148  1.00  0.00    -0.572 OA
HETATM   41  O9  UNL     1      18.095  36.141  21.523  1.00  0.00    -0.572 OA
ENDBRANCH  37  38
ENDBRANCH  36  37
ENDBRANCH   6  36
TORSDOF 11
ENDMDL
MODEL 4
REMARK VINA RESULT: -6.371546472      4.089      8.310
REMARK  11 active torsions:
REMARK  status: ('A' for Active; 'I' for Inactive)
REMARK    1  A    between atoms: N1_1  and  C1_4 
REMARK    2  A    between atoms: C2_7  and  C3_8 
REMARK    3  A    between atoms: C3_8  and  C4_13 
REMARK    4  A    between atoms: N3_9  and  O1_11 
REMARK       I    between atoms: C4_13  and  N4_15 
REMARK    5  A    between atoms: N4_15  and  C5_17 
REMARK    6  A    between atoms: C7_21  and  C8_22 
REMARK    7  A    between atoms: C9_25  and  C10_26 
REMARK    8  A    between atoms: C10_26  and  O6_27 
REMARK    9  A    between atoms: O6_27  and  S1_28 
REMARK   10  A    between atoms: N6_32  and  N7_33 
REMARK   11  A    between atoms: C11_36  and  O10_37 
ROOT
HETATM    1  C5  UNL     1      18.859  43.184  19.945  1.00  0.00     0.205 C 
HETATM    2  C6  UNL     1      19.936  42.986  20.963  1.00  0.00     0.250 C 
HETATM    3  O3  UNL     1      20.899  43.577  21.481  1.00  0.00    -0.271 OA
HETATM    4  N5  UNL     1      19.380  41.702  21.140  1.00  0.00    -0.297 N 
HETATM    5  C7  UNL     1      18.982  40.548  21.911  1.00  0.00     0.141 C 
HETATM    6  C9  UNL     1      18.258  39.574  21.404  1.00  0.00     0.090 C 
HETATM    7  N6  UNL     1      17.848  39.676  20.012  1.00  0.00    -0.267 N 
HETATM    8  C11 UNL     1      17.873  40.956  19.381  1.00  0.00     0.266 C 
HETATM    9  C12 UNL     1      19.131  41.718  19.698  1.00  0.00     0.175 C 
ENDROOT
BRANCH   1  10
HETATM   10  N4  UNL     1      19.250  43.957  18.786  1.00  0.00    -0.340 N 
HETATM   11  C4  UNL     1      18.319  44.333  17.772  1.00  0.00     0.273 C 
HETATM   12  O2  UNL     1      17.107  43.947  17.941  1.00  0.00    -0.266 OA
ATOM     13  H4  UNL     1      20.224  44.243  18.691  1.00  0.00     0.163 HD
BRANCH  11  14
HETATM   14  C3  UNL     1      18.777  45.103  16.645  1.00  0.00     0.149 C 
HETATM   15  N3  UNL     1      19.645  46.013  16.708  1.00  0.00    -0.262 N 
ATOM     16  H3  UNL     1      19.814  46.422  15.789  1.00  0.00     0.194 HD
BRANCH  14  17
HETATM   17  C2  UNL     1      18.170  44.793  15.297  1.00  0.00     0.075 A 
HETATM   18  N2  UNL     1      17.811  43.620  14.880  1.00  0.00    -0.335 N 
HETATM   19  C1  UNL     1      17.281  43.512  13.641  1.00  0.00     0.142 A 
ATOM     20  H2  UNL     1      17.924  42.798  15.473  1.00  0.00     0.168 HD
HETATM   21  S2  UNL     1      17.298  45.101  13.067  1.00  0.00    -0.064 SA
HETATM   22  C13 UNL     1      17.984  45.855  14.434  1.00  0.00     0.085 A 
BRANCH  19  23
HETATM   23  N1  UNL     1      16.863  42.404  13.057  1.00  0.00    -0.380 N 
ATOM     24  H12 UNL     1      17.341  41.513  12.922  1.00  0.00     0.158 HD
ATOM     25  H11 UNL     1      15.951  42.250  12.626  1.00  0.00     0.158 HD
ENDBRANCH  19  23
ENDBRANCH  14  17
BRANCH  15  26
HETATM   26  O1  UNL     1      20.378  46.572  17.600  1.00  0.00    -0.289 OA
ATOM     27  H1  UNL     1      21.264  46.498  17.934  1.00  0.00     0.244 HD
ENDBRANCH  15  26
ENDBRANCH  11  14
ENDBRANCH   1  10
BRANCH   8  28
HETATM   28  O10 UNL     1      17.747  40.879  18.005  1.00  0.00    -0.373 OA
ATOM     29  H10 UNL     1      17.009  40.347  17.732  1.00  0.00     0.212 HD
ENDBRANCH   8  28
BRANCH   5  30
HETATM   30  C8  UNL     1      19.412  40.559  23.296  1.00  0.00     0.229 C 
HETATM   31  O4  UNL     1      20.553  40.233  23.630  1.00  0.00    -0.643 OA
HETATM   32  O5  UNL     1      18.547  40.943  24.329  1.00  0.00    -0.643 OA
ENDBRANCH   5  30
BRANCH   7  33
HETATM   33  N7  UNL     1      17.438  38.502  19.321  1.00  0.00    -0.340 N 
ATOM     34  H72 UNL     1      17.246  37.627  19.808  1.00  0.00     0.177 HD
ATOM     35  H71 UNL     1      17.330  38.534  18.307  1.00  0.00     0.177 HD
ENDBRANCH   7  33
BRANCH   6  36
HETATM   36  C10 UNL     1      17.800  38.359  22.086  1.00  0.00     0.254 C 
BRANCH  36  37
HETATM   37  O6  UNL     1      18.834  37.389  22.043  1.00  0.00    -0.251 OA
BRANCH  37  38
HETATM   38  S1  UNL     1      18.401  36.111  21.056  1.00  0.00     0.251 S 
HETATM   39  O7  UNL     1      18.888  34.791  21.629  1.00  0.00    -0.572 OA
HETATM   40  O8  UNL     1      19.031  36.230  19.694  1.00  0.00    -0.572 OA
HETATM   41  O9  UNL     1      16.736  35.976  20.897  1.00  0.00    -0.572 OA
ENDBRANCH  37  38
ENDBRANCH  36  37
ENDBRANCH   6  36
TORSDOF 11
ENDMDL
MODEL 5
REMARK VINA RESULT: -6.362701427      2.821      8.506
REMARK  11 active torsions:
REMARK  status: ('A' for Active; 'I' for Inactive)
REMARK    1  A    between atoms: N1_1  and  C1_4 
REMARK    2  A    between atoms: C2_7  and  C3_8 
REMARK    3  A    between atoms: C3_8  and  C4_13 
REMARK    4  A    between atoms: N3_9  and  O1_11 
REMARK       I    between atoms: C4_13  and  N4_15 
REMARK    5  A    between atoms: N4_15  and  C5_17 
REMARK    6  A    between atoms: C7_21  and  C8_22 
REMARK    7  A    between atoms: C9_25  and  C10_26 
REMARK    8  A    between atoms: C10_26  and  O6_27 
REMARK    9  A    between atoms: O6_27  and  S1_28 
REMARK   10  A    between atoms: N6_32  and  N7_33 
REMARK   11  A    between atoms: C11_36  and  O10_37 
ROOT
HETATM    1  C5  UNL     1      19.383  41.482  25.036  1.00  0.00     0.205 C 
HETATM    2  C6  UNL     1      18.955  42.803  25.590  1.00  0.00     0.250 C 
HETATM    3  O3  UNL     1      18.131  43.713  25.395  1.00  0.00    -0.271 OA
HETATM    4  N5  UNL     1      19.972  42.608  26.547  1.00  0.00    -0.297 N 
HETATM    5  C7  UNL     1      20.555  42.687  27.865  1.00  0.00     0.141 C 
HETATM    6  C9  UNL     1      21.685  42.088  28.176  1.00  0.00     0.090 C 
HETATM    7  N6  UNL     1      22.361  41.319  27.143  1.00  0.00    -0.267 N 
HETATM    8  C11 UNL     1      21.615  40.898  26.002  1.00  0.00     0.266 C 
HETATM    9  C12 UNL     1      20.740  41.996  25.461  1.00  0.00     0.175 C 
ENDROOT
BRANCH   1  10
HETATM   10  N4  UNL     1      19.329  41.380  23.594  1.00  0.00    -0.340 N 
HETATM   11  C4  UNL     1      18.510  40.419  22.928  1.00  0.00     0.273 C 
HETATM   12  O2  UNL     1      17.818  39.642  23.681  1.00  0.00    -0.266 OA
ATOM     13  H4  UNL     1      19.896  42.016  23.033  1.00  0.00     0.163 HD
BRANCH  11  14
HETATM   14  C3  UNL     1      18.504  40.372  21.489  1.00  0.00     0.149 C 
HETATM   15  N3  UNL     1      18.539  41.386  20.743  1.00  0.00    -0.262 N 
ATOM     16  H3  UNL     1      18.526  41.117  19.760  1.00  0.00     0.194 HD
BRANCH  14  17
HETATM   17  C2  UNL     1      18.451  39.012  20.836  1.00  0.00     0.075 A 
HETATM   18  N2  UNL     1      17.434  38.512  20.207  1.00  0.00    -0.335 N 
HETATM   19  C1  UNL     1      17.550  37.274  19.677  1.00  0.00     0.142 A 
ATOM     20  H2  UNL     1      16.567  39.041  20.115  1.00  0.00     0.168 HD
HETATM   21  S2  UNL     1      19.127  36.820  20.082  1.00  0.00    -0.064 SA
HETATM   22  C13 UNL     1      19.588  38.233  20.919  1.00  0.00     0.085 A 
BRANCH  19  23
HETATM   23  N1  UNL     1      16.623  36.614  19.008  1.00  0.00    -0.380 N 
ATOM     24  H12 UNL     1      16.555  36.408  18.011  1.00  0.00     0.158 HD
ATOM     25  H11 UNL     1      15.784  36.181  19.396  1.00  0.00     0.158 HD
ENDBRANCH  19  23
ENDBRANCH  14  17
BRANCH  15  26
HETATM   26  O1  UNL     1      18.586  42.661  20.868  1.00  0.00    -0.289 OA
ATOM     27  H1  UNL     1      19.194  43.319  21.186  1.00  0.00     0.244 HD
ENDBRANCH  15  26
ENDBRANCH  11  14
ENDBRANCH   1  10
BRANCH   8  28
HETATM   28  O10 UNL     1      22.421  40.439  24.973  1.00  0.00    -0.373 OA
ATOM     29  H10 UNL     1      22.303  39.513  24.798  1.00  0.00     0.212 HD
ENDBRANCH   8  28
BRANCH   5  30
HETATM   30  C8  UNL     1      19.786  43.448  28.831  1.00  0.00     0.229 C 
HETATM   31  O4  UNL     1      18.933  42.921  29.549  1.00  0.00    -0.643 OA
HETATM   32  O5  UNL     1      19.976  44.826  28.998  1.00  0.00    -0.643 OA
ENDBRANCH   5  30
BRANCH   7  33
HETATM   33  N7  UNL     1      23.741  41.012  27.297  1.00  0.00    -0.340 N 
ATOM     34  H72 UNL     1      24.091  40.477  28.093  1.00  0.00     0.177 HD
ATOM     35  H71 UNL     1      24.405  41.333  26.593  1.00  0.00     0.177 HD
ENDBRANCH   7  33
BRANCH   6  36
HETATM   36  C10 UNL     1      22.369  42.101  29.473  1.00  0.00     0.254 C 
BRANCH  36  37
HETATM   37  O6  UNL     1      21.677  41.245  30.367  1.00  0.00    -0.251 OA
BRANCH  37  38
HETATM   38  S1  UNL     1      22.377  39.727  30.391  1.00  0.00     0.251 S 
HETATM   39  O7  UNL     1      22.232  39.081  31.758  1.00  0.00    -0.572 OA
HETATM   40  O8  UNL     1      23.857  39.799  30.121  1.00  0.00    -0.572 OA
HETATM   41  O9  UNL     1      21.655  38.685  29.292  1.00  0.00    -0.572 OA
ENDBRANCH  37  38
ENDBRANCH  36  37
ENDBRANCH   6  36
TORSDOF 11
ENDMDL
