MODEL 1
REMARK VINA RESULT: -6.783163539      0.000      0.000
REMARK  13 active torsions:
REMARK  status: ('A' for Active; 'I' for Inactive)
REMARK    1  A    between atoms: N1_1  and  N2_4 
REMARK    2  A    between atoms: N3_6  and  C1_8 
REMARK    3  A    between atoms: C2_9  and  O1_10 
REMARK    4  A    between atoms: C3_13  and  N4_14 
REMARK    5  A    between atoms: C4_15  and  C5_16 
REMARK       I    between atoms: C5_16  and  N5_18 
REMARK    6  A    between atoms: N5_18  and  C6_20 
REMARK    7  A    between atoms: C6_20  and  C7_21 
REMARK    8  A    between atoms: C6_20  and  C8_24 
REMARK    9  A    between atoms: C8_24  and  N6_25 
REMARK   10  A    between atoms: C8_24  and  O6_29 
REMARK   11  A    between atoms: C10_34  and  N8_35 
REMARK   12  A    between atoms: C13_44  and  N11_45 
REMARK       I    between atoms: N11_45  and  C14_47 
REMARK   13  A    between atoms: C14_47  and  C15_49 
ROOT
HETATM    1  N4  UNL     1      18.602  40.341  20.890  1.00  0.00    -0.279 N 
HETATM    2  C4  UNL     1      18.189  40.465  19.585  1.00  0.00     0.181 A 
HETATM    3  N7  UNL     1      17.555  39.286  19.265  1.00  0.00    -0.332 N 
ATOM      4  H7  UNL     1      17.137  39.067  18.361  1.00  0.00     0.168 HD
HETATM    5  C9  UNL     1      17.574  38.487  20.308  1.00  0.00     0.123 A 
HETATM    6  C10 UNL     1      17.070  37.213  20.485  1.00  0.00     0.131 A 
HETATM    7  N9  UNL     1      17.215  36.597  21.670  1.00  0.00    -0.337 N 
ATOM      8  H9  UNL     1      16.849  35.657  21.821  1.00  0.00     0.168 HD
HETATM    9  C11 UNL     1      17.858  37.257  22.654  1.00  0.00     0.183 A 
HETATM   10  N10 UNL     1      18.355  38.490  22.505  1.00  0.00    -0.336 N 
ATOM     11  H10 UNL     1      18.833  38.947  23.281  1.00  0.00     0.168 HD
HETATM   12  C12 UNL     1      18.223  39.116  21.344  1.00  0.00     0.143 A 
ENDROOT
BRANCH   1  13
HETATM   13  C3  UNL     1      19.297  41.404  21.493  1.00  0.00     0.283 C 
HETATM   14  O2  UNL     1      20.375  41.704  20.598  1.00  0.00    -0.329 OA
HETATM   15  C2  UNL     1      21.360  40.785  20.907  1.00  0.00     0.289 C 
HETATM   16  C1  UNL     1      21.276  40.573  22.418  1.00  0.00     0.205 C 
HETATM   17  C13 UNL     1      20.057  41.363  22.727  1.00  0.00     0.068 C 
BRANCH  15  18
HETATM   18  O1  UNL     1      21.267  39.578  20.269  1.00  0.00    -0.369 OA
ATOM     19  H1  UNL     1      21.669  39.641  19.410  1.00  0.00     0.212 HD
ENDBRANCH  15  18
BRANCH  16  20
HETATM   20  N3  UNL     1      22.437  41.217  23.058  1.00  0.00    -0.307 N 
HETATM   21  N2  UNL     1      22.858  40.757  24.131  1.00  0.00    -0.253 N 
ATOM     22  H2  UNL     1      23.594  40.129  23.808  1.00  0.00     0.207 HD
ATOM     23  H3  UNL     1      22.886  42.025  22.627  1.00  0.00     0.182 HD
BRANCH  21  24
HETATM   24  N1  UNL     1      22.923  40.602  25.351  1.00  0.00    -0.331 N 
ATOM     25  H12 UNL     1      21.930  40.687  25.570  1.00  0.00     0.178 HD
ATOM     26  H11 UNL     1      23.366  40.442  26.256  1.00  0.00     0.178 HD
ENDBRANCH  21  24
ENDBRANCH  16  20
BRANCH  17  27
HETATM   27  N11 UNL     1      19.470  41.273  23.988  1.00  0.00    -0.319 N 
HETATM   28  C14 UNL     1      19.846  42.135  25.072  1.00  0.00     0.322 C 
HETATM   29  O7  UNL     1      20.740  43.005  24.877  1.00  0.00    -0.261 OA
ATOM     30  H11 UNL     1      18.748  40.570  24.145  1.00  0.00     0.169 HD
BRANCH  28  31
HETATM   31  C15 UNL     1      19.254  42.064  26.393  1.00  0.00     0.270 C 
HETATM   32  O8  UNL     1      19.762  41.323  27.266  1.00  0.00    -0.640 OA
HETATM   33  O9  UNL     1      18.132  42.803  26.718  1.00  0.00    -0.640 OA
ENDBRANCH  28  31
ENDBRANCH  17  27
ENDBRANCH   1  13
BRANCH   2  34
HETATM   34  C5  UNL     1      18.300  41.555  18.638  1.00  0.00     0.286 C 
HETATM   35  O3  UNL     1      17.506  42.491  18.591  1.00  0.00    -0.264 OA
HETATM   36  N5  UNL     1      19.388  41.564  17.690  1.00  0.00    -0.336 N 
ATOM     37  H5  UNL     1      20.067  40.802  17.698  1.00  0.00     0.164 HD
BRANCH  36  38
HETATM   38  C6  UNL     1      19.534  42.634  16.728  1.00  0.00     0.242 C 
BRANCH  38  39
HETATM   39  C7  UNL     1      19.797  42.130  15.370  1.00  0.00     0.201 C 
HETATM   40  O4  UNL     1      20.584  41.171  15.181  1.00  0.00    -0.646 OA
HETATM   41  O5  UNL     1      19.190  42.690  14.256  1.00  0.00    -0.646 OA
ENDBRANCH  38  39
BRANCH  38  42
HETATM   42  C8  UNL     1      20.639  43.593  17.121  1.00  0.00     0.349 C 
BRANCH  42  43
HETATM   43  N6  UNL     1      21.636  42.840  17.857  1.00  0.00    -0.051 N 
ATOM     44  H63 UNL     1      21.234  42.282  18.611  1.00  0.00     0.277 HD
ATOM     45  H62 UNL     1      22.030  42.071  17.316  1.00  0.00     0.277 HD
ATOM     46  H61 UNL     1      22.344  43.498  18.183  1.00  0.00     0.277 HD
ENDBRANCH  42  43
BRANCH  42  47
HETATM   47  O6  UNL     1      21.268  44.119  15.998  1.00  0.00    -0.368 OA
ATOM     48  H6  UNL     1      21.634  44.976  16.183  1.00  0.00     0.212 HD
ENDBRANCH  42  47
ENDBRANCH  38  42
ENDBRANCH  36  38
ENDBRANCH   2  34
BRANCH   6  49
HETATM   49  N8  UNL     1      16.464  36.626  19.515  1.00  0.00    -0.383 N 
ATOM     50  H82 UNL     1      15.512  36.891  19.262  1.00  0.00     0.157 HD
ATOM     51  H81 UNL     1      16.940  35.890  18.992  1.00  0.00     0.157 HD
ENDBRANCH   6  49
TORSDOF 13
ENDMDL
MODEL 2
REMARK VINA RESULT: -6.569986916      2.707      7.207
REMARK  13 active torsions:
REMARK  status: ('A' for Active; 'I' for Inactive)
REMARK    1  A    between atoms: N1_1  and  N2_4 
REMARK    2  A    between atoms: N3_6  and  C1_8 
REMARK    3  A    between atoms: C2_9  and  O1_10 
REMARK    4  A    between atoms: C3_13  and  N4_14 
REMARK    5  A    between atoms: C4_15  and  C5_16 
REMARK       I    between atoms: C5_16  and  N5_18 
REMARK    6  A    between atoms: N5_18  and  C6_20 
REMARK    7  A    between atoms: C6_20  and  C7_21 
REMARK    8  A    between atoms: C6_20  and  C8_24 
REMARK    9  A    between atoms: C8_24  and  N6_25 
REMARK   10  A    between atoms: C8_24  and  O6_29 
REMARK   11  A    between atoms: C10_34  and  N8_35 
REMARK   12  A    between atoms: C13_44  and  N11_45 
REMARK       I    between atoms: N11_45  and  C14_47 
REMARK   13  A    between atoms: C14_47  and  C15_49 
ROOT
HETATM    1  N4  UNL     1      18.700  41.215  21.285  1.00  0.00    -0.279 N 
HETATM    2  C4  UNL     1      18.456  40.383  22.352  1.00  0.00     0.181 A 
HETATM    3  N7  UNL     1      18.486  41.175  23.476  1.00  0.00    -0.332 N 
ATOM      4  H7  UNL     1      18.342  40.850  24.432  1.00  0.00     0.168 HD
HETATM    5  C9  UNL     1      18.731  42.417  23.125  1.00  0.00     0.123 A 
HETATM    6  C10 UNL     1      18.852  43.568  23.880  1.00  0.00     0.131 A 
HETATM    7  N9  UNL     1      19.104  44.740  23.274  1.00  0.00    -0.337 N 
ATOM      8  H9  UNL     1      19.196  45.601  23.814  1.00  0.00     0.168 HD
HETATM    9  C11 UNL     1      19.231  44.747  21.932  1.00  0.00     0.183 A 
HETATM   10  N10 UNL     1      19.119  43.645  21.181  1.00  0.00    -0.336 N 
ATOM     11  H10 UNL     1      19.224  43.703  20.168  1.00  0.00     0.168 HD
HETATM   12  C12 UNL     1      18.871  42.478  21.759  1.00  0.00     0.143 A 
ENDROOT
BRANCH   1  13
HETATM   13  C3  UNL     1      18.738  40.673  19.989  1.00  0.00     0.283 C 
HETATM   14  O2  UNL     1      20.008  40.016  19.892  1.00  0.00    -0.329 OA
HETATM   15  C2  UNL     1      20.904  41.021  19.581  1.00  0.00     0.289 C 
HETATM   16  C1  UNL     1      20.151  41.989  18.671  1.00  0.00     0.205 C 
HETATM   17  C13 UNL     1      18.787  41.405  18.737  1.00  0.00     0.068 C 
BRANCH  15  18
HETATM   18  O1  UNL     1      21.425  41.703  20.647  1.00  0.00    -0.369 OA
ATOM     19  H1  UNL     1      21.163  42.616  20.599  1.00  0.00     0.212 HD
ENDBRANCH  15  18
BRANCH  16  20
HETATM   20  N3  UNL     1      20.663  41.852  17.296  1.00  0.00    -0.307 N 
HETATM   21  N2  UNL     1      20.708  42.860  16.573  1.00  0.00    -0.253 N 
ATOM     22  H2  UNL     1      21.667  43.173  16.722  1.00  0.00     0.207 HD
ATOM     23  H3  UNL     1      20.974  40.946  16.946  1.00  0.00     0.182 HD
BRANCH  21  24
HETATM   24  N1  UNL     1      20.293  43.710  15.784  1.00  0.00    -0.331 N 
ATOM     25  H12 UNL     1      20.973  44.444  15.978  1.00  0.00     0.178 HD
ATOM     26  H11 UNL     1      19.688  44.110  15.067  1.00  0.00     0.178 HD
ENDBRANCH  21  24
ENDBRANCH  16  20
BRANCH  17  27
HETATM   27  N11 UNL     1      17.703  42.106  18.214  1.00  0.00    -0.319 N 
HETATM   28  C14 UNL     1      17.331  42.024  16.831  1.00  0.00     0.322 C 
HETATM   29  O7  UNL     1      18.011  41.291  16.059  1.00  0.00    -0.261 OA
ATOM     30  H11 UNL     1      17.154  42.699  18.837  1.00  0.00     0.169 HD
BRANCH  28  31
HETATM   31  C15 UNL     1      16.210  42.742  16.258  1.00  0.00     0.270 C 
HETATM   32  O8  UNL     1      16.220  43.995  16.228  1.00  0.00    -0.640 OA
HETATM   33  O9  UNL     1      15.117  42.073  15.740  1.00  0.00    -0.640 OA
ENDBRANCH  28  31
ENDBRANCH  17  27
ENDBRANCH   1  13
BRANCH   2  34
HETATM   34  C5  UNL     1      18.178  38.963  22.424  1.00  0.00     0.286 C 
HETATM   35  O3  UNL     1      17.650  38.429  23.395  1.00  0.00    -0.264 OA
HETATM   36  N5  UNL     1      18.531  38.113  21.312  1.00  0.00    -0.336 N 
ATOM     37  H5  UNL     1      18.972  38.523  20.488  1.00  0.00     0.164 HD
BRANCH  36  38
HETATM   38  C6  UNL     1      18.270  36.691  21.345  1.00  0.00     0.242 C 
BRANCH  38  39
HETATM   39  C7  UNL     1      19.362  35.910  20.741  1.00  0.00     0.201 C 
HETATM   40  O4  UNL     1      20.079  36.402  19.836  1.00  0.00    -0.646 OA
HETATM   41  O5  UNL     1      19.640  34.613  21.146  1.00  0.00    -0.646 OA
ENDBRANCH  38  39
BRANCH  38  42
HETATM   42  C8  UNL     1      16.971  36.345  20.648  1.00  0.00     0.349 C 
BRANCH  42  43
HETATM   43  N6  UNL     1      15.943  37.225  21.166  1.00  0.00    -0.051 N 
ATOM     44  H63 UNL     1      16.281  37.832  21.914  1.00  0.00     0.277 HD
ATOM     45  H62 UNL     1      15.679  37.957  20.508  1.00  0.00     0.277 HD
ATOM     46  H61 UNL     1      15.153  36.646  21.452  1.00  0.00     0.277 HD
ENDBRANCH  42  43
BRANCH  42  47
HETATM   47  O6  UNL     1      17.060  36.579  19.280  1.00  0.00    -0.368 OA
ATOM     48  H6  UNL     1      17.961  36.734  19.019  1.00  0.00     0.212 HD
ENDBRANCH  42  47
ENDBRANCH  38  42
ENDBRANCH  36  38
ENDBRANCH   2  34
BRANCH   6  49
HETATM   49  N8  UNL     1      18.722  43.509  25.158  1.00  0.00    -0.383 N 
ATOM     50  H82 UNL     1      19.520  43.279  25.750  1.00  0.00     0.157 HD
ATOM     51  H81 UNL     1      17.813  43.695  25.583  1.00  0.00     0.157 HD
ENDBRANCH   6  49
TORSDOF 13
ENDMDL
MODEL 3
REMARK VINA RESULT: -6.530755399      3.548      8.583
REMARK  13 active torsions:
REMARK  status: ('A' for Active; 'I' for Inactive)
REMARK    1  A    between atoms: N1_1  and  N2_4 
REMARK    2  A    between atoms: N3_6  and  C1_8 
REMARK    3  A    between atoms: C2_9  and  O1_10 
REMARK    4  A    between atoms: C3_13  and  N4_14 
REMARK    5  A    between atoms: C4_15  and  C5_16 
REMARK       I    between atoms: C5_16  and  N5_18 
REMARK    6  A    between atoms: N5_18  and  C6_20 
REMARK    7  A    between atoms: C6_20  and  C7_21 
REMARK    8  A    between atoms: C6_20  and  C8_24 
REMARK    9  A    between atoms: C8_24  and  N6_25 
REMARK   10  A    between atoms: C8_24  and  O6_29 
REMARK   11  A    between atoms: C10_34  and  N8_35 
REMARK   12  A    between atoms: C13_44  and  N11_45 
REMARK       I    between atoms: N11_45  and  C14_47 
REMARK   13  A    between atoms: C14_47  and  C15_49 
ROOT
HETATM    1  N4  UNL     1      18.256  42.524  17.823  1.00  0.00    -0.279 N 
HETATM    2  C4  UNL     1      18.619  41.798  18.933  1.00  0.00     0.181 A 
HETATM    3  N7  UNL     1      19.858  42.261  19.311  1.00  0.00    -0.332 N 
ATOM      4  H7  UNL     1      20.399  41.918  20.105  1.00  0.00     0.168 HD
HETATM    5  C9  UNL     1      20.234  43.213  18.488  1.00  0.00     0.123 A 
HETATM    6  C10 UNL     1      21.382  43.983  18.454  1.00  0.00     0.131 A 
HETATM    7  N9  UNL     1      21.532  44.914  17.497  1.00  0.00    -0.337 N 
ATOM      8  H9  UNL     1      22.371  45.492  17.455  1.00  0.00     0.168 HD
HETATM    9  C11 UNL     1      20.541  45.062  16.595  1.00  0.00     0.183 A 
HETATM   10  N10 UNL     1      19.423  44.329  16.609  1.00  0.00    -0.336 N 
ATOM     11  H10 UNL     1      18.702  44.480  15.903  1.00  0.00     0.168 HD
HETATM   12  C12 UNL     1      19.254  43.404  17.544  1.00  0.00     0.143 A 
ENDROOT
BRANCH   1  13
HETATM   13  C3  UNL     1      17.022  42.259  17.205  1.00  0.00     0.283 C 
HETATM   14  O2  UNL     1      17.193  40.997  16.548  1.00  0.00    -0.329 OA
HETATM   15  C2  UNL     1      17.815  41.302  15.351  1.00  0.00     0.289 C 
HETATM   16  C1  UNL     1      17.240  42.646  14.909  1.00  0.00     0.205 C 
HETATM   17  C13 UNL     1      16.423  42.987  16.102  1.00  0.00     0.068 C 
BRANCH  15  18
HETATM   18  O1  UNL     1      19.180  41.378  15.394  1.00  0.00    -0.369 OA
ATOM     19  H1  UNL     1      19.551  40.506  15.327  1.00  0.00     0.212 HD
ENDBRANCH  15  18
BRANCH  16  20
HETATM   20  N3  UNL     1      16.341  42.430  13.762  1.00  0.00    -0.307 N 
HETATM   21  N2  UNL     1      15.300  41.778  13.934  1.00  0.00    -0.253 N 
ATOM     22  H2  UNL     1      14.623  42.519  14.112  1.00  0.00     0.207 HD
ATOM     23  H3  UNL     1      16.571  42.810  12.844  1.00  0.00     0.182 HD
BRANCH  21  24
HETATM   24  N1  UNL     1      14.590  40.774  14.019  1.00  0.00    -0.331 N 
ATOM     25  H12 UNL     1      14.800  40.520  14.984  1.00  0.00     0.178 HD
ATOM     26  H11 UNL     1      13.932  40.060  13.708  1.00  0.00     0.178 HD
ENDBRANCH  21  24
ENDBRANCH  16  20
BRANCH  17  27
HETATM   27  N11 UNL     1      15.877  44.263  16.231  1.00  0.00    -0.319 N 
HETATM   28  C14 UNL     1      14.512  44.551  15.893  1.00  0.00     0.322 C 
HETATM   29  O7  UNL     1      13.780  43.615  15.464  1.00  0.00    -0.261 OA
ATOM     30  H11 UNL     1      16.468  45.019  16.577  1.00  0.00     0.169 HD
BRANCH  28  31
HETATM   31  C15 UNL     1      13.917  45.867  16.016  1.00  0.00     0.270 C 
HETATM   32  O8  UNL     1      13.904  46.640  15.030  1.00  0.00    -0.640 OA
HETATM   33  O9  UNL     1      13.357  46.294  17.205  1.00  0.00    -0.640 OA
ENDBRANCH  28  31
ENDBRANCH  17  27
ENDBRANCH   1  13
BRANCH   2  34
HETATM   34  C5  UNL     1      17.932  40.760  19.673  1.00  0.00     0.286 C 
HETATM   35  O3  UNL     1      16.949  40.973  20.378  1.00  0.00    -0.264 OA
HETATM   36  N5  UNL     1      18.407  39.399  19.595  1.00  0.00    -0.336 N 
ATOM     37  H5  UNL     1      19.222  39.185  19.019  1.00  0.00     0.164 HD
BRANCH  36  38
HETATM   38  C6  UNL     1      17.748  38.334  20.319  1.00  0.00     0.242 C 
BRANCH  38  39
HETATM   39  C7  UNL     1      18.448  37.994  21.569  1.00  0.00     0.201 C 
HETATM   40  O4  UNL     1      19.562  38.506  21.842  1.00  0.00    -0.646 OA
HETATM   41  O5  UNL     1      17.910  37.105  22.486  1.00  0.00    -0.646 OA
ENDBRANCH  38  39
BRANCH  38  42
HETATM   42  C8  UNL     1      17.613  37.084  19.473  1.00  0.00     0.349 C 
BRANCH  42  43
HETATM   43  N6  UNL     1      18.775  36.255  19.721  1.00  0.00    -0.051 N 
ATOM     44  H63 UNL     1      18.537  35.275  19.876  1.00  0.00     0.277 HD
ATOM     45  H62 UNL     1      19.352  36.123  18.891  1.00  0.00     0.277 HD
ATOM     46  H61 UNL     1      19.289  36.666  20.500  1.00  0.00     0.277 HD
ENDBRANCH  42  43
BRANCH  42  47
HETATM   47  O6  UNL     1      16.495  36.347  19.848  1.00  0.00    -0.368 OA
ATOM     48  H6  UNL     1      15.697  36.847  19.717  1.00  0.00     0.212 HD
ENDBRANCH  42  47
ENDBRANCH  38  42
ENDBRANCH  36  38
ENDBRANCH   2  34
BRANCH   6  49
HETATM   49  N8  UNL     1      22.298  43.802  19.338  1.00  0.00    -0.383 N 
ATOM     50  H82 UNL     1      22.126  43.207  20.148  1.00  0.00     0.157 HD
ATOM     51  H81 UNL     1      23.205  44.257  19.227  1.00  0.00     0.157 HD
ENDBRANCH   6  49
TORSDOF 13
ENDMDL
MODEL 4
REMARK VINA RESULT: -6.496749785      3.003      7.763
REMARK  13 active torsions:
REMARK  status: ('A' for Active; 'I' for Inactive)
REMARK    1  A    between atoms: N1_1  and  N2_4 
REMARK    2  A    between atoms: N3_6  and  C1_8 
REMARK    3  A    between atoms: C2_9  and  O1_10 
REMARK    4  A    between atoms: C3_13  and  N4_14 
REMARK    5  A    between atoms: C4_15  and  C5_16 
REMARK       I    between atoms: C5_16  and  N5_18 
REMARK    6  A    between atoms: N5_18  and  C6_20 
REMARK    7  A    between atoms: C6_20  and  C7_21 
REMARK    8  A    between atoms: C6_20  and  C8_24 
REMARK    9  A    between atoms: C8_24  and  N6_25 
REMARK   10  A    between atoms: C8_24  and  O6_29 
REMARK   11  A    between atoms: C10_34  and  N8_35 
REMARK   12  A    between atoms: C13_44  and  N11_45 
REMARK       I    between atoms: N11_45  and  C14_47 
REMARK   13  A    between atoms: C14_47  and  C15_49 
ROOT
HETATM    1  N4  UNL     1      18.858  42.129  19.985  1.00  0.00    -0.279 N 
HETATM    2  C4  UNL     1      19.011  41.535  21.215  1.00  0.00     0.181 A 
HETATM    3  N7  UNL     1      19.172  42.557  22.122  1.00  0.00    -0.332 N 
ATOM      4  H7  UNL     1      19.310  42.439  23.125  1.00  0.00     0.168 HD
HETATM    5  C9  UNL     1      19.119  43.708  21.491  1.00  0.00     0.123 A 
HETATM    6  C10 UNL     1      19.220  45.005  21.958  1.00  0.00     0.131 A 
HETATM    7  N9  UNL     1      19.126  46.033  21.097  1.00  0.00    -0.337 N 
ATOM      8  H9  UNL     1      19.198  46.997  21.422  1.00  0.00     0.168 HD
HETATM    9  C11 UNL     1      18.933  45.753  19.793  1.00  0.00     0.183 A 
HETATM   10  N10 UNL     1      18.833  44.506  19.319  1.00  0.00    -0.336 N 
ATOM     11  H10 UNL     1      18.687  44.347  18.322  1.00  0.00     0.168 HD
HETATM   12  C12 UNL     1      18.923  43.477  20.150  1.00  0.00     0.143 A 
ENDROOT
BRANCH   1  13
HETATM   13  C3  UNL     1      18.682  41.319  18.850  1.00  0.00     0.283 C 
HETATM   14  O2  UNL     1      19.935  40.648  18.668  1.00  0.00    -0.329 OA
HETATM   15  C2  UNL     1      20.728  41.555  17.991  1.00  0.00     0.289 C 
HETATM   16  C1  UNL     1      19.793  42.308  17.046  1.00  0.00     0.205 C 
HETATM   17  C13 UNL     1      18.483  41.761  17.482  1.00  0.00     0.068 C 
BRANCH  15  18
HETATM   18  O1  UNL     1      21.408  42.449  18.773  1.00  0.00    -0.369 OA
ATOM     19  H1  UNL     1      22.128  42.822  18.278  1.00  0.00     0.212 HD
ENDBRANCH  15  18
BRANCH  16  20
HETATM   20  N3  UNL     1      20.056  41.873  15.663  1.00  0.00    -0.307 N 
HETATM   21  N2  UNL     1      19.865  42.677  14.738  1.00  0.00    -0.253 N 
ATOM     22  H2  UNL     1      20.798  43.070  14.616  1.00  0.00     0.207 HD
ATOM     23  H3  UNL     1      20.387  40.927  15.471  1.00  0.00     0.182 HD
BRANCH  21  24
HETATM   24  N1  UNL     1      19.229  43.288  13.878  1.00  0.00    -0.331 N 
ATOM     25  H12 UNL     1      19.838  44.100  13.785  1.00  0.00     0.178 HD
ATOM     26  H11 UNL     1      18.472  43.464  13.218  1.00  0.00     0.178 HD
ENDBRANCH  21  24
ENDBRANCH  16  20
BRANCH  17  27
HETATM   27  N11 UNL     1      17.300  42.340  17.027  1.00  0.00    -0.319 N 
HETATM   28  C14 UNL     1      16.668  41.933  15.805  1.00  0.00     0.322 C 
HETATM   29  O7  UNL     1      17.202  41.018  15.118  1.00  0.00    -0.261 OA
ATOM     30  H11 UNL     1      16.869  43.080  17.582  1.00  0.00     0.169 HD
BRANCH  28  31
HETATM   31  C15 UNL     1      15.439  42.517  15.306  1.00  0.00     0.270 C 
HETATM   32  O8  UNL     1      14.335  42.029  15.641  1.00  0.00    -0.640 OA
HETATM   33  O9  UNL     1      15.454  43.610  14.461  1.00  0.00    -0.640 OA
ENDBRANCH  28  31
ENDBRANCH  17  27
ENDBRANCH   1  13
BRANCH   2  34
HETATM   34  C5  UNL     1      18.997  40.146  21.623  1.00  0.00     0.286 C 
HETATM   35  O3  UNL     1      19.596  39.727  22.610  1.00  0.00    -0.264 OA
HETATM   36  N5  UNL     1      18.248  39.185  20.848  1.00  0.00    -0.336 N 
ATOM     37  H5  UNL     1      17.738  39.497  20.021  1.00  0.00     0.164 HD
BRANCH  36  38
HETATM   38  C6  UNL     1      18.209  37.789  21.222  1.00  0.00     0.242 C 
BRANCH  38  39
HETATM   39  C7  UNL     1      18.387  36.896  20.065  1.00  0.00     0.201 C 
HETATM   40  O4  UNL     1      19.519  36.442  19.772  1.00  0.00    -0.646 OA
HETATM   41  O5  UNL     1      17.319  36.525  19.262  1.00  0.00    -0.646 OA
ENDBRANCH  38  39
BRANCH  38  42
HETATM   42  C8  UNL     1      16.914  37.435  21.925  1.00  0.00     0.349 C 
BRANCH  42  43
HETATM   43  N6  UNL     1      16.986  37.959  23.274  1.00  0.00    -0.051 N 
ATOM     44  H63 UNL     1      17.936  37.972  23.644  1.00  0.00     0.277 HD
ATOM     45  H62 UNL     1      16.811  38.963  23.318  1.00  0.00     0.277 HD
ATOM     46  H61 UNL     1      16.342  37.419  23.852  1.00  0.00     0.277 HD
ENDBRANCH  42  43
BRANCH  42  47
HETATM   47  O6  UNL     1      15.828  38.042  21.305  1.00  0.00    -0.368 OA
ATOM     48  H6  UNL     1      15.398  38.653  21.892  1.00  0.00     0.212 HD
ENDBRANCH  42  47
ENDBRANCH  38  42
ENDBRANCH  36  38
ENDBRANCH   2  34
BRANCH   6  49
HETATM   49  N8  UNL     1      19.404  45.219  23.212  1.00  0.00    -0.383 N 
ATOM     50  H82 UNL     1      19.679  44.458  23.833  1.00  0.00     0.157 HD
ATOM     51  H81 UNL     1      19.274  46.158  23.589  1.00  0.00     0.157 HD
ENDBRANCH   6  49
TORSDOF 13
ENDMDL
MODEL 5
REMARK VINA RESULT: -6.466692994      3.387      8.305
REMARK  13 active torsions:
REMARK  status: ('A' for Active; 'I' for Inactive)
REMARK    1  A    between atoms: N1_1  and  N2_4 
REMARK    2  A    between atoms: N3_6  and  C1_8 
REMARK    3  A    between atoms: C2_9  and  O1_10 
REMARK    4  A    between atoms: C3_13  and  N4_14 
REMARK    5  A    between atoms: C4_15  and  C5_16 
REMARK       I    between atoms: C5_16  and  N5_18 
REMARK    6  A    between atoms: N5_18  and  C6_20 
REMARK    7  A    between atoms: C6_20  and  C7_21 
REMARK    8  A    between atoms: C6_20  and  C8_24 
REMARK    9  A    between atoms: C8_24  and  N6_25 
REMARK   10  A    between atoms: C8_24  and  O6_29 
REMARK   11  A    between atoms: C10_34  and  N8_35 
REMARK   12  A    between atoms: C13_44  and  N11_45 
REMARK       I    between atoms: N11_45  and  C14_47 
REMARK   13  A    between atoms: C14_47  and  C15_49 
ROOT
HETATM    1  N4  UNL     1      18.333  42.643  18.757  1.00  0.00    -0.279 N 
HETATM    2  C4  UNL     1      18.522  41.943  19.924  1.00  0.00     0.181 A 
HETATM    3  N7  UNL     1      19.521  42.596  20.610  1.00  0.00    -0.332 N 
ATOM      4  H7  UNL     1      19.893  42.318  21.517  1.00  0.00     0.168 HD
HETATM    5  C9  UNL     1      19.919  43.634  19.911  1.00  0.00     0.123 A 
HETATM    6  C10 UNL     1      20.881  44.592  20.173  1.00  0.00     0.131 A 
HETATM    7  N9  UNL     1      21.102  45.576  19.286  1.00  0.00    -0.337 N 
ATOM      8  H9  UNL     1      21.807  46.292  19.461  1.00  0.00     0.168 HD
HETATM    9  C11 UNL     1      20.365  45.590  18.157  1.00  0.00     0.183 A 
HETATM   10  N10 UNL     1      19.430  44.674  17.882  1.00  0.00    -0.336 N 
ATOM     11  H10 UNL     1      18.899  44.729  17.013  1.00  0.00     0.168 HD
HETATM   12  C12 UNL     1      19.195  43.695  18.743  1.00  0.00     0.143 A 
ENDROOT
BRANCH   1  13
HETATM   13  C3  UNL     1      17.366  42.197  17.839  1.00  0.00     0.283 C 
HETATM   14  O2  UNL     1      17.873  40.956  17.332  1.00  0.00    -0.329 OA
HETATM   15  C2  UNL     1      18.761  41.317  16.337  1.00  0.00     0.289 C 
HETATM   16  C1  UNL     1      18.168  42.558  15.674  1.00  0.00     0.205 C 
HETATM   17  C13 UNL     1      17.013  42.810  16.573  1.00  0.00     0.068 C 
BRANCH  15  18
HETATM   18  O1  UNL     1      20.039  41.583  16.748  1.00  0.00    -0.369 OA
ATOM     19  H1  UNL     1      20.355  40.867  17.288  1.00  0.00     0.212 HD
ENDBRANCH  15  18
BRANCH  16  20
HETATM   20  N3  UNL     1      17.663  42.195  14.338  1.00  0.00    -0.307 N 
HETATM   21  N2  UNL     1      16.716  41.397  14.255  1.00  0.00    -0.253 N 
ATOM     22  H2  UNL     1      15.920  42.032  14.201  1.00  0.00     0.207 HD
ATOM     23  H3  UNL     1      18.083  42.591  13.498  1.00  0.00     0.182 HD
BRANCH  21  24
HETATM   24  N1  UNL     1      16.157  40.300  14.199  1.00  0.00    -0.331 N 
ATOM     25  H12 UNL     1      16.806  39.831  13.567  1.00  0.00     0.178 HD
ATOM     26  H11 UNL     1      15.449  39.595  14.402  1.00  0.00     0.178 HD
ENDBRANCH  21  24
ENDBRANCH  16  20
BRANCH  17  27
HETATM   27  N11 UNL     1      16.296  44.000  16.470  1.00  0.00    -0.319 N 
HETATM   28  C14 UNL     1      15.049  44.085  15.765  1.00  0.00     0.322 C 
HETATM   29  O7  UNL     1      14.584  43.045  15.220  1.00  0.00    -0.261 OA
ATOM     30  H11 UNL     1      16.671  44.840  16.910  1.00  0.00     0.169 HD
BRANCH  28  31
HETATM   31  C15 UNL     1      14.281  45.309  15.640  1.00  0.00     0.270 C 
HETATM   32  O8  UNL     1      14.112  46.044  16.641  1.00  0.00    -0.640 OA
HETATM   33  O9  UNL     1      13.725  45.688  14.433  1.00  0.00    -0.640 OA
ENDBRANCH  28  31
ENDBRANCH  17  27
ENDBRANCH   1  13
BRANCH   2  34
HETATM   34  C5  UNL     1      17.865  40.771  20.463  1.00  0.00     0.286 C 
HETATM   35  O3  UNL     1      16.950  40.827  21.280  1.00  0.00    -0.264 OA
HETATM   36  N5  UNL     1      18.290  39.459  20.035  1.00  0.00    -0.336 N 
ATOM     37  H5  UNL     1      19.048  39.374  19.358  1.00  0.00     0.164 HD
BRANCH  36  38
HETATM   38  C6  UNL     1      17.659  38.263  20.550  1.00  0.00     0.242 C 
BRANCH  38  39
HETATM   39  C7  UNL     1      18.348  37.739  21.741  1.00  0.00     0.201 C 
HETATM   40  O4  UNL     1      19.435  38.235  22.126  1.00  0.00    -0.646 OA
HETATM   41  O5  UNL     1      17.826  36.687  22.478  1.00  0.00    -0.646 OA
ENDBRANCH  38  39
BRANCH  38  42
HETATM   42  C8  UNL     1      17.588  37.173  19.500  1.00  0.00     0.349 C 
BRANCH  42  43
HETATM   43  N6  UNL     1      18.752  36.326  19.664  1.00  0.00    -0.051 N 
ATOM     44  H63 UNL     1      18.785  35.871  20.577  1.00  0.00     0.277 HD
ATOM     45  H62 UNL     1      18.710  35.481  19.095  1.00  0.00     0.277 HD
ATOM     46  H61 UNL     1      19.578  36.892  19.473  1.00  0.00     0.277 HD
ENDBRANCH  42  43
BRANCH  42  47
HETATM   47  O6  UNL     1      16.467  36.372  19.688  1.00  0.00    -0.368 OA
ATOM     48  H6  UNL     1      16.513  35.590  19.151  1.00  0.00     0.212 HD
ENDBRANCH  42  47
ENDBRANCH  38  42
ENDBRANCH  36  38
ENDBRANCH   2  34
BRANCH   6  49
HETATM   49  N8  UNL     1      21.557  44.534  21.265  1.00  0.00    -0.383 N 
ATOM     50  H82 UNL     1      22.013  43.666  21.546  1.00  0.00     0.157 HD
ATOM     51  H81 UNL     1      21.639  45.363  21.854  1.00  0.00     0.157 HD
ENDBRANCH   6  49
TORSDOF 13
ENDMDL
