MODEL 1
REMARK VINA RESULT: -7.485524880      0.000      0.000
REMARK  12 active torsions:
REMARK  status: ('A' for Active; 'I' for Inactive)
REMARK    1  A    between atoms: C3_7  and  N3_8 
REMARK    2  A    between atoms: N3_8  and  C4_10 
REMARK    3  A    between atoms: C4_10  and  C5_11 
REMARK    4  A    between atoms: C5_11  and  S1_12 
REMARK    5  A    between atoms: S1_12  and  C6_13 
REMARK    6  A    between atoms: C6_13  and  C7_14 
REMARK    7  A    between atoms: C7_14  and  C8_15 
REMARK    8  A    between atoms: C9_17  and  N4_18 
REMARK    9  A    between atoms: C12_23  and  N6_24 
REMARK   10  A    between atoms: C15_33  and  O3_34 
REMARK   11  A    between atoms: C16_39  and  O4_40 
REMARK   12  A    between atoms: C16_39  and  O5_42 
ROOT
HETATM    1  C8  UNL     1      20.540  40.519  23.364  1.00  0.00     0.218 C 
HETATM    2  O2  UNL     1      20.918  40.580  22.071  1.00  0.00    -0.349 OA
HETATM    3  C9  UNL     1      20.079  41.158  21.159  1.00  0.00     0.287 C 
HETATM    4  C15 UNL     1      19.590  42.507  21.655  1.00  0.00     0.375 C 
HETATM    5  N9  UNL     1      18.958  42.370  22.923  1.00  0.00     0.016 N 
ATOM      6  H91 UNL     1      18.043  41.931  22.823  1.00  0.00     0.287 HD
ATOM      7  H92 UNL     1      18.672  43.281  23.282  1.00  0.00     0.287 HD
HETATM    8  C16 UNL     1      19.744  41.678  23.883  1.00  0.00     0.363 C 
ENDROOT
BRANCH   1   9
HETATM    9  C7  UNL     1      21.782  40.435  24.226  1.00  0.00     0.050 C 
BRANCH   9  10
HETATM   10  C6  UNL     1      23.060  40.461  23.405  1.00  0.00     0.076 C 
BRANCH  10  11
HETATM   11  S1  UNL     1      24.426  40.973  24.466  1.00  0.00    -0.167 SA
BRANCH  11  12
HETATM   12  C5  UNL     1      24.112  42.473  25.383  1.00  0.00     0.094 C 
BRANCH  12  13
HETATM   13  C4  UNL     1      23.784  42.238  26.840  1.00  0.00     0.148 C 
BRANCH  13  14
HETATM   14  N3  UNL     1      22.356  42.378  27.036  1.00  0.00    -0.225 N 
ATOM     15  H3  UNL     1      21.834  43.063  26.491  1.00  0.00     0.177 HD
BRANCH  14  16
HETATM   16  C3  UNL     1      21.752  41.654  27.881  1.00  0.00     0.686 A 
HETATM   17  N2  UNL     1      21.897  40.326  27.912  1.00  0.00    -0.141 N 
HETATM   18  C2  UNL     1      21.236  39.582  28.831  1.00  0.00     0.344 A 
ATOM     19  H2  UNL     1      22.510  39.869  27.238  1.00  0.00     0.189 HD
HETATM   20  N1  UNL     1      20.409  40.148  29.749  1.00  0.00    -0.255 N 
HETATM   21  O1  UNL     1      21.356  38.318  28.882  1.00  0.00    -0.246 OA
HETATM   22  C1  UNL     1      19.697  39.355  30.741  1.00  0.00     0.166 C 
HETATM   23  C17 UNL     1      20.292  41.482  29.684  1.00  0.00     0.344 A 
HETATM   24  N10 UNL     1      20.939  42.232  28.779  1.00  0.00    -0.141 N 
HETATM   25  O6  UNL     1      19.529  42.039  30.526  1.00  0.00    -0.246 OA
ATOM     26  H10 UNL     1      20.813  43.245  28.773  1.00  0.00     0.189 HD
ENDBRANCH  14  16
ENDBRANCH  13  14
ENDBRANCH  12  13
ENDBRANCH  11  12
ENDBRANCH  10  11
ENDBRANCH   9  10
ENDBRANCH   1   9
BRANCH   8  27
HETATM   27  O4  UNL     1      18.849  41.159  24.850  1.00  0.00    -0.342 OA
ATOM     28  H4  UNL     1      19.242  41.318  25.700  1.00  0.00     0.215 HD
ENDBRANCH   8  27
BRANCH   8  29
HETATM   29  O5  UNL     1      20.604  42.603  24.484  1.00  0.00    -0.342 OA
ATOM     30  H5  UNL     1      20.100  43.340  24.808  1.00  0.00     0.215 HD
ENDBRANCH   8  29
BRANCH   3  31
HETATM   31  N4  UNL     1      19.027  40.319  20.662  1.00  0.00    -0.295 N 
HETATM   32  C10 UNL     1      17.770  40.626  20.337  1.00  0.00     0.188 A 
HETATM   33  N5  UNL     1      17.130  39.514  19.908  1.00  0.00    -0.346 N 
HETATM   34  C11 UNL     1      17.962  38.481  19.949  1.00  0.00     0.122 A 
ATOM     35  H5  UNL     1      16.158  39.476  19.600  1.00  0.00     0.167 HD
HETATM   36  C12 UNL     1      17.834  37.146  19.631  1.00  0.00     0.131 A 
HETATM   37  C14 UNL     1      19.156  38.984  20.423  1.00  0.00     0.142 A 
HETATM   38  N7  UNL     1      18.894  36.354  19.792  1.00  0.00    -0.337 N 
HETATM   39  C13 UNL     1      20.070  36.809  20.250  1.00  0.00     0.183 A 
ATOM     40  H7  UNL     1      18.807  35.365  19.558  1.00  0.00     0.168 HD
HETATM   41  N8  UNL     1      20.181  38.105  20.555  1.00  0.00    -0.336 N 
ATOM     42  H8  UNL     1      21.076  38.449  20.903  1.00  0.00     0.168 HD
BRANCH  36  43
HETATM   43  N6  UNL     1      16.720  36.676  19.189  1.00  0.00    -0.383 N 
ATOM     44  H62 UNL     1      15.997  36.352  19.832  1.00  0.00     0.157 HD
ATOM     45  H61 UNL     1      16.536  36.617  18.187  1.00  0.00     0.157 HD
ENDBRANCH  36  43
ENDBRANCH   3  31
BRANCH   4  46
HETATM   46  O3  UNL     1      18.761  43.111  20.730  1.00  0.00    -0.366 OA
ATOM     47  H3  UNL     1      17.878  43.205  21.068  1.00  0.00     0.212 HD
ENDBRANCH   4  46
TORSDOF 12
ENDMDL
MODEL 2
REMARK VINA RESULT: -7.244191965      1.723      2.297
REMARK  12 active torsions:
REMARK  status: ('A' for Active; 'I' for Inactive)
REMARK    1  A    between atoms: C3_7  and  N3_8 
REMARK    2  A    between atoms: N3_8  and  C4_10 
REMARK    3  A    between atoms: C4_10  and  C5_11 
REMARK    4  A    between atoms: C5_11  and  S1_12 
REMARK    5  A    between atoms: S1_12  and  C6_13 
REMARK    6  A    between atoms: C6_13  and  C7_14 
REMARK    7  A    between atoms: C7_14  and  C8_15 
REMARK    8  A    between atoms: C9_17  and  N4_18 
REMARK    9  A    between atoms: C12_23  and  N6_24 
REMARK   10  A    between atoms: C15_33  and  O3_34 
REMARK   11  A    between atoms: C16_39  and  O4_40 
REMARK   12  A    between atoms: C16_39  and  O5_42 
ROOT
HETATM    1  C8  UNL     1      19.442  41.660  24.797  1.00  0.00     0.218 C 
HETATM    2  O2  UNL     1      20.171  40.670  24.241  1.00  0.00    -0.349 OA
HETATM    3  C9  UNL     1      19.978  40.363  22.923  1.00  0.00     0.287 C 
HETATM    4  C15 UNL     1      20.006  41.616  22.067  1.00  0.00     0.375 C 
HETATM    5  N9  UNL     1      19.036  42.552  22.525  1.00  0.00     0.016 N 
ATOM      6  H91 UNL     1      18.096  42.247  22.275  1.00  0.00     0.287 HD
ATOM      7  H92 UNL     1      19.086  43.415  21.984  1.00  0.00     0.287 HD
HETATM    8  C16 UNL     1      19.120  42.829  23.916  1.00  0.00     0.363 C 
ENDROOT
BRANCH   1   9
HETATM    9  C7  UNL     1      20.209  42.216  25.979  1.00  0.00     0.050 C 
BRANCH   9  10
HETATM   10  C6  UNL     1      21.438  41.389  26.314  1.00  0.00     0.076 C 
BRANCH  10  11
HETATM   11  S1  UNL     1      22.913  42.335  25.887  1.00  0.00    -0.167 SA
BRANCH  11  12
HETATM   12  C5  UNL     1      24.431  41.645  26.525  1.00  0.00     0.094 C 
BRANCH  12  13
HETATM   13  C4  UNL     1      24.672  41.952  27.986  1.00  0.00     0.148 C 
BRANCH  13  14
HETATM   14  N3  UNL     1      24.470  40.748  28.766  1.00  0.00    -0.225 N 
ATOM     15  H3  UNL     1      25.246  40.102  28.910  1.00  0.00     0.177 HD
BRANCH  14  16
HETATM   16  C3  UNL     1      23.337  40.493  29.269  1.00  0.00     0.686 A 
HETATM   17  N2  UNL     1      22.768  41.289  30.179  1.00  0.00    -0.141 N 
HETATM   18  C2  UNL     1      21.553  40.986  30.694  1.00  0.00     0.344 A 
ATOM     19  H2  UNL     1      23.253  42.131  30.488  1.00  0.00     0.189 HD
HETATM   20  N1  UNL     1      20.869  39.875  30.312  1.00  0.00    -0.255 N 
HETATM   21  O1  UNL     1      20.989  41.726  31.561  1.00  0.00    -0.246 OA
HETATM   22  C1  UNL     1      19.562  39.545  30.861  1.00  0.00     0.166 C 
HETATM   23  C17 UNL     1      21.475  39.105  29.398  1.00  0.00     0.344 A 
HETATM   24  N10 UNL     1      22.679  39.391  28.878  1.00  0.00    -0.141 N 
HETATM   25  O6  UNL     1      20.864  38.063  29.021  1.00  0.00    -0.246 OA
ATOM     26  H10 UNL     1      23.095  38.769  28.184  1.00  0.00     0.189 HD
ENDBRANCH  14  16
ENDBRANCH  13  14
ENDBRANCH  12  13
ENDBRANCH  11  12
ENDBRANCH  10  11
ENDBRANCH   9  10
ENDBRANCH   1   9
BRANCH   8  27
HETATM   27  O4  UNL     1      17.848  43.304  24.318  1.00  0.00    -0.342 OA
ATOM     28  H4  UNL     1      17.986  43.825  25.101  1.00  0.00     0.215 HD
ENDBRANCH   8  27
BRANCH   8  29
HETATM   29  O5  UNL     1      20.079  43.830  24.100  1.00  0.00    -0.342 OA
ATOM     30  H5  UNL     1      20.583  43.936  23.302  1.00  0.00     0.215 HD
ENDBRANCH   8  29
BRANCH   3  31
HETATM   31  N4  UNL     1      18.864  39.506  22.640  1.00  0.00    -0.295 N 
HETATM   32  C10 UNL     1      17.633  39.504  23.155  1.00  0.00     0.188 A 
HETATM   33  N5  UNL     1      16.907  38.513  22.589  1.00  0.00    -0.346 N 
HETATM   34  C11 UNL     1      17.656  37.866  21.705  1.00  0.00     0.122 A 
ATOM     35  H5  UNL     1      15.934  38.297  22.807  1.00  0.00     0.167 HD
HETATM   36  C12 UNL     1      17.423  36.798  20.865  1.00  0.00     0.131 A 
HETATM   37  C14 UNL     1      18.887  38.487  21.735  1.00  0.00     0.142 A 
HETATM   38  N7  UNL     1      18.418  36.383  20.081  1.00  0.00    -0.337 N 
HETATM   39  C13 UNL     1      19.628  36.963  20.084  1.00  0.00     0.183 A 
ATOM     40  H7  UNL     1      18.254  35.594  19.456  1.00  0.00     0.168 HD
HETATM   41  N8  UNL     1      19.841  37.998  20.903  1.00  0.00    -0.336 N 
ATOM     42  H8  UNL     1      20.761  38.437  20.904  1.00  0.00     0.168 HD
BRANCH  36  43
HETATM   43  N6  UNL     1      16.275  36.218  20.837  1.00  0.00    -0.383 N 
ATOM     44  H62 UNL     1      15.428  36.721  21.100  1.00  0.00     0.157 HD
ATOM     45  H61 UNL     1      16.187  35.242  20.550  1.00  0.00     0.157 HD
ENDBRANCH  36  43
ENDBRANCH   3  31
BRANCH   4  46
HETATM   46  O3  UNL     1      19.837  41.314  20.730  1.00  0.00    -0.366 OA
ATOM     47  H3  UNL     1      19.625  42.091  20.225  1.00  0.00     0.212 HD
ENDBRANCH   4  46
TORSDOF 12
ENDMDL
MODEL 3
REMARK VINA RESULT: -7.148496798      5.345      8.189
REMARK  12 active torsions:
REMARK  status: ('A' for Active; 'I' for Inactive)
REMARK    1  A    between atoms: C3_7  and  N3_8 
REMARK    2  A    between atoms: N3_8  and  C4_10 
REMARK    3  A    between atoms: C4_10  and  C5_11 
REMARK    4  A    between atoms: C5_11  and  S1_12 
REMARK    5  A    between atoms: S1_12  and  C6_13 
REMARK    6  A    between atoms: C6_13  and  C7_14 
REMARK    7  A    between atoms: C7_14  and  C8_15 
REMARK    8  A    between atoms: C9_17  and  N4_18 
REMARK    9  A    between atoms: C12_23  and  N6_24 
REMARK   10  A    between atoms: C15_33  and  O3_34 
REMARK   11  A    between atoms: C16_39  and  O4_40 
REMARK   12  A    between atoms: C16_39  and  O5_42 
ROOT
HETATM    1  C8  UNL     1      17.553  41.741  17.488  1.00  0.00     0.218 C 
HETATM    2  O2  UNL     1      16.653  41.013  16.794  1.00  0.00    -0.349 OA
HETATM    3  C9  UNL     1      16.340  41.387  15.516  1.00  0.00     0.287 C 
HETATM    4  C15 UNL     1      17.597  41.633  14.702  1.00  0.00     0.375 C 
HETATM    5  N9  UNL     1      18.418  42.608  15.338  1.00  0.00     0.016 N 
ATOM      6  H91 UNL     1      18.014  43.539  15.235  1.00  0.00     0.287 HD
ATOM      7  H92 UNL     1      19.286  42.740  14.819  1.00  0.00     0.287 HD
HETATM    8  C16 UNL     1      18.687  42.326  16.703  1.00  0.00     0.363 C 
ENDROOT
BRANCH   1   9
HETATM    9  C7  UNL     1      18.177  40.854  18.545  1.00  0.00     0.050 C 
BRANCH   9  10
HETATM   10  C6  UNL     1      17.814  41.287  19.955  1.00  0.00     0.076 C 
BRANCH  10  11
HETATM   11  S1  UNL     1      19.142  42.316  20.610  1.00  0.00    -0.167 SA
BRANCH  11  12
HETATM   12  C5  UNL     1      20.770  41.607  20.426  1.00  0.00     0.094 C 
BRANCH  12  13
HETATM   13  C4  UNL     1      21.274  40.906  21.667  1.00  0.00     0.148 C 
BRANCH  13  14
HETATM   14  N3  UNL     1      21.248  39.474  21.450  1.00  0.00    -0.225 N 
ATOM     15  H3  UNL     1      22.124  38.963  21.341  1.00  0.00     0.177 HD
BRANCH  14  16
HETATM   16  C3  UNL     1      20.146  38.854  21.395  1.00  0.00     0.686 A 
HETATM   17  N2  UNL     1      19.837  38.044  20.379  1.00  0.00    -0.141 N 
HETATM   18  C2  UNL     1      18.648  37.395  20.353  1.00  0.00     0.344 A 
ATOM     19  H2  UNL     1      20.500  37.913  19.616  1.00  0.00     0.189 HD
HETATM   20  N1  UNL     1      17.732  37.539  21.347  1.00  0.00    -0.255 N 
HETATM   21  O1  UNL     1      18.329  36.619  19.399  1.00  0.00    -0.246 OA
HETATM   22  C1  UNL     1      16.453  36.844  21.326  1.00  0.00     0.166 C 
HETATM   23  C17 UNL     1      18.082  38.361  22.347  1.00  0.00     0.344 A 
HETATM   24  N10 UNL     1      19.255  39.011  22.386  1.00  0.00    -0.141 N 
HETATM   25  O6  UNL     1      17.250  38.515  23.288  1.00  0.00    -0.246 OA
ATOM     26  H10 UNL     1      19.470  39.626  23.172  1.00  0.00     0.189 HD
ENDBRANCH  14  16
ENDBRANCH  13  14
ENDBRANCH  12  13
ENDBRANCH  11  12
ENDBRANCH  10  11
ENDBRANCH   9  10
ENDBRANCH   1   9
BRANCH   8  27
HETATM   27  O4  UNL     1      19.018  43.557  17.319  1.00  0.00    -0.342 OA
ATOM     28  H4  UNL     1      19.718  43.942  16.806  1.00  0.00     0.215 HD
ENDBRANCH   8  27
BRANCH   8  29
HETATM   29  O5  UNL     1      19.785  41.462  16.757  1.00  0.00    -0.342 OA
ATOM     30  H5  UNL     1      19.540  40.617  16.398  1.00  0.00     0.215 HD
ENDBRANCH   8  29
BRANCH   3  31
HETATM   31  N4  UNL     1      15.369  42.435  15.395  1.00  0.00    -0.295 N 
HETATM   32  C10 UNL     1      15.223  43.553  16.109  1.00  0.00     0.188 A 
HETATM   33  N5  UNL     1      14.167  44.254  15.638  1.00  0.00    -0.346 N 
HETATM   34  C11 UNL     1      13.621  43.603  14.619  1.00  0.00     0.122 A 
ATOM     35  H5  UNL     1      13.841  45.147  16.009  1.00  0.00     0.167 HD
HETATM   36  C12 UNL     1      12.548  43.861  13.793  1.00  0.00     0.131 A 
HETATM   37  C14 UNL     1      14.375  42.458  14.464  1.00  0.00     0.142 A 
HETATM   38  N7  UNL     1      12.258  42.975  12.840  1.00  0.00    -0.337 N 
HETATM   39  C13 UNL     1      12.969  41.852  12.659  1.00  0.00     0.183 A 
ATOM     40  H7  UNL     1      11.467  43.159  12.224  1.00  0.00     0.168 HD
HETATM   41  N8  UNL     1      14.007  41.614  13.467  1.00  0.00    -0.336 N 
ATOM     42  H8  UNL     1      14.547  40.759  13.328  1.00  0.00     0.168 HD
BRANCH  36  43
HETATM   43  N6  UNL     1      11.844  44.929  13.938  1.00  0.00    -0.383 N 
ATOM     44  H62 UNL     1      11.458  45.181  14.848  1.00  0.00     0.157 HD
ATOM     45  H61 UNL     1      11.657  45.545  13.146  1.00  0.00     0.157 HD
ENDBRANCH  36  43
ENDBRANCH   3  31
BRANCH   4  46
HETATM   46  O3  UNL     1      17.292  41.987  13.403  1.00  0.00    -0.366 OA
ATOM     47  H3  UNL     1      18.075  42.048  12.868  1.00  0.00     0.212 HD
ENDBRANCH   4  46
TORSDOF 12
ENDMDL
MODEL 4
REMARK VINA RESULT: -7.098375253      2.457      3.302
REMARK  12 active torsions:
REMARK  status: ('A' for Active; 'I' for Inactive)
REMARK    1  A    between atoms: C3_7  and  N3_8 
REMARK    2  A    between atoms: N3_8  and  C4_10 
REMARK    3  A    between atoms: C4_10  and  C5_11 
REMARK    4  A    between atoms: C5_11  and  S1_12 
REMARK    5  A    between atoms: S1_12  and  C6_13 
REMARK    6  A    between atoms: C6_13  and  C7_14 
REMARK    7  A    between atoms: C7_14  and  C8_15 
REMARK    8  A    between atoms: C9_17  and  N4_18 
REMARK    9  A    between atoms: C12_23  and  N6_24 
REMARK   10  A    between atoms: C15_33  and  O3_34 
REMARK   11  A    between atoms: C16_39  and  O4_40 
REMARK   12  A    between atoms: C16_39  and  O5_42 
ROOT
HETATM    1  C8  UNL     1      19.187  41.656  24.840  1.00  0.00     0.218 C 
HETATM    2  O2  UNL     1      19.933  40.626  24.388  1.00  0.00    -0.349 OA
HETATM    3  C9  UNL     1      19.926  40.336  23.052  1.00  0.00     0.287 C 
HETATM    4  C15 UNL     1      20.158  41.589  22.227  1.00  0.00     0.375 C 
HETATM    5  N9  UNL     1      19.186  42.580  22.544  1.00  0.00     0.016 N 
ATOM      6  H91 UNL     1      18.278  42.332  22.149  1.00  0.00     0.287 HD
ATOM      7  H92 UNL     1      19.367  43.440  22.028  1.00  0.00     0.287 HD
HETATM    8  C16 UNL     1      19.072  42.845  23.935  1.00  0.00     0.363 C 
ENDROOT
BRANCH   1   9
HETATM    9  C7  UNL     1      19.795  42.159  26.132  1.00  0.00     0.050 C 
BRANCH   9  10
HETATM   10  C6  UNL     1      18.902  41.900  27.333  1.00  0.00     0.076 C 
BRANCH  10  11
HETATM   11  S1  UNL     1      18.598  43.460  28.185  1.00  0.00    -0.167 SA
BRANCH  11  12
HETATM   12  C5  UNL     1      19.584  43.690  29.655  1.00  0.00     0.094 C 
BRANCH  12  13
HETATM   13  C4  UNL     1      18.950  43.129  30.908  1.00  0.00     0.148 C 
BRANCH  13  14
HETATM   14  N3  UNL     1      19.025  41.683  30.874  1.00  0.00    -0.225 N 
ATOM     15  H3  UNL     1      18.181  41.128  31.012  1.00  0.00     0.177 HD
BRANCH  14  16
HETATM   16  C3  UNL     1      20.133  41.104  30.675  1.00  0.00     0.686 A 
HETATM   17  N2  UNL     1      21.263  41.510  31.262  1.00  0.00    -0.141 N 
HETATM   18  C2  UNL     1      22.430  40.865  31.027  1.00  0.00     0.344 A 
ATOM     19  H2  UNL     1      21.246  42.311  31.892  1.00  0.00     0.189 HD
HETATM   20  N1  UNL     1      22.502  39.793  30.196  1.00  0.00    -0.255 N 
HETATM   21  O1  UNL     1      23.519  41.230  31.572  1.00  0.00    -0.246 OA
HETATM   22  C1  UNL     1      23.753  39.095  29.940  1.00  0.00     0.166 C 
HETATM   23  C17 UNL     1      21.346  39.418  29.627  1.00  0.00     0.344 A 
HETATM   24  N10 UNL     1      20.181  40.047  29.850  1.00  0.00    -0.141 N 
HETATM   25  O6  UNL     1      21.379  38.422  28.848  1.00  0.00    -0.246 OA
ATOM     26  H10 UNL     1      19.331  39.720  29.390  1.00  0.00     0.189 HD
ENDBRANCH  14  16
ENDBRANCH  13  14
ENDBRANCH  12  13
ENDBRANCH  11  12
ENDBRANCH  10  11
ENDBRANCH   9  10
ENDBRANCH   1   9
BRANCH   8  27
HETATM   27  O4  UNL     1      17.784  43.394  24.145  1.00  0.00    -0.342 OA
ATOM     28  H4  UNL     1      17.482  43.714  23.302  1.00  0.00     0.215 HD
ENDBRANCH   8  27
BRANCH   8  29
HETATM   29  O5  UNL     1      20.048  43.786  24.276  1.00  0.00    -0.342 OA
ATOM     30  H5  UNL     1      19.674  44.428  24.869  1.00  0.00     0.215 HD
ENDBRANCH   8  29
BRANCH   3  31
HETATM   31  N4  UNL     1      18.820  39.548  22.591  1.00  0.00    -0.295 N 
HETATM   32  C10 UNL     1      17.527  39.617  22.913  1.00  0.00     0.188 A 
HETATM   33  N5  UNL     1      16.841  38.674  22.230  1.00  0.00    -0.346 N 
HETATM   34  C11 UNL     1      17.677  37.987  21.461  1.00  0.00     0.122 A 
ATOM     35  H5  UNL     1      15.835  38.515  22.295  1.00  0.00     0.167 HD
HETATM   36  C12 UNL     1      17.513  36.940  20.581  1.00  0.00     0.131 A 
HETATM   37  C14 UNL     1      18.922  38.535  21.686  1.00  0.00     0.142 A 
HETATM   38  N7  UNL     1      18.590  36.470  19.952  1.00  0.00    -0.337 N 
HETATM   39  C13 UNL     1      19.817  36.977  20.146  1.00  0.00     0.183 A 
ATOM     40  H7  UNL     1      18.477  35.695  19.298  1.00  0.00     0.168 HD
HETATM   41  N8  UNL     1      19.962  37.993  21.002  1.00  0.00    -0.336 N 
ATOM     42  H8  UNL     1      20.895  38.378  21.148  1.00  0.00     0.168 HD
BRANCH  36  43
HETATM   43  N6  UNL     1      16.350  36.429  20.370  1.00  0.00    -0.383 N 
ATOM     44  H62 UNL     1      15.645  36.936  19.836  1.00  0.00     0.157 HD
ATOM     45  H61 UNL     1      16.109  35.506  20.733  1.00  0.00     0.157 HD
ENDBRANCH  36  43
ENDBRANCH   3  31
BRANCH   4  46
HETATM   46  O3  UNL     1      20.178  41.304  20.876  1.00  0.00    -0.366 OA
ATOM     47  H3  UNL     1      19.805  40.448  20.698  1.00  0.00     0.212 HD
ENDBRANCH   4  46
TORSDOF 12
ENDMDL
MODEL 5
REMARK VINA RESULT: -7.077643522      4.086      5.145
REMARK  12 active torsions:
REMARK  status: ('A' for Active; 'I' for Inactive)
REMARK    1  A    between atoms: C3_7  and  N3_8 
REMARK    2  A    between atoms: N3_8  and  C4_10 
REMARK    3  A    between atoms: C4_10  and  C5_11 
REMARK    4  A    between atoms: C5_11  and  S1_12 
REMARK    5  A    between atoms: S1_12  and  C6_13 
REMARK    6  A    between atoms: C6_13  and  C7_14 
REMARK    7  A    between atoms: C7_14  and  C8_15 
REMARK    8  A    between atoms: C9_17  and  N4_18 
REMARK    9  A    between atoms: C12_23  and  N6_24 
REMARK   10  A    between atoms: C15_33  and  O3_34 
REMARK   11  A    between atoms: C16_39  and  O4_40 
REMARK   12  A    between atoms: C16_39  and  O5_42 
ROOT
HETATM    1  C8  UNL     1      19.263  41.633  24.906  1.00  0.00     0.218 C 
HETATM    2  O2  UNL     1      20.008  40.628  24.399  1.00  0.00    -0.349 OA
HETATM    3  C9  UNL     1      19.941  40.362  23.060  1.00  0.00     0.287 C 
HETATM    4  C15 UNL     1      20.102  41.633  22.247  1.00  0.00     0.375 C 
HETATM    5  N9  UNL     1      19.125  42.596  22.631  1.00  0.00     0.016 N 
ATOM      6  H91 UNL     1      18.204  42.334  22.278  1.00  0.00     0.287 HD
ATOM      7  H92 UNL     1      19.261  43.469  22.122  1.00  0.00     0.287 HD
HETATM    8  C16 UNL     1      19.076  42.834  24.030  1.00  0.00     0.363 C 
ENDROOT
BRANCH   1   9
HETATM    9  C7  UNL     1      19.924  42.128  26.175  1.00  0.00     0.050 C 
BRANCH   9  10
HETATM   10  C6  UNL     1      19.039  41.952  27.398  1.00  0.00     0.076 C 
BRANCH  10  11
HETATM   11  S1  UNL     1      19.317  43.331  28.525  1.00  0.00    -0.167 SA
BRANCH  11  12
HETATM   12  C5  UNL     1      20.085  44.751  27.762  1.00  0.00     0.094 C 
BRANCH  12  13
HETATM   13  C4  UNL     1      19.117  45.868  27.441  1.00  0.00     0.148 C 
BRANCH  13  14
HETATM   14  N3  UNL     1      18.173  45.409  26.443  1.00  0.00    -0.225 N 
ATOM     15  H3  UNL     1      18.512  44.950  25.597  1.00  0.00     0.177 HD
BRANCH  14  16
HETATM   16  C3  UNL     1      16.929  45.574  26.613  1.00  0.00     0.686 A 
HETATM   17  N2  UNL     1      16.375  45.598  27.828  1.00  0.00    -0.141 N 
HETATM   18  C2  UNL     1      15.041  45.779  27.973  1.00  0.00     0.344 A 
ATOM     19  H2  UNL     1      16.962  45.479  28.654  1.00  0.00     0.189 HD
HETATM   20  N1  UNL     1      14.220  45.942  26.903  1.00  0.00    -0.255 N 
HETATM   21  O1  UNL     1      14.489  45.806  29.118  1.00  0.00    -0.246 OA
HETATM   22  C1  UNL     1      12.785  46.138  27.052  1.00  0.00     0.166 C 
HETATM   23  C17 UNL     1      14.815  45.912  25.702  1.00  0.00     0.344 A 
HETATM   24  N10 UNL     1      16.136  45.733  25.542  1.00  0.00    -0.141 N 
HETATM   25  O6  UNL     1      14.078  46.061  24.685  1.00  0.00    -0.246 OA
ATOM     26  H10 UNL     1      16.538  45.717  24.604  1.00  0.00     0.189 HD
ENDBRANCH  14  16
ENDBRANCH  13  14
ENDBRANCH  12  13
ENDBRANCH  11  12
ENDBRANCH  10  11
ENDBRANCH   9  10
ENDBRANCH   1   9
BRANCH   8  27
HETATM   27  O4  UNL     1      17.788  43.349  24.314  1.00  0.00    -0.342 OA
ATOM     28  H4  UNL     1      17.220  43.074  23.604  1.00  0.00     0.215 HD
ENDBRANCH   8  27
BRANCH   8  29
HETATM   29  O5  UNL     1      20.046  43.792  24.339  1.00  0.00    -0.342 OA
ATOM     30  H5  UNL     1      19.634  44.644  24.425  1.00  0.00     0.215 HD
ENDBRANCH   8  29
BRANCH   3  31
HETATM   31  N4  UNL     1      18.831  39.556  22.641  1.00  0.00    -0.295 N 
HETATM   32  C10 UNL     1      17.548  39.609  23.006  1.00  0.00     0.188 A 
HETATM   33  N5  UNL     1      16.852  38.653  22.351  1.00  0.00    -0.346 N 
HETATM   34  C11 UNL     1      17.671  37.974  21.558  1.00  0.00     0.122 A 
ATOM     35  H5  UNL     1      15.851  38.480  22.451  1.00  0.00     0.167 HD
HETATM   36  C12 UNL     1      17.492  36.919  20.688  1.00  0.00     0.131 A 
HETATM   37  C14 UNL     1      18.916  38.539  21.738  1.00  0.00     0.142 A 
HETATM   38  N7  UNL     1      18.554  36.461  20.025  1.00  0.00    -0.337 N 
HETATM   39  C13 UNL     1      19.779  36.987  20.175  1.00  0.00     0.183 A 
ATOM     40  H7  UNL     1      18.430  35.682  19.379  1.00  0.00     0.168 HD
HETATM   41  N8  UNL     1      19.939  38.009  21.021  1.00  0.00    -0.336 N 
ATOM     42  H8  UNL     1      20.871  38.407  21.134  1.00  0.00     0.168 HD
BRANCH  36  43
HETATM   43  N6  UNL     1      16.330  36.391  20.520  1.00  0.00    -0.383 N 
ATOM     44  H62 UNL     1      15.485  36.961  20.566  1.00  0.00     0.157 HD
ATOM     45  H61 UNL     1      16.230  35.392  20.337  1.00  0.00     0.157 HD
ENDBRANCH  36  43
ENDBRANCH   3  31
BRANCH   4  46
HETATM   46  O3  UNL     1      20.060  41.372  20.892  1.00  0.00    -0.366 OA
ATOM     47  H3  UNL     1      20.787  40.823  20.623  1.00  0.00     0.212 HD
ENDBRANCH   4  46
TORSDOF 12
ENDMDL
