MODEL 1
REMARK VINA RESULT: -6.024065499      0.000      0.000
REMARK  2 active torsions:
REMARK  status: ('A' for Active; 'I' for Inactive)
REMARK    1  A    between atoms: C2_2  and  C3_3 
REMARK    2  A    between atoms: C5_7  and  C6_8 
ROOT
HETATM    1  C3  UNL     1      -6.106   9.853  -4.152  1.00  0.00     0.223 C 
HETATM    2  C4  UNL     1      -4.630  10.153  -4.087  1.00  0.00     0.088 C 
HETATM    3  N1  UNL     1      -4.407  11.223  -3.197  1.00  0.00    -0.393 N 
ATOM      4  H1  UNL     1      -3.527  11.310  -2.687  1.00  0.00     0.159 HD
HETATM    5  C5  UNL     1      -5.442  12.172  -3.035  1.00  0.00     0.124 C 
HETATM    6  C8  UNL     1      -6.570  12.137  -3.972  1.00  0.00     0.259 C 
HETATM    7  N2  UNL     1      -6.730  10.978  -4.772  1.00  0.00    -0.064 N 
ATOM      8  H21 UNL     1      -7.711  10.797  -4.985  1.00  0.00     0.278 HD
ATOM      9  H22 UNL     1      -6.392  11.123  -5.723  1.00  0.00     0.278 HD
ENDROOT
BRANCH   5  10
HETATM   10  C6  UNL     1      -4.789  13.560  -3.015  1.00  0.00     0.102 C 
HETATM   11  C7  UNL     1      -5.786  14.647  -3.299  1.00  0.00     0.029 C 
HETATM   12 CL1  UNL     1      -4.060  13.897  -1.429  1.00  0.00    -0.123 Cl
ENDBRANCH   5  10
BRANCH   1  13
HETATM   13  C2  UNL     1      -6.395   8.539  -4.823  1.00  0.00     0.034 C 
HETATM   14  C1  UNL     1      -5.345   8.100  -5.782  1.00  0.00     0.007 C 
ENDBRANCH   1  13
TORSDOF 2
ENDMDL
MODEL 2
REMARK VINA RESULT: -5.225972619      2.367      4.875
REMARK  2 active torsions:
REMARK  status: ('A' for Active; 'I' for Inactive)
REMARK    1  A    between atoms: C2_2  and  C3_3 
REMARK    2  A    between atoms: C5_7  and  C6_8 
ROOT
HETATM    1  C3  UNL     1      -5.323  12.437  -2.853  1.00  0.00     0.223 C 
HETATM    2  C4  UNL     1      -6.215  12.588  -4.058  1.00  0.00     0.088 C 
HETATM    3  N1  UNL     1      -6.793  11.341  -4.373  1.00  0.00    -0.393 N 
ATOM      4  H1  UNL     1      -7.702  11.282  -4.833  1.00  0.00     0.159 HD
HETATM    5  C5  UNL     1      -6.071  10.175  -4.030  1.00  0.00     0.124 C 
HETATM    6  C8  UNL     1      -4.675  10.321  -3.606  1.00  0.00     0.259 C 
HETATM    7  N2  UNL     1      -4.223  11.617  -3.251  1.00  0.00    -0.064 N 
ATOM      8  H21 UNL     1      -3.497  11.583  -2.535  1.00  0.00     0.278 HD
ATOM      9  H22 UNL     1      -3.680  12.048  -3.998  1.00  0.00     0.278 HD
ENDROOT
BRANCH   5  10
HETATM   10  C6  UNL     1      -6.185   9.204  -5.213  1.00  0.00     0.102 C 
HETATM   11  C7  UNL     1      -4.850   8.946  -5.850  1.00  0.00     0.029 C 
HETATM   12 CL1  UNL     1      -6.844   7.638  -4.688  1.00  0.00    -0.123 Cl
ENDBRANCH   5  10
BRANCH   1  13
HETATM   13  C2  UNL     1      -4.923  13.763  -2.266  1.00  0.00     0.034 C 
HETATM   14  C1  UNL     1      -5.845  14.882  -2.603  1.00  0.00     0.007 C 
ENDBRANCH   1  13
TORSDOF 2
ENDMDL
MODEL 3
REMARK VINA RESULT: -5.164177648      1.349      2.006
REMARK  2 active torsions:
REMARK  status: ('A' for Active; 'I' for Inactive)
REMARK    1  A    between atoms: C2_2  and  C3_3 
REMARK    2  A    between atoms: C5_7  and  C6_8 
ROOT
HETATM    1  C3  UNL     1      -5.291   9.870  -4.867  1.00  0.00     0.223 C 
HETATM    2  C4  UNL     1      -6.634  10.334  -4.362  1.00  0.00     0.088 C 
HETATM    3  N1  UNL     1      -6.565  11.704  -4.036  1.00  0.00    -0.393 N 
ATOM      4  H1  UNL     1      -7.389  12.302  -4.093  1.00  0.00     0.159 HD
HETATM    5  C5  UNL     1      -5.313  12.222  -3.628  1.00  0.00     0.124 C 
HETATM    6  C8  UNL     1      -4.235  11.276  -3.326  1.00  0.00     0.259 C 
HETATM    7  N2  UNL     1      -4.389   9.935  -3.762  1.00  0.00    -0.064 N 
ATOM      8  H21 UNL     1      -3.491   9.502  -3.979  1.00  0.00     0.278 HD
ATOM      9  H22 UNL     1      -4.674   9.319  -3.001  1.00  0.00     0.278 HD
ENDROOT
BRANCH   5  10
HETATM   10  C6  UNL     1      -5.573  13.155  -2.439  1.00  0.00     0.102 C 
HETATM   11  C7  UNL     1      -4.307  13.476  -1.698  1.00  0.00     0.029 C 
HETATM   12 CL1  UNL     1      -6.286  14.692  -2.980  1.00  0.00    -0.123 Cl
ENDBRANCH   5  10
BRANCH   1  13
HETATM   13  C2  UNL     1      -5.362   8.521  -5.526  1.00  0.00     0.034 C 
HETATM   14  C1  UNL     1      -6.463   7.654  -5.026  1.00  0.00     0.007 C 
ENDBRANCH   1  13
TORSDOF 2
ENDMDL
MODEL 4
REMARK VINA RESULT: -5.117170335      2.466      4.634
REMARK  2 active torsions:
REMARK  status: ('A' for Active; 'I' for Inactive)
REMARK    1  A    between atoms: C2_2  and  C3_3 
REMARK    2  A    between atoms: C5_7  and  C6_8 
ROOT
HETATM    1  C3  UNL     1      -5.716  13.024  -3.583  1.00  0.00     0.223 C 
HETATM    2  C4  UNL     1      -4.706  12.253  -2.772  1.00  0.00     0.088 C 
HETATM    3  N1  UNL     1      -4.299  11.112  -3.492  1.00  0.00    -0.393 N 
ATOM      4  H1  UNL     1      -3.372  10.707  -3.359  1.00  0.00     0.159 HD
HETATM    5  C5  UNL     1      -5.219  10.547  -4.406  1.00  0.00     0.124 C 
HETATM    6  C8  UNL     1      -6.609  11.012  -4.371  1.00  0.00     0.259 C 
HETATM    7  N2  UNL     1      -6.888  12.211  -3.668  1.00  0.00    -0.064 N 
ATOM      8  H21 UNL     1      -7.672  12.718  -4.078  1.00  0.00     0.278 HD
ATOM      9  H22 UNL     1      -7.289  12.027  -2.749  1.00  0.00     0.278 HD
ENDROOT
BRANCH   5  10
HETATM   10  C6  UNL     1      -5.147   9.023  -4.240  1.00  0.00     0.102 C 
HETATM   11  C7  UNL     1      -6.265   8.505  -3.382  1.00  0.00     0.029 C 
HETATM   12 CL1  UNL     1      -5.254   8.207  -5.817  1.00  0.00    -0.123 Cl
ENDBRANCH   5  10
BRANCH   1  13
HETATM   13  C2  UNL     1      -5.961  14.402  -3.033  1.00  0.00     0.034 C 
HETATM   14  C1  UNL     1      -5.125  14.745  -1.850  1.00  0.00     0.007 C 
ENDBRANCH   1  13
TORSDOF 2
ENDMDL
MODEL 5
REMARK VINA RESULT: -4.770038415      2.790      5.183
REMARK  2 active torsions:
REMARK  status: ('A' for Active; 'I' for Inactive)
REMARK    1  A    between atoms: C2_2  and  C3_3 
REMARK    2  A    between atoms: C5_7  and  C6_8 
ROOT
HETATM    1  C3  UNL     1      -5.936  10.996  -3.749  1.00  0.00     0.223 C 
HETATM    2  C4  UNL     1      -6.561  10.633  -5.072  1.00  0.00     0.088 C 
HETATM    3  N1  UNL     1      -6.863   9.256  -5.085  1.00  0.00    -0.393 N 
ATOM      4  H1  UNL     1      -7.633   8.890  -5.646  1.00  0.00     0.159 HD
HETATM    5  C5  UNL     1      -6.064   8.399  -4.294  1.00  0.00     0.124 C 
HETATM    6  C8  UNL     1      -4.830   8.937  -3.714  1.00  0.00     0.259 C 
HETATM    7  N2  UNL     1      -4.666  10.346  -3.698  1.00  0.00    -0.064 N 
ATOM      8  H21 UNL     1      -4.114  10.654  -2.898  1.00  0.00     0.278 HD
ATOM      9  H22 UNL     1      -4.046  10.664  -4.442  1.00  0.00     0.278 HD
ENDROOT
BRANCH   5  10
HETATM   10  C6  UNL     1      -5.774   7.146  -5.131  1.00  0.00     0.102 C 
HETATM   11  C7  UNL     1      -7.032   6.399  -5.467  1.00  0.00     0.029 C 
HETATM   12 CL1  UNL     1      -4.976   7.575  -6.662  1.00  0.00    -0.123 Cl
ENDBRANCH   5  10
BRANCH   1  13
HETATM   13  C2  UNL     1      -5.876  12.484  -3.533  1.00  0.00     0.034 C 
HETATM   14  C1  UNL     1      -4.806  12.922  -2.597  1.00  0.00     0.007 C 
ENDBRANCH   1  13
TORSDOF 2
ENDMDL
