MODEL 1
REMARK VINA RESULT: -4.735062508      0.000      0.000
REMARK  2 active torsions:
REMARK  status: ('A' for Active; 'I' for Inactive)
REMARK    1  A    between atoms: C2_2  and  C3_3 
REMARK    2  A    between atoms: C3_3  and  C4_4 
ROOT
HETATM    1  C4  UNL     1      -6.324   7.813  -5.077  1.00  0.00     0.101 C 
HETATM    2  C5  UNL     1      -5.561   7.292  -6.234  1.00  0.00     0.030 C 
HETATM    3  C6  UNL     1      -5.200   5.837  -6.162  1.00  0.00     0.080 C 
HETATM    4  C7  UNL     1      -4.909   5.369  -4.796  1.00  0.00     0.106 C 
HETATM    5  N1  UNL     1      -4.121   4.378  -4.574  1.00  0.00    -0.387 N 
ATOM      6  H11 UNL     1      -3.919   4.053  -3.628  1.00  0.00     0.157 HD
ATOM      7  H12 UNL     1      -3.676   3.891  -5.352  1.00  0.00     0.157 HD
HETATM    8  N2  UNL     1      -5.531   6.049  -3.710  1.00  0.00    -0.187 N 
HETATM    9 CL1  UNL     1      -4.961   5.846  -2.076  1.00  0.00     0.034 Cl
HETATM   10  N3  UNL     1      -6.603   6.867  -4.044  1.00  0.00    -0.116 NA
ENDROOT
BRANCH   1  11
HETATM   11  C3  UNL     1      -5.684   9.085  -4.500  1.00  0.00     0.023 C 
BRANCH  11  12
HETATM   12  C2  UNL     1      -6.412  10.288  -5.072  1.00  0.00    -0.003 C 
HETATM   13  C1  UNL     1      -6.461  11.383  -4.047  1.00  0.00     0.005 C 
ENDBRANCH  11  12
ENDBRANCH   1  11
TORSDOF 2
ENDMDL
MODEL 2
REMARK VINA RESULT: -4.706293080      2.103      2.430
REMARK  2 active torsions:
REMARK  status: ('A' for Active; 'I' for Inactive)
REMARK    1  A    between atoms: C2_2  and  C3_3 
REMARK    2  A    between atoms: C3_3  and  C4_4 
ROOT
HETATM    1  C4  UNL     1      -5.637   8.718  -4.043  1.00  0.00     0.101 C 
HETATM    2  C5  UNL     1      -6.270   7.928  -2.963  1.00  0.00     0.030 C 
HETATM    3  C6  UNL     1      -5.913   6.471  -2.942  1.00  0.00     0.080 C 
HETATM    4  C7  UNL     1      -5.715   5.892  -4.281  1.00  0.00     0.106 C 
HETATM    5  N1  UNL     1      -5.915   4.643  -4.516  1.00  0.00    -0.387 N 
ATOM      6  H11 UNL     1      -5.778   4.242  -5.443  1.00  0.00     0.157 HD
ATOM      7  H12 UNL     1      -6.220   4.022  -3.766  1.00  0.00     0.157 HD
HETATM    8  N2  UNL     1      -5.289   6.759  -5.328  1.00  0.00    -0.187 N 
HETATM    9 CL1  UNL     1      -5.408   6.280  -6.998  1.00  0.00     0.034 Cl
HETATM   10  N3  UNL     1      -4.782   7.989  -4.924  1.00  0.00    -0.116 NA
ENDROOT
BRANCH   1  11
HETATM   11  C3  UNL     1      -6.672   9.536  -4.831  1.00  0.00     0.023 C 
BRANCH  11  12
HETATM   12  C2  UNL     1      -6.174  10.966  -4.932  1.00  0.00    -0.003 C 
HETATM   13  C1  UNL     1      -6.571  11.726  -3.700  1.00  0.00     0.005 C 
ENDBRANCH  11  12
ENDBRANCH   1  11
TORSDOF 2
ENDMDL
MODEL 3
REMARK VINA RESULT: -4.662011291      1.698      3.712
REMARK  2 active torsions:
REMARK  status: ('A' for Active; 'I' for Inactive)
REMARK    1  A    between atoms: C2_2  and  C3_3 
REMARK    2  A    between atoms: C3_3  and  C4_4 
ROOT
HETATM    1  C4  UNL     1      -5.060   5.568  -5.536  1.00  0.00     0.101 C 
HETATM    2  C5  UNL     1      -5.370   6.695  -6.444  1.00  0.00     0.030 C 
HETATM    3  C6  UNL     1      -5.312   8.058  -5.818  1.00  0.00     0.080 C 
HETATM    4  C7  UNL     1      -5.750   8.081  -4.412  1.00  0.00     0.106 C 
HETATM    5  N1  UNL     1      -6.255   9.136  -3.878  1.00  0.00    -0.387 N 
ATOM      6  H11 UNL     1      -6.559   9.153  -2.904  1.00  0.00     0.157 HD
ATOM      7  H12 UNL     1      -6.362   9.989  -4.427  1.00  0.00     0.157 HD
HETATM    8  N2  UNL     1      -5.601   6.889  -3.646  1.00  0.00    -0.187 N 
HETATM    9 CL1  UNL     1      -6.435   6.684  -2.130  1.00  0.00     0.034 Cl
HETATM   10  N3  UNL     1      -4.758   5.926  -4.186  1.00  0.00    -0.116 NA
ENDROOT
BRANCH   1  11
HETATM   11  C3  UNL     1      -6.144   4.481  -5.587  1.00  0.00     0.023 C 
BRANCH  11  12
HETATM   12  C2  UNL     1      -7.360   5.052  -6.295  1.00  0.00    -0.003 C 
HETATM   13  C1  UNL     1      -8.467   5.263  -5.305  1.00  0.00     0.005 C 
ENDBRANCH  11  12
ENDBRANCH   1  11
TORSDOF 2
ENDMDL
MODEL 4
REMARK VINA RESULT: -4.644555085      2.262      2.590
REMARK  2 active torsions:
REMARK  status: ('A' for Active; 'I' for Inactive)
REMARK    1  A    between atoms: C2_2  and  C3_3 
REMARK    2  A    between atoms: C3_3  and  C4_4 
ROOT
HETATM    1  C4  UNL     1      -5.548   7.730  -3.819  1.00  0.00     0.101 C 
HETATM    2  C5  UNL     1      -6.362   7.182  -2.711  1.00  0.00     0.030 C 
HETATM    3  C6  UNL     1      -6.530   5.691  -2.715  1.00  0.00     0.080 C 
HETATM    4  C7  UNL     1      -6.610   5.110  -4.067  1.00  0.00     0.106 C 
HETATM    5  N1  UNL     1      -7.241   4.013  -4.296  1.00  0.00    -0.387 N 
ATOM      6  H11 UNL     1      -7.296   3.611  -5.232  1.00  0.00     0.157 HD
ATOM      7  H12 UNL     1      -7.705   3.519  -3.535  1.00  0.00     0.157 HD
HETATM    8  N2  UNL     1      -5.962   5.801  -5.130  1.00  0.00    -0.187 N 
HETATM    9 CL1  UNL     1      -6.320   5.431  -6.794  1.00  0.00     0.034 Cl
HETATM   10  N3  UNL     1      -5.042   6.771  -4.748  1.00  0.00    -0.116 NA
ENDROOT
BRANCH   1  11
HETATM   11  C3  UNL     1      -6.273   8.872  -4.547  1.00  0.00     0.023 C 
BRANCH  11  12
HETATM   12  C2  UNL     1      -5.564  10.174  -4.220  1.00  0.00    -0.003 C 
HETATM   13  C1  UNL     1      -6.546  11.308  -4.259  1.00  0.00     0.005 C 
ENDBRANCH  11  12
ENDBRANCH   1  11
TORSDOF 2
ENDMDL
MODEL 5
REMARK VINA RESULT: -4.619493513      3.727      5.226
REMARK  2 active torsions:
REMARK  status: ('A' for Active; 'I' for Inactive)
REMARK    1  A    between atoms: C2_2  and  C3_3 
REMARK    2  A    between atoms: C3_3  and  C4_4 
ROOT
HETATM    1  C4  UNL     1      -5.030   9.324  -4.408  1.00  0.00     0.101 C 
HETATM    2  C5  UNL     1      -6.423   9.525  -4.865  1.00  0.00     0.030 C 
HETATM    3  C6  UNL     1      -6.847  10.956  -5.023  1.00  0.00     0.080 C 
HETATM    4  C7  UNL     1      -6.242  11.863  -4.032  1.00  0.00     0.106 C 
HETATM    5  N1  UNL     1      -6.824  12.949  -3.664  1.00  0.00    -0.387 N 
ATOM      6  H11 UNL     1      -6.405  13.577  -2.979  1.00  0.00     0.157 HD
ATOM      7  H12 UNL     1      -7.729  13.205  -4.058  1.00  0.00     0.157 HD
HETATM    8  N2  UNL     1      -4.977  11.504  -3.483  1.00  0.00    -0.187 N 
HETATM    9 CL1  UNL     1      -4.371  12.276  -2.043  1.00  0.00     0.034 Cl
HETATM   10  N3  UNL     1      -4.280  10.516  -4.167  1.00  0.00    -0.116 NA
ENDROOT
BRANCH   1  11
HETATM   11  C3  UNL     1      -4.958   8.376  -3.201  1.00  0.00     0.023 C 
BRANCH  11  12
HETATM   12  C2  UNL     1      -6.182   7.478  -3.226  1.00  0.00    -0.003 C 
HETATM   13  C1  UNL     1      -6.157   6.558  -2.041  1.00  0.00     0.005 C 
ENDBRANCH  11  12
ENDBRANCH   1  11
TORSDOF 2
ENDMDL
