MODEL 1
REMARK VINA RESULT: -5.411911016      0.000      0.000
REMARK  4 active torsions:
REMARK  status: ('A' for Active; 'I' for Inactive)
REMARK    1  A    between atoms: C2_2  and  C3_3 
REMARK    2  A    between atoms: C6_6  and  N1_7 
REMARK    3  A    between atoms: C6_6  and  C7_11 
REMARK    4  A    between atoms: C7_11  and  N2_12 
ROOT
HETATM    1  C3  UNL     1      -5.466  12.138  -2.965  1.00  0.00    -0.012 C 
HETATM    2  C4  UNL     1      -4.218  11.506  -3.490  1.00  0.00     0.007 C 
HETATM    3  C5  UNL     1      -4.340  10.015  -3.637  1.00  0.00     0.044 C 
HETATM    4  C6  UNL     1      -5.502   9.581  -4.466  1.00  0.00     0.177 C 
HETATM    5  C8  UNL     1      -6.293  10.796  -4.860  1.00  0.00     0.208 C 
HETATM    6  F1  UNL     1      -7.473  10.472  -5.506  1.00  0.00    -0.247 F 
HETATM    7  C9  UNL     1      -6.682  11.571  -3.615  1.00  0.00     0.044 C 
ENDROOT
BRANCH   4   8
HETATM    8  N1  UNL     1      -6.329   8.694  -3.697  1.00  0.00    -0.066 N 
ATOM      9  H13 UNL     1      -6.343   7.749  -4.081  1.00  0.00     0.275 HD
ATOM     10  H12 UNL     1      -5.921   8.475  -2.788  1.00  0.00     0.275 HD
ATOM     11  H11 UNL     1      -7.265   9.091  -3.614  1.00  0.00     0.275 HD
ENDBRANCH   4   8
BRANCH   4  12
HETATM   12  C7  UNL     1      -5.039   8.844  -5.709  1.00  0.00     0.271 C 
BRANCH  12  13
HETATM   13  N2  UNL     1      -5.604   7.532  -5.805  1.00  0.00    -0.077 N 
ATOM     14  H23 UNL     1      -6.618   7.574  -5.903  1.00  0.00     0.274 HD
ATOM     15  H22 UNL     1      -5.372   7.095  -6.697  1.00  0.00     0.274 HD
ATOM     16  H21 UNL     1      -5.335   6.936  -5.021  1.00  0.00     0.274 HD
ENDBRANCH  12  13
ENDBRANCH   4  12
BRANCH   1  17
HETATM   17  C2  UNL     1      -5.412  13.638  -3.140  1.00  0.00     0.000 C 
HETATM   18  C1  UNL     1      -4.373  14.217  -2.218  1.00  0.00     0.005 C 
ENDBRANCH   1  17
TORSDOF 4
ENDMDL
MODEL 2
REMARK VINA RESULT: -4.856907762      2.578      3.667
REMARK  4 active torsions:
REMARK  status: ('A' for Active; 'I' for Inactive)
REMARK    1  A    between atoms: C2_2  and  C3_3 
REMARK    2  A    between atoms: C6_6  and  N1_7 
REMARK    3  A    between atoms: C6_6  and  C7_11 
REMARK    4  A    between atoms: C7_11  and  N2_12 
ROOT
HETATM    1  C3  UNL     1      -6.305   9.114  -4.069  1.00  0.00    -0.012 C 
HETATM    2  C4  UNL     1      -5.899   8.008  -3.151  1.00  0.00     0.007 C 
HETATM    3  C5  UNL     1      -6.431   6.671  -3.583  1.00  0.00     0.044 C 
HETATM    4  C6  UNL     1      -6.082   6.304  -4.986  1.00  0.00     0.177 C 
HETATM    5  C8  UNL     1      -5.344   7.451  -5.614  1.00  0.00     0.208 C 
HETATM    6  F1  UNL     1      -5.112   7.256  -6.964  1.00  0.00    -0.247 F 
HETATM    7  C9  UNL     1      -6.181   8.712  -5.499  1.00  0.00     0.044 C 
ENDROOT
BRANCH   4   8
HETATM    8  N1  UNL     1      -7.287   6.041  -5.723  1.00  0.00    -0.066 N 
ATOM      9  H13 UNL     1      -8.047   5.725  -5.120  1.00  0.00     0.275 HD
ATOM     10  H12 UNL     1      -7.722   6.896  -6.068  1.00  0.00     0.275 HD
ATOM     11  H11 UNL     1      -7.086   5.380  -6.473  1.00  0.00     0.275 HD
ENDBRANCH   4   8
BRANCH   4  12
HETATM   12  C7  UNL     1      -5.219   5.056  -5.023  1.00  0.00     0.271 C 
BRANCH  12  13
HETATM   13  N2  UNL     1      -4.894   4.580  -3.712  1.00  0.00    -0.077 N 
ATOM     14  H23 UNL     1      -4.212   5.188  -3.259  1.00  0.00     0.274 HD
ATOM     15  H22 UNL     1      -5.677   4.706  -3.070  1.00  0.00     0.274 HD
ATOM     16  H21 UNL     1      -4.576   3.610  -3.720  1.00  0.00     0.274 HD
ENDBRANCH  12  13
ENDBRANCH   4  12
BRANCH   1  17
HETATM   17  C2  UNL     1      -5.495  10.358  -3.786  1.00  0.00     0.000 C 
HETATM   18  C1  UNL     1      -6.372  11.574  -3.917  1.00  0.00     0.005 C 
ENDBRANCH   1  17
TORSDOF 4
ENDMDL
MODEL 3
REMARK VINA RESULT: -4.764836443      2.951      4.117
REMARK  4 active torsions:
REMARK  status: ('A' for Active; 'I' for Inactive)
REMARK    1  A    between atoms: C2_2  and  C3_3 
REMARK    2  A    between atoms: C6_6  and  N1_7 
REMARK    3  A    between atoms: C6_6  and  C7_11 
REMARK    4  A    between atoms: C7_11  and  N2_12 
ROOT
HETATM    1  C3  UNL     1      -5.330   8.649  -4.229  1.00  0.00    -0.012 C 
HETATM    2  C4  UNL     1      -5.465   8.442  -5.702  1.00  0.00     0.007 C 
HETATM    3  C5  UNL     1      -5.154   7.032  -6.121  1.00  0.00     0.044 C 
HETATM    4  C6  UNL     1      -5.949   5.996  -5.399  1.00  0.00     0.177 C 
HETATM    5  C8  UNL     1      -6.801   6.676  -4.366  1.00  0.00     0.208 C 
HETATM    6  F1  UNL     1      -7.460   5.776  -3.548  1.00  0.00    -0.247 F 
HETATM    7  C9  UNL     1      -5.921   7.517  -3.460  1.00  0.00     0.044 C 
ENDROOT
BRANCH   4   8
HETATM    8  N1  UNL     1      -5.054   5.073  -4.758  1.00  0.00    -0.066 N 
ATOM      9  H13 UNL     1      -4.075   5.301  -4.931  1.00  0.00     0.275 HD
ATOM     10  H12 UNL     1      -5.050   5.180  -3.744  1.00  0.00     0.275 HD
ATOM     11  H11 UNL     1      -5.287   4.123  -5.044  1.00  0.00     0.275 HD
ENDBRANCH   4   8
BRANCH   4  12
HETATM   12  C7  UNL     1      -6.828   5.218  -6.360  1.00  0.00     0.271 C 
BRANCH  12  13
HETATM   13  N2  UNL     1      -6.100   4.736  -7.495  1.00  0.00    -0.077 N 
ATOM     14  H23 UNL     1      -5.631   5.500  -7.982  1.00  0.00     0.274 HD
ATOM     15  H22 UNL     1      -5.281   4.199  -7.207  1.00  0.00     0.274 HD
ATOM     16  H21 UNL     1      -6.688   4.198  -8.133  1.00  0.00     0.274 HD
ENDBRANCH  12  13
ENDBRANCH   4  12
BRANCH   1  17
HETATM   17  C2  UNL     1      -5.956   9.963  -3.822  1.00  0.00     0.000 C 
HETATM   18  C1  UNL     1      -6.605  10.606  -5.017  1.00  0.00     0.005 C 
ENDBRANCH   1  17
TORSDOF 4
ENDMDL
MODEL 4
REMARK VINA RESULT: -4.759377045      2.732      5.460
REMARK  4 active torsions:
REMARK  status: ('A' for Active; 'I' for Inactive)
REMARK    1  A    between atoms: C2_2  and  C3_3 
REMARK    2  A    between atoms: C6_6  and  N1_7 
REMARK    3  A    between atoms: C6_6  and  C7_11 
REMARK    4  A    between atoms: C7_11  and  N2_12 
ROOT
HETATM    1  C3  UNL     1      -6.354   6.547  -6.122  1.00  0.00    -0.012 C 
HETATM    2  C4  UNL     1      -4.998   7.141  -6.323  1.00  0.00     0.007 C 
HETATM    3  C5  UNL     1      -4.971   8.623  -6.075  1.00  0.00     0.044 C 
HETATM    4  C6  UNL     1      -5.494   9.022  -4.736  1.00  0.00     0.177 C 
HETATM    5  C8  UNL     1      -5.992   7.795  -4.027  1.00  0.00     0.208 C 
HETATM    6  F1  UNL     1      -6.631   8.093  -2.837  1.00  0.00    -0.247 F 
HETATM    7  C9  UNL     1      -7.013   7.089  -4.900  1.00  0.00     0.044 C 
ENDROOT
BRANCH   4   8
HETATM    8  N1  UNL     1      -6.573   9.955  -4.905  1.00  0.00    -0.066 N 
ATOM      9  H13 UNL     1      -6.337  10.886  -4.564  1.00  0.00     0.275 HD
ATOM     10  H12 UNL     1      -6.726  10.194  -5.885  1.00  0.00     0.275 HD
ATOM     11  H11 UNL     1      -7.414   9.582  -4.463  1.00  0.00     0.275 HD
ENDBRANCH   4   8
BRANCH   4  12
HETATM   12  C7  UNL     1      -4.412   9.691  -3.907  1.00  0.00     0.271 C 
BRANCH  12  13
HETATM   13  N2  UNL     1      -4.771  11.021  -3.517  1.00  0.00    -0.077 N 
ATOM     14  H23 UNL     1      -4.057  11.434  -2.917  1.00  0.00     0.274 HD
ATOM     15  H22 UNL     1      -4.713  11.665  -4.307  1.00  0.00     0.274 HD
ATOM     16  H21 UNL     1      -5.690  11.061  -3.076  1.00  0.00     0.274 HD
ENDBRANCH  12  13
ENDBRANCH   4  12
BRANCH   1  17
HETATM   17  C2  UNL     1      -6.265   5.039  -6.064  1.00  0.00     0.000 C 
HETATM   18  C1  UNL     1      -6.167   4.484  -7.459  1.00  0.00     0.005 C 
ENDBRANCH   1  17
TORSDOF 4
ENDMDL
MODEL 5
REMARK VINA RESULT: -4.731769101      1.699      2.293
REMARK  4 active torsions:
REMARK  status: ('A' for Active; 'I' for Inactive)
REMARK    1  A    between atoms: C2_2  and  C3_3 
REMARK    2  A    between atoms: C6_6  and  N1_7 
REMARK    3  A    between atoms: C6_6  and  C7_11 
REMARK    4  A    between atoms: C7_11  and  N2_12 
ROOT
HETATM    1  C3  UNL     1      -5.298  11.782  -3.819  1.00  0.00    -0.012 C 
HETATM    2  C4  UNL     1      -6.667  11.376  -4.258  1.00  0.00     0.007 C 
HETATM    3  C5  UNL     1      -6.645  10.298  -5.305  1.00  0.00     0.044 C 
HETATM    4  C6  UNL     1      -5.872   9.086  -4.911  1.00  0.00     0.177 C 
HETATM    5  C8  UNL     1      -5.244   9.330  -3.568  1.00  0.00     0.208 C 
HETATM    6  F1  UNL     1      -4.385   8.313  -3.192  1.00  0.00    -0.247 F 
HETATM    7  C9  UNL     1      -4.412  10.598  -3.623  1.00  0.00     0.044 C 
ENDROOT
BRANCH   4   8
HETATM    8  N1  UNL     1      -4.846   8.838  -5.886  1.00  0.00    -0.066 N 
ATOM      9  H13 UNL     1      -5.213   8.388  -6.725  1.00  0.00     0.275 HD
ATOM     10  H12 UNL     1      -4.508   9.697  -6.318  1.00  0.00     0.275 HD
ATOM     11  H11 UNL     1      -4.094   8.300  -5.456  1.00  0.00     0.275 HD
ENDBRANCH   4   8
BRANCH   4  12
HETATM   12  C7  UNL     1      -6.771   7.865  -4.843  1.00  0.00     0.271 C 
BRANCH  12  13
HETATM   13  N2  UNL     1      -6.372   6.844  -5.765  1.00  0.00    -0.077 N 
ATOM     14  H23 UNL     1      -6.381   5.925  -5.324  1.00  0.00     0.274 HD
ATOM     15  H22 UNL     1      -7.087   6.691  -6.477  1.00  0.00     0.274 HD
ATOM     16  H21 UNL     1      -5.465   7.039  -6.190  1.00  0.00     0.274 HD
ENDBRANCH  12  13
ENDBRANCH   4  12
BRANCH   1  17
HETATM   17  C2  UNL     1      -5.372  12.614  -2.560  1.00  0.00     0.000 C 
HETATM   18  C1  UNL     1      -5.647  14.049  -2.917  1.00  0.00     0.005 C 
ENDBRANCH   1  17
TORSDOF 4
ENDMDL
