MODEL 1
REMARK VINA RESULT: -5.659941366      0.000      0.000
REMARK  2 active torsions:
REMARK  status: ('A' for Active; 'I' for Inactive)
REMARK    1  A    between atoms: C2_2  and  C3_4 
REMARK    2  A    between atoms: C3_4  and  C4_5 
ROOT
HETATM    1  C4  UNL     1      -5.272  13.065  -3.361  1.00  0.00    -0.010 C 
HETATM    2  C5  UNL     1      -5.737  14.390  -3.822  1.00  0.00     0.024 C 
HETATM    3  C6  UNL     1      -6.421  15.124  -2.660  1.00  0.00     0.114 C 
HETATM    4  N1  UNL     1      -5.324  15.402  -1.750  1.00  0.00    -0.421 N 
ATOM      5  H1  UNL     1      -5.037  16.352  -1.514  1.00  0.00     0.153 HD
HETATM    6  C7  UNL     1      -4.680  14.260  -1.213  1.00  0.00     0.114 C 
HETATM    7  C8  UNL     1      -4.365  13.151  -2.154  1.00  0.00     0.024 C 
ENDROOT
BRANCH   1   8
HETATM    8  C3  UNL     1      -6.304  12.028  -3.065  1.00  0.00     0.020 C 
BRANCH   8   9
HETATM    9  C2  UNL     1      -6.156  10.684  -3.664  1.00  0.00     0.055 C 
HETATM   10  C1  UNL     1      -6.626  10.807  -5.139  1.00  0.00     0.022 C 
HETATM   11  S1  UNL     1      -4.380  10.246  -3.853  1.00  0.00    -0.093 SA
ENDBRANCH   8   9
ENDBRANCH   1   8
TORSDOF 2
ENDMDL
MODEL 2
REMARK VINA RESULT: -4.815989791      1.082      1.913
REMARK  2 active torsions:
REMARK  status: ('A' for Active; 'I' for Inactive)
REMARK    1  A    between atoms: C2_2  and  C3_4 
REMARK    2  A    between atoms: C3_4  and  C4_5 
ROOT
HETATM    1  C4  UNL     1      -6.290  12.665  -2.849  1.00  0.00    -0.010 C 
HETATM    2  C5  UNL     1      -5.126  12.662  -1.940  1.00  0.00     0.024 C 
HETATM    3  C6  UNL     1      -3.937  13.346  -2.629  1.00  0.00     0.114 C 
HETATM    4  N1  UNL     1      -4.354  14.735  -2.709  1.00  0.00    -0.421 N 
ATOM      5  H1  UNL     1      -3.853  15.484  -2.229  1.00  0.00     0.153 HD
HETATM    6  C7  UNL     1      -5.504  14.977  -3.501  1.00  0.00     0.114 C 
HETATM    7  C8  UNL     1      -6.656  14.052  -3.326  1.00  0.00     0.024 C 
ENDROOT
BRANCH   1   8
HETATM    8  C3  UNL     1      -6.239  11.783  -4.053  1.00  0.00     0.020 C 
BRANCH   8   9
HETATM    9  C2  UNL     1      -6.093  10.324  -3.862  1.00  0.00     0.055 C 
HETATM   10  C1  UNL     1      -6.687   9.654  -5.131  1.00  0.00     0.022 C 
HETATM   11  S1  UNL     1      -4.324   9.830  -3.950  1.00  0.00    -0.093 SA
ENDBRANCH   8   9
ENDBRANCH   1   8
TORSDOF 2
ENDMDL
MODEL 3
REMARK VINA RESULT: -4.718097407      2.842      3.948
REMARK  2 active torsions:
REMARK  status: ('A' for Active; 'I' for Inactive)
REMARK    1  A    between atoms: C2_2  and  C3_4 
REMARK    2  A    between atoms: C3_4  and  C4_5 
ROOT
HETATM    1  C4  UNL     1      -5.716   9.523  -4.600  1.00  0.00    -0.010 C 
HETATM    2  C5  UNL     1      -6.555  10.675  -4.989  1.00  0.00     0.024 C 
HETATM    3  C6  UNL     1      -6.719  11.616  -3.787  1.00  0.00     0.114 C 
HETATM    4  N1  UNL     1      -5.385  12.161  -3.606  1.00  0.00    -0.421 N 
ATOM      5  H1  UNL     1      -5.182  13.155  -3.712  1.00  0.00     0.153 HD
HETATM    6  C7  UNL     1      -4.385  11.214  -3.273  1.00  0.00     0.114 C 
HETATM    7  C8  UNL     1      -4.374   9.939  -4.040  1.00  0.00     0.024 C 
ENDROOT
BRANCH   1   8
HETATM    8  C3  UNL     1      -6.297   8.523  -3.657  1.00  0.00     0.020 C 
BRANCH   8   9
HETATM    9  C2  UNL     1      -5.511   7.316  -3.323  1.00  0.00     0.055 C 
HETATM   10  C1  UNL     1      -6.273   6.598  -2.175  1.00  0.00     0.022 C 
HETATM   11  S1  UNL     1      -5.602   6.082  -4.685  1.00  0.00    -0.093 SA
ENDBRANCH   8   9
ENDBRANCH   1   8
TORSDOF 2
ENDMDL
MODEL 4
REMARK VINA RESULT: -4.705408409      4.757      6.692
REMARK  2 active torsions:
REMARK  status: ('A' for Active; 'I' for Inactive)
REMARK    1  A    between atoms: C2_2  and  C3_4 
REMARK    2  A    between atoms: C3_4  and  C4_5 
ROOT
HETATM    1  C4  UNL     1      -6.686   7.596  -4.841  1.00  0.00    -0.010 C 
HETATM    2  C5  UNL     1      -6.510   6.529  -5.848  1.00  0.00     0.024 C 
HETATM    3  C6  UNL     1      -5.087   5.963  -5.749  1.00  0.00     0.114 C 
HETATM    4  N1  UNL     1      -5.088   5.280  -4.467  1.00  0.00    -0.421 N 
ATOM      5  H1  UNL     1      -4.949   4.273  -4.385  1.00  0.00     0.153 HD
HETATM    6  C7  UNL     1      -5.296   6.112  -3.339  1.00  0.00     0.114 C 
HETATM    7  C8  UNL     1      -6.375   7.132  -3.436  1.00  0.00     0.024 C 
ENDROOT
BRANCH   1   8
HETATM    8  C3  UNL     1      -5.957   8.882  -5.052  1.00  0.00     0.020 C 
BRANCH   8   9
HETATM    9  C2  UNL     1      -5.713   9.762  -3.889  1.00  0.00     0.055 C 
HETATM   10  C1  UNL     1      -4.188  10.058  -3.876  1.00  0.00     0.022 C 
HETATM   11  S1  UNL     1      -6.433  11.430  -4.172  1.00  0.00    -0.093 SA
ENDBRANCH   8   9
ENDBRANCH   1   8
TORSDOF 2
ENDMDL
MODEL 5
REMARK VINA RESULT: -4.670294464      2.854      3.802
REMARK  2 active torsions:
REMARK  status: ('A' for Active; 'I' for Inactive)
REMARK    1  A    between atoms: C2_2  and  C3_4 
REMARK    2  A    between atoms: C3_4  and  C4_5 
ROOT
HETATM    1  C4  UNL     1      -5.599   9.594  -4.660  1.00  0.00    -0.010 C 
HETATM    2  C5  UNL     1      -6.503  10.715  -4.989  1.00  0.00     0.024 C 
HETATM    3  C6  UNL     1      -6.719  11.581  -3.740  1.00  0.00     0.114 C 
HETATM    4  N1  UNL     1      -5.419  12.191  -3.528  1.00  0.00    -0.421 N 
ATOM      5  H1  UNL     1      -5.273  13.199  -3.581  1.00  0.00     0.153 HD
HETATM    6  C7  UNL     1      -4.366  11.286  -3.244  1.00  0.00     0.114 C 
HETATM    7  C8  UNL     1      -4.283  10.056  -4.077  1.00  0.00     0.024 C 
ENDROOT
BRANCH   1   8
HETATM    8  C3  UNL     1      -6.121   8.514  -3.771  1.00  0.00     0.020 C 
BRANCH   8   9
HETATM    9  C2  UNL     1      -6.499   7.217  -4.372  1.00  0.00     0.055 C 
HETATM   10  C1  UNL     1      -5.780   7.143  -5.747  1.00  0.00     0.022 C 
HETATM   11  S1  UNL     1      -5.730   5.823  -3.451  1.00  0.00    -0.093 SA
ENDBRANCH   8   9
ENDBRANCH   1   8
TORSDOF 2
ENDMDL
