MODEL 1
REMARK VINA RESULT: -4.577846336      0.000      0.000
REMARK  2 active torsions:
REMARK  status: ('A' for Active; 'I' for Inactive)
REMARK    1  A    between atoms: C2_2  and  C3_3 
REMARK    2  A    between atoms: C3_3  and  N1_4 
ROOT
HETATM    1  C3  UNL     1      -5.741   9.528  -4.273  1.00  0.00     0.127 C 
HETATM    2  C5  UNL     1      -6.525   8.639  -3.382  1.00  0.00     0.044 C 
HETATM    3  C6  UNL     1      -5.907   7.263  -3.202  1.00  0.00     0.056 C 
HETATM    4  C7  UNL     1      -5.547   6.660  -4.498  1.00  0.00    -0.002 C 
HETATM    5  N2  UNL     1      -5.060   5.502  -4.540  1.00  0.00    -0.404 N 
ATOM      6  H21 UNL     1      -4.810   5.084  -5.436  1.00  0.00     0.155 HD
ATOM      7  H22 UNL     1      -4.904   4.951  -3.695  1.00  0.00     0.155 HD
HETATM    8  C8  UNL     1      -5.772   7.455  -5.716  1.00  0.00     0.129 C 
HETATM    9 CL1  UNL     1      -4.934   6.751  -7.131  1.00  0.00    -0.119 Cl
HETATM   10  C9  UNL     1      -5.157   8.813  -5.462  1.00  0.00     0.065 C 
ENDROOT
BRANCH   1  11
HETATM   11  C2  UNL     1      -6.501  10.746  -4.734  1.00  0.00     0.034 C 
HETATM   12  C1  UNL     1      -6.584  11.847  -3.739  1.00  0.00     0.007 C 
ENDBRANCH   1  11
BRANCH   1  13
HETATM   13  N1  UNL     1      -4.608  10.029  -3.475  1.00  0.00    -0.070 N 
HETATM   14  C4  UNL     1      -3.433  10.235  -4.281  1.00  0.00     0.267 C 
ATOM     15  H12 UNL     1      -4.861  10.875  -2.964  1.00  0.00     0.277 HD
ATOM     16  H11 UNL     1      -4.413   9.416  -2.684  1.00  0.00     0.277 HD
ENDBRANCH   1  13
TORSDOF 2
ENDMDL
MODEL 2
REMARK VINA RESULT: -4.300291665      2.354      4.352
REMARK  2 active torsions:
REMARK  status: ('A' for Active; 'I' for Inactive)
REMARK    1  A    between atoms: C2_2  and  C3_3 
REMARK    2  A    between atoms: C3_3  and  N1_4 
ROOT
HETATM    1  C3  UNL     1      -6.227   6.023  -3.369  1.00  0.00     0.127 C 
HETATM    2  C5  UNL     1      -7.017   6.073  -4.624  1.00  0.00     0.044 C 
HETATM    3  C6  UNL     1      -6.266   6.696  -5.788  1.00  0.00     0.056 C 
HETATM    4  C7  UNL     1      -5.648   7.978  -5.408  1.00  0.00    -0.002 C 
HETATM    5  N2  UNL     1      -5.020   8.653  -6.263  1.00  0.00    -0.404 N 
ATOM      6  H21 UNL     1      -4.593   9.541  -5.999  1.00  0.00     0.155 HD
ATOM      7  H22 UNL     1      -4.923   8.343  -7.230  1.00  0.00     0.155 HD
HETATM    8  C8  UNL     1      -5.789   8.426  -4.012  1.00  0.00     0.129 C 
HETATM    9 CL1  UNL     1      -4.673   9.771  -3.632  1.00  0.00    -0.119 Cl
HETATM   10  C9  UNL     1      -5.392   7.255  -3.143  1.00  0.00     0.065 C 
ENDROOT
BRANCH   1  11
HETATM   11  C2  UNL     1      -7.056   5.739  -2.143  1.00  0.00     0.034 C 
HETATM   12  C1  UNL     1      -6.456   6.194  -0.861  1.00  0.00     0.007 C 
ENDBRANCH   1  11
BRANCH   1  13
HETATM   13  N1  UNL     1      -5.294   4.891  -3.506  1.00  0.00    -0.070 N 
HETATM   14  C4  UNL     1      -5.987   3.634  -3.614  1.00  0.00     0.267 C 
ATOM     15  H12 UNL     1      -4.654   5.030  -4.288  1.00  0.00     0.277 HD
ATOM     16  H11 UNL     1      -4.616   4.876  -2.744  1.00  0.00     0.277 HD
ENDBRANCH   1  13
TORSDOF 2
ENDMDL
MODEL 3
REMARK VINA RESULT: -4.276635443      1.820      2.791
REMARK  2 active torsions:
REMARK  status: ('A' for Active; 'I' for Inactive)
REMARK    1  A    between atoms: C2_2  and  C3_3 
REMARK    2  A    between atoms: C3_3  and  N1_4 
ROOT
HETATM    1  C3  UNL     1      -5.571   9.611  -4.336  1.00  0.00     0.127 C 
HETATM    2  C5  UNL     1      -4.913   8.919  -5.470  1.00  0.00     0.044 C 
HETATM    3  C6  UNL     1      -5.686   7.713  -5.976  1.00  0.00     0.056 C 
HETATM    4  C7  UNL     1      -6.084   6.824  -4.870  1.00  0.00    -0.002 C 
HETATM    5  N2  UNL     1      -6.698   5.754  -5.111  1.00  0.00    -0.404 N 
ATOM      6  H21 UNL     1      -6.973   5.139  -4.345  1.00  0.00     0.155 HD
ATOM      7  H22 UNL     1      -6.933   5.469  -6.062  1.00  0.00     0.155 HD
HETATM    8  C8  UNL     1      -5.743   7.235  -3.498  1.00  0.00     0.129 C 
HETATM    9 CL1  UNL     1      -6.623   6.266  -2.278  1.00  0.00    -0.119 Cl
HETATM   10  C9  UNL     1      -6.206   8.667  -3.351  1.00  0.00     0.065 C 
ENDROOT
BRANCH   1  11
HETATM   11  C2  UNL     1      -4.669  10.575  -3.609  1.00  0.00     0.034 C 
HETATM   12  C1  UNL     1      -3.216  10.393  -3.872  1.00  0.00     0.007 C 
ENDBRANCH   1  11
BRANCH   1  13
HETATM   13  N1  UNL     1      -6.658  10.422  -4.914  1.00  0.00    -0.070 N 
HETATM   14  C4  UNL     1      -6.743  11.722  -4.299  1.00  0.00     0.267 C 
ATOM     15  H12 UNL     1      -6.566  10.496  -5.927  1.00  0.00     0.277 HD
ATOM     16  H11 UNL     1      -7.550   9.932  -4.868  1.00  0.00     0.277 HD
ENDBRANCH   1  13
TORSDOF 2
ENDMDL
MODEL 4
REMARK VINA RESULT: -4.261953136      2.512      4.540
REMARK  2 active torsions:
REMARK  status: ('A' for Active; 'I' for Inactive)
REMARK    1  A    between atoms: C2_2  and  C3_3 
REMARK    2  A    between atoms: C3_3  and  N1_4 
ROOT
HETATM    1  C3  UNL     1      -6.733   5.484  -4.742  1.00  0.00     0.127 C 
HETATM    2  C5  UNL     1      -6.540   5.638  -6.204  1.00  0.00     0.044 C 
HETATM    3  C6  UNL     1      -5.409   6.584  -6.570  1.00  0.00     0.056 C 
HETATM    4  C7  UNL     1      -5.509   7.856  -5.834  1.00  0.00    -0.002 C 
HETATM    5  N2  UNL     1      -4.677   8.774  -6.045  1.00  0.00    -0.404 N 
ATOM      6  H21 UNL     1      -4.747   9.655  -5.535  1.00  0.00     0.155 HD
ATOM      7  H22 UNL     1      -3.920   8.671  -6.722  1.00  0.00     0.155 HD
HETATM    8  C8  UNL     1      -6.601   8.004  -4.857  1.00  0.00     0.129 C 
HETATM    9 CL1  UNL     1      -6.351   9.420  -3.793  1.00  0.00    -0.119 Cl
HETATM   10  C9  UNL     1      -6.564   6.773  -3.981  1.00  0.00     0.065 C 
ENDROOT
BRANCH   1  11
HETATM   11  C2  UNL     1      -8.044   4.842  -4.369  1.00  0.00     0.034 C 
HETATM   12  C1  UNL     1      -9.159   5.093  -5.321  1.00  0.00     0.007 C 
ENDBRANCH   1  11
BRANCH   1  13
HETATM   13  N1  UNL     1      -5.678   4.568  -4.273  1.00  0.00    -0.070 N 
HETATM   14  C4  UNL     1      -4.994   5.084  -3.117  1.00  0.00     0.267 C 
ATOM     15  H12 UNL     1      -6.050   3.634  -4.099  1.00  0.00     0.277 HD
ATOM     16  H11 UNL     1      -5.024   4.343  -5.022  1.00  0.00     0.277 HD
ENDBRANCH   1  13
TORSDOF 2
ENDMDL
MODEL 5
REMARK VINA RESULT: -4.232335465      2.589      4.441
REMARK  2 active torsions:
REMARK  status: ('A' for Active; 'I' for Inactive)
REMARK    1  A    between atoms: C2_2  and  C3_3 
REMARK    2  A    between atoms: C3_3  and  N1_4 
ROOT
HETATM    1  C3  UNL     1      -5.287   8.957  -4.387  1.00  0.00     0.127 C 
HETATM    2  C5  UNL     1      -6.724   9.297  -4.534  1.00  0.00     0.044 C 
HETATM    3  C6  UNL     1      -6.964  10.712  -5.033  1.00  0.00     0.056 C 
HETATM    4  C7  UNL     1      -6.182  11.696  -4.263  1.00  0.00    -0.002 C 
HETATM    5  N2  UNL     1      -6.292  12.923  -4.514  1.00  0.00    -0.404 N 
ATOM      6  H21 UNL     1      -5.750  13.604  -3.981  1.00  0.00     0.155 HD
ATOM      7  H22 UNL     1      -6.915  13.271  -5.243  1.00  0.00     0.155 HD
HETATM    8  C8  UNL     1      -5.283  11.193  -3.211  1.00  0.00     0.129 C 
HETATM    9 CL1  UNL     1      -4.142  12.454  -2.656  1.00  0.00    -0.119 Cl
HETATM   10  C9  UNL     1      -4.461  10.090  -3.840  1.00  0.00     0.065 C 
ENDROOT
BRANCH   1  11
HETATM   11  C2  UNL     1      -5.040   7.710  -3.577  1.00  0.00     0.034 C 
HETATM   12  C1  UNL     1      -6.205   7.239  -2.781  1.00  0.00     0.007 C 
ENDBRANCH   1  11
BRANCH   1  13
HETATM   13  N1  UNL     1      -4.783   8.674  -5.742  1.00  0.00    -0.070 N 
HETATM   14  C4  UNL     1      -5.283   7.423  -6.251  1.00  0.00     0.267 C 
ATOM     15  H12 UNL     1      -4.986   9.443  -6.381  1.00  0.00     0.277 HD
ATOM     16  H11 UNL     1      -3.764   8.705  -5.772  1.00  0.00     0.277 HD
ENDBRANCH   1  13
TORSDOF 2
ENDMDL
