MODEL 1
REMARK VINA RESULT: -4.996114646      0.000      0.000
REMARK  3 active torsions:
REMARK  status: ('A' for Active; 'I' for Inactive)
REMARK    1  A    between atoms: C6_7  and  N1_8 
REMARK    2  A    between atoms: N1_8  and  C7_10 
REMARK    3  A    between atoms: C7_10  and  C8_11 
ROOT
HETATM    1  C1  UNL     1      -6.000   7.385  -3.398  1.00  0.00     0.046 C 
HETATM    2  C2  UNL     1      -6.464   7.671  -4.818  1.00  0.00     0.125 C 
HETATM    3  C3  UNL     1      -7.425   6.570  -5.190  1.00  0.00     0.046 C 
HETATM    4  C4  UNL     1      -5.234   7.556  -5.686  1.00  0.00     0.064 C 
HETATM    5  C5  UNL     1      -4.747   8.953  -5.976  1.00  0.00     0.174 C 
HETATM    6  O1  UNL     1      -4.844   9.799  -4.908  1.00  0.00    -0.344 OA
HETATM    7  C6  UNL     1      -6.119   9.957  -4.377  1.00  0.00     0.425 C 
HETATM    8  N2  UNL     1      -7.049   8.972  -4.863  1.00  0.00    -0.023 N 
ATOM      9  H21 UNL     1      -7.936   9.007  -4.361  1.00  0.00     0.283 HD
ATOM     10  H22 UNL     1      -7.393   9.202  -5.795  1.00  0.00     0.283 HD
ENDROOT
BRANCH   7  11
HETATM   11  N1  UNL     1      -6.594  11.312  -4.537  1.00  0.00    -0.374 N 
ATOM     12  H1  UNL     1      -7.000  11.638  -5.413  1.00  0.00     0.157 HD
BRANCH  11  13
HETATM   13  C7  UNL     1      -6.467  12.163  -3.411  1.00  0.00     0.133 C 
BRANCH  13  14
HETATM   14  C8  UNL     1      -5.904  13.495  -3.926  1.00  0.00     0.134 C 
HETATM   15 CL1  UNL     1      -6.515  14.789  -2.847  1.00  0.00    -0.129 Cl
ENDBRANCH  13  14
ENDBRANCH  11  13
ENDBRANCH   7  11
TORSDOF 3
ENDMDL
MODEL 2
REMARK VINA RESULT: -4.831380174      2.703      5.748
REMARK  3 active torsions:
REMARK  status: ('A' for Active; 'I' for Inactive)
REMARK    1  A    between atoms: C6_7  and  N1_8 
REMARK    2  A    between atoms: N1_8  and  C7_10 
REMARK    3  A    between atoms: C7_10  and  C8_11 
ROOT
HETATM    1  C1  UNL     1      -5.610  14.961  -4.188  1.00  0.00     0.046 C 
HETATM    2  C2  UNL     1      -6.080  14.431  -2.842  1.00  0.00     0.125 C 
HETATM    3  C3  UNL     1      -6.993  15.479  -2.258  1.00  0.00     0.046 C 
HETATM    4  C4  UNL     1      -4.844  14.328  -1.983  1.00  0.00     0.064 C 
HETATM    5  C5  UNL     1      -4.415  12.882  -1.968  1.00  0.00     0.174 C 
HETATM    6  O1  UNL     1      -4.553  12.259  -3.175  1.00  0.00    -0.344 OA
HETATM    7  C6  UNL     1      -5.835  12.257  -3.712  1.00  0.00     0.425 C 
HETATM    8  N2  UNL     1      -6.720  13.170  -3.038  1.00  0.00    -0.023 N 
ATOM      9  H21 UNL     1      -7.610  13.267  -3.527  1.00  0.00     0.283 HD
ATOM     10  H22 UNL     1      -7.070  12.781  -2.162  1.00  0.00     0.283 HD
ENDROOT
BRANCH   7  11
HETATM   11  N1  UNL     1      -6.367  10.918  -3.806  1.00  0.00    -0.374 N 
ATOM     12  H1  UNL     1      -6.669  10.401  -2.980  1.00  0.00     0.157 HD
BRANCH  11  13
HETATM   13  C7  UNL     1      -6.447  10.359  -5.105  1.00  0.00     0.133 C 
BRANCH  13  14
HETATM   14  C8  UNL     1      -5.686   9.027  -5.061  1.00  0.00     0.134 C 
HETATM   15 CL1  UNL     1      -6.250   8.134  -3.613  1.00  0.00    -0.129 Cl
ENDBRANCH  13  14
ENDBRANCH  11  13
ENDBRANCH   7  11
TORSDOF 3
ENDMDL
MODEL 3
REMARK VINA RESULT: -4.815385821      1.527      2.216
REMARK  3 active torsions:
REMARK  status: ('A' for Active; 'I' for Inactive)
REMARK    1  A    between atoms: C6_7  and  N1_8 
REMARK    2  A    between atoms: N1_8  and  C7_10 
REMARK    3  A    between atoms: C7_10  and  C8_11 
ROOT
HETATM    1  C1  UNL     1      -7.062   6.228  -5.809  1.00  0.00     0.046 C 
HETATM    2  C2  UNL     1      -5.614   6.472  -5.414  1.00  0.00     0.125 C 
HETATM    3  C3  UNL     1      -4.779   5.493  -6.199  1.00  0.00     0.046 C 
HETATM    4  C4  UNL     1      -5.521   6.124  -3.948  1.00  0.00     0.064 C 
HETATM    5  C5  UNL     1      -5.547   7.415  -3.169  1.00  0.00     0.174 C 
HETATM    6  O1  UNL     1      -6.414   8.341  -3.674  1.00  0.00    -0.344 OA
HETATM    7  C6  UNL     1      -6.197   8.714  -4.996  1.00  0.00     0.425 C 
HETATM    8  N2  UNL     1      -5.284   7.835  -5.677  1.00  0.00    -0.023 N 
ATOM      9  H21 UNL     1      -5.244   8.031  -6.678  1.00  0.00     0.283 HD
ATOM     10  H22 UNL     1      -4.313   8.043  -5.444  1.00  0.00     0.283 HD
ENDROOT
BRANCH   7  11
HETATM   11  N1  UNL     1      -5.828  10.106  -5.099  1.00  0.00    -0.374 N 
ATOM     12  H1  UNL     1      -5.003  10.406  -5.619  1.00  0.00     0.157 HD
BRANCH  11  13
HETATM   13  C7  UNL     1      -6.671  11.034  -4.440  1.00  0.00     0.133 C 
BRANCH  13  14
HETATM   14  C8  UNL     1      -5.785  11.824  -3.468  1.00  0.00     0.134 C 
HETATM   15 CL1  UNL     1      -6.315  13.535  -3.527  1.00  0.00    -0.129 Cl
ENDBRANCH  13  14
ENDBRANCH  11  13
ENDBRANCH   7  11
TORSDOF 3
ENDMDL
MODEL 4
REMARK VINA RESULT: -4.611023280      1.767      2.448
REMARK  3 active torsions:
REMARK  status: ('A' for Active; 'I' for Inactive)
REMARK    1  A    between atoms: C6_7  and  N1_8 
REMARK    2  A    between atoms: N1_8  and  C7_10 
REMARK    3  A    between atoms: C7_10  and  C8_11 
ROOT
HETATM    1  C1  UNL     1      -6.305   8.982  -3.222  1.00  0.00     0.046 C 
HETATM    2  C2  UNL     1      -5.599   9.681  -4.374  1.00  0.00     0.125 C 
HETATM    3  C3  UNL     1      -5.651   8.739  -5.550  1.00  0.00     0.046 C 
HETATM    4  C4  UNL     1      -4.161   9.840  -3.942  1.00  0.00     0.064 C 
HETATM    5  C5  UNL     1      -3.978  11.262  -3.475  1.00  0.00     0.174 C 
HETATM    6  O1  UNL     1      -5.040  11.745  -2.766  1.00  0.00    -0.344 OA
HETATM    7  C6  UNL     1      -6.265  11.729  -3.424  1.00  0.00     0.425 C 
HETATM    8  N2  UNL     1      -6.240  10.932  -4.621  1.00  0.00    -0.023 N 
ATOM      9  H21 UNL     1      -7.173  10.809  -5.015  1.00  0.00     0.283 HD
ATOM     10  H22 UNL     1      -5.811  11.431  -5.401  1.00  0.00     0.283 HD
ENDROOT
BRANCH   7  11
HETATM   11  N1  UNL     1      -6.765  13.066  -3.644  1.00  0.00    -0.374 N 
ATOM     12  H1  UNL     1      -7.762  13.258  -3.736  1.00  0.00     0.157 HD
BRANCH  11  13
HETATM   13  C7  UNL     1      -5.797  14.097  -3.723  1.00  0.00     0.133 C 
BRANCH  13  14
HETATM   14  C8  UNL     1      -6.116  15.091  -2.598  1.00  0.00     0.134 C 
HETATM   15 CL1  UNL     1      -4.799  14.970  -1.387  1.00  0.00    -0.129 Cl
ENDBRANCH  13  14
ENDBRANCH  11  13
ENDBRANCH   7  11
TORSDOF 3
ENDMDL
MODEL 5
REMARK VINA RESULT: -4.511634764      1.995      2.568
REMARK  3 active torsions:
REMARK  status: ('A' for Active; 'I' for Inactive)
REMARK    1  A    between atoms: C6_7  and  N1_8 
REMARK    2  A    between atoms: N1_8  and  C7_10 
REMARK    3  A    between atoms: C7_10  and  C8_11 
ROOT
HETATM    1  C1  UNL     1      -6.734   5.469  -3.797  1.00  0.00     0.046 C 
HETATM    2  C2  UNL     1      -7.195   5.853  -5.195  1.00  0.00     0.125 C 
HETATM    3  C3  UNL     1      -8.636   5.422  -5.310  1.00  0.00     0.046 C 
HETATM    4  C4  UNL     1      -6.364   5.026  -6.146  1.00  0.00     0.064 C 
HETATM    5  C5  UNL     1      -5.267   5.912  -6.683  1.00  0.00     0.174 C 
HETATM    6  O1  UNL     1      -4.737   6.753  -5.748  1.00  0.00    -0.344 OA
HETATM    7  C6  UNL     1      -5.637   7.615  -5.131  1.00  0.00     0.425 C 
HETATM    8  N2  UNL     1      -7.008   7.256  -5.378  1.00  0.00    -0.023 N 
ATOM      9  H21 UNL     1      -7.652   7.803  -4.807  1.00  0.00     0.283 HD
ATOM     10  H22 UNL     1      -7.321   7.564  -6.298  1.00  0.00     0.283 HD
ENDROOT
BRANCH   7  11
HETATM   11  N1  UNL     1      -5.347   8.995  -5.445  1.00  0.00    -0.374 N 
ATOM     12  H1  UNL     1      -4.487   9.268  -5.919  1.00  0.00     0.157 HD
BRANCH  11  13
HETATM   13  C7  UNL     1      -6.321   9.949  -5.060  1.00  0.00     0.133 C 
BRANCH  13  14
HETATM   14  C8  UNL     1      -5.745  10.709  -3.857  1.00  0.00     0.134 C 
HETATM   15 CL1  UNL     1      -6.718  12.200  -3.649  1.00  0.00    -0.129 Cl
ENDBRANCH  13  14
ENDBRANCH  11  13
ENDBRANCH   7  11
TORSDOF 3
ENDMDL
