MODEL 1
REMARK VINA RESULT: -7.829296901      0.000      0.000
REMARK  15 active torsions:
REMARK  status: ('A' for Active; 'I' for Inactive)
REMARK    1  A    between atoms: C2_2  and  C3_3 
REMARK    2  A    between atoms: C3_3  and  C5_5 
REMARK    3  A    between atoms: C5_5  and  N1_6 
REMARK    4  A    between atoms: C5_5  and  C8_12 
REMARK       I    between atoms: N1_6  and  C6_8 
REMARK    5  A    between atoms: C6_8  and  O2_10 
REMARK    6  A    between atoms: C8_12  and  C9_13 
REMARK    7  A    between atoms: C8_12  and  N2_20 
REMARK    8  A    between atoms: C9_13  and  C10_14 
REMARK    9  A    between atoms: N2_20  and  C16_22 
REMARK   10  A    between atoms: C16_22  and  C18_24 
REMARK       I    between atoms: C18_24  and  N3_26 
REMARK   11  A    between atoms: N3_26  and  C19_28 
REMARK   12  A    between atoms: C19_28  and  C21_30 
REMARK   13  A    between atoms: C21_30  and  O5_32 
REMARK   14  A    between atoms: O5_32  and  C22_33 
REMARK   15  A    between atoms: C22_33  and  N4_34 
REMARK       I    between atoms: N4_34  and  C23_36 
ROOT
HETATM    1  C8  UNL     1      29.582 -48.715  40.616  1.00  0.00     0.101 C 
ENDROOT
BRANCH   1   2
HETATM    2  C5  UNL     1      28.627 -48.754  39.478  1.00  0.00     0.112 C 
BRANCH   2   3
HETATM    3  C3  UNL     1      27.359 -49.520  39.729  1.00  0.00     0.006 C 
HETATM    4  C4  UNL     1      26.994 -50.559  38.730  1.00  0.00     0.012 C 
BRANCH   3   5
HETATM    5  C2  UNL     1      26.172 -48.619  39.965  1.00  0.00     0.002 C 
HETATM    6  C1  UNL     1      25.629 -48.692  41.373  1.00  0.00     0.005 C 
ENDBRANCH   3   5
ENDBRANCH   2   3
BRANCH   2   7
HETATM    7  N1  UNL     1      29.238 -49.279  38.252  1.00  0.00    -0.330 N 
HETATM    8  C6  UNL     1      30.157 -48.538  37.459  1.00  0.00     0.360 C 
HETATM    9  O1  UNL     1      30.457 -47.389  37.815  1.00  0.00    -0.239 OA
ATOM     10  H1  UNL     1      28.992 -50.223  37.953  1.00  0.00     0.165 HD
BRANCH   8  11
HETATM   11  O2  UNL     1      30.726 -49.063  36.303  1.00  0.00    -0.309 OA
HETATM   12  C7  UNL     1      32.088 -48.724  36.024  1.00  0.00     0.215 C 
ENDBRANCH   8  11
ENDBRANCH   2   7
ENDBRANCH   1   2
BRANCH   1  13
HETATM   13  C9  UNL     1      29.189 -49.557  41.797  1.00  0.00     0.031 C 
BRANCH  13  14
HETATM   14  C10 UNL     1      29.917 -50.826  41.985  1.00  0.00    -0.013 C 
HETATM   15  C11 UNL     1      29.767 -51.221  43.453  1.00  0.00     0.005 C 
HETATM   16  C12 UNL     1      30.665 -50.469  44.371  1.00  0.00     0.000 C 
HETATM   17  C13 UNL     1      32.126 -50.559  43.961  1.00  0.00     0.000 C 
HETATM   18  C14 UNL     1      32.182 -49.881  42.585  1.00  0.00     0.000 C 
HETATM   19  C15 UNL     1      31.382 -50.788  41.675  1.00  0.00     0.005 C 
ENDBRANCH  13  14
ENDBRANCH   1  13
BRANCH   1  20
HETATM   20  N2  UNL     1      29.771 -47.341  41.011  1.00  0.00    -0.403 N 
ATOM     21  H2  UNL     1      30.523 -46.768  40.628  1.00  0.00     0.154 HD
BRANCH  20  22
HETATM   22  C16 UNL     1      28.838 -46.828  41.977  1.00  0.00     0.165 C 
HETATM   23  C17 UNL     1      29.549 -46.552  43.282  1.00  0.00     0.042 C 
BRANCH  22  24
HETATM   24  C18 UNL     1      28.330 -45.518  41.485  1.00  0.00     0.240 C 
HETATM   25  O3  UNL     1      27.554 -45.455  40.491  1.00  0.00    -0.271 OA
HETATM   26  N3  UNL     1      28.688 -44.285  42.105  1.00  0.00    -0.346 N 
ATOM     27  H3  UNL     1      29.313 -44.303  42.912  1.00  0.00     0.163 HD
BRANCH  26  28
HETATM   28  C19 UNL     1      28.196 -43.013  41.633  1.00  0.00     0.180 C 
HETATM   29  C20 UNL     1      26.899 -42.641  42.387  1.00  0.00     0.043 C 
BRANCH  28  30
HETATM   30  C21 UNL     1      29.174 -41.935  41.743  1.00  0.00     0.283 C 
HETATM   31  O4  UNL     1      30.373 -42.137  41.342  1.00  0.00    -0.263 OA
BRANCH  30  32
HETATM   32  O5  UNL     1      28.919 -40.677  42.254  1.00  0.00    -0.300 OA
BRANCH  32  33
HETATM   33  C22 UNL     1      29.955 -39.760  42.599  1.00  0.00     0.305 C 
BRANCH  33  34
HETATM   34  N4  UNL     1      29.626 -38.417  42.234  1.00  0.00    -0.324 N 
HETATM   35  C23 UNL     1      29.997 -37.352  43.082  1.00  0.00     0.330 C 
HETATM   36  N5  UNL     1      29.673 -35.993  42.727  1.00  0.00    -0.040 NA
HETATM   37  O6  UNL     1      30.611 -37.589  44.149  1.00  0.00    -0.251 OA
ATOM     38  H4  UNL     1      29.126 -38.230  41.364  1.00  0.00     0.166 HD
ENDBRANCH  33  34
ENDBRANCH  32  33
ENDBRANCH  30  32
ENDBRANCH  28  30
ENDBRANCH  26  28
ENDBRANCH  22  24
ENDBRANCH  20  22
ENDBRANCH   1  20
TORSDOF 15
ENDMDL
MODEL 2
REMARK VINA RESULT: -7.685669333      2.716      5.414
REMARK  15 active torsions:
REMARK  status: ('A' for Active; 'I' for Inactive)
REMARK    1  A    between atoms: C2_2  and  C3_3 
REMARK    2  A    between atoms: C3_3  and  C5_5 
REMARK    3  A    between atoms: C5_5  and  N1_6 
REMARK    4  A    between atoms: C5_5  and  C8_12 
REMARK       I    between atoms: N1_6  and  C6_8 
REMARK    5  A    between atoms: C6_8  and  O2_10 
REMARK    6  A    between atoms: C8_12  and  C9_13 
REMARK    7  A    between atoms: C8_12  and  N2_20 
REMARK    8  A    between atoms: C9_13  and  C10_14 
REMARK    9  A    between atoms: N2_20  and  C16_22 
REMARK   10  A    between atoms: C16_22  and  C18_24 
REMARK       I    between atoms: C18_24  and  N3_26 
REMARK   11  A    between atoms: N3_26  and  C19_28 
REMARK   12  A    between atoms: C19_28  and  C21_30 
REMARK   13  A    between atoms: C21_30  and  O5_32 
REMARK   14  A    between atoms: O5_32  and  C22_33 
REMARK   15  A    between atoms: C22_33  and  N4_34 
REMARK       I    between atoms: N4_34  and  C23_36 
ROOT
HETATM    1  C8  UNL     1      28.929 -48.260  43.188  1.00  0.00     0.101 C 
ENDROOT
BRANCH   1   2
HETATM    2  C5  UNL     1      30.122 -48.796  43.893  1.00  0.00     0.112 C 
BRANCH   2   3
HETATM    3  C3  UNL     1      30.958 -49.760  43.101  1.00  0.00     0.006 C 
HETATM    4  C4  UNL     1      30.903 -51.190  43.510  1.00  0.00     0.012 C 
BRANCH   3   5
HETATM    5  C2  UNL     1      32.401 -49.330  42.995  1.00  0.00     0.002 C 
HETATM    6  C1  UNL     1      33.380 -50.385  43.452  1.00  0.00     0.005 C 
ENDBRANCH   3   5
ENDBRANCH   2   3
BRANCH   2   7
HETATM    7  N1  UNL     1      29.778 -49.435  45.168  1.00  0.00    -0.330 N 
HETATM    8  C6  UNL     1      29.962 -48.807  46.431  1.00  0.00     0.360 C 
HETATM    9  O1  UNL     1      30.440 -47.664  46.461  1.00  0.00    -0.239 OA
ATOM     10  H1  UNL     1      29.388 -50.378  45.148  1.00  0.00     0.165 HD
BRANCH   8  11
HETATM   11  O2  UNL     1      29.623 -49.434  47.625  1.00  0.00    -0.309 OA
HETATM   12  C7  UNL     1      28.449 -50.254  47.630  1.00  0.00     0.215 C 
ENDBRANCH   8  11
ENDBRANCH   2   7
ENDBRANCH   1   2
BRANCH   1  13
HETATM   13  C9  UNL     1      27.631 -48.919  43.559  1.00  0.00     0.031 C 
BRANCH  13  14
HETATM   14  C10 UNL     1      26.402 -48.122  43.380  1.00  0.00    -0.013 C 
HETATM   15  C11 UNL     1      25.531 -48.350  44.615  1.00  0.00     0.005 C 
HETATM   16  C12 UNL     1      24.798 -49.645  44.600  1.00  0.00     0.000 C 
HETATM   17  C13 UNL     1      23.965 -49.830  43.342  1.00  0.00     0.000 C 
HETATM   18  C14 UNL     1      24.993 -49.856  42.201  1.00  0.00     0.000 C 
HETATM   19  C15 UNL     1      25.576 -48.460  42.177  1.00  0.00     0.005 C 
ENDBRANCH  13  14
ENDBRANCH   1  13
BRANCH   1  20
HETATM   20  N2  UNL     1      29.156 -48.348  41.767  1.00  0.00    -0.403 N 
ATOM     21  H2  UNL     1      28.879 -49.166  41.226  1.00  0.00     0.154 HD
BRANCH  20  22
HETATM   22  C16 UNL     1      29.798 -47.214  41.159  1.00  0.00     0.165 C 
HETATM   23  C17 UNL     1      30.199 -47.551  39.741  1.00  0.00     0.042 C 
BRANCH  22  24
HETATM   24  C18 UNL     1      28.804 -46.109  41.067  1.00  0.00     0.240 C 
HETATM   25  O3  UNL     1      27.770 -46.223  40.351  1.00  0.00    -0.271 OA
HETATM   26  N3  UNL     1      28.967 -44.883  41.778  1.00  0.00    -0.346 N 
ATOM     27  H3  UNL     1      29.791 -44.760  42.366  1.00  0.00     0.163 HD
BRANCH  26  28
HETATM   28  C19 UNL     1      28.005 -43.810  41.694  1.00  0.00     0.180 C 
HETATM   29  C20 UNL     1      26.862 -44.051  42.707  1.00  0.00     0.043 C 
BRANCH  28  30
HETATM   30  C21 UNL     1      28.590 -42.488  41.894  1.00  0.00     0.283 C 
HETATM   31  O4  UNL     1      27.837 -41.522  42.264  1.00  0.00    -0.263 OA
BRANCH  30  32
HETATM   32  O5  UNL     1      29.924 -42.172  41.716  1.00  0.00    -0.300 OA
BRANCH  32  33
HETATM   33  C22 UNL     1      30.370 -40.850  41.420  1.00  0.00     0.305 C 
BRANCH  33  34
HETATM   34  N4  UNL     1      30.438 -40.032  42.590  1.00  0.00    -0.324 N 
HETATM   35  C23 UNL     1      29.854 -38.747  42.579  1.00  0.00     0.330 C 
HETATM   36  N5  UNL     1      29.914 -37.910  43.751  1.00  0.00    -0.040 NA
HETATM   37  O6  UNL     1      29.280 -38.332  41.543  1.00  0.00    -0.251 OA
ATOM     38  H4  UNL     1      30.907 -40.375  43.428  1.00  0.00     0.166 HD
ENDBRANCH  33  34
ENDBRANCH  32  33
ENDBRANCH  30  32
ENDBRANCH  28  30
ENDBRANCH  26  28
ENDBRANCH  22  24
ENDBRANCH  20  22
ENDBRANCH   1  20
TORSDOF 15
ENDMDL
MODEL 3
REMARK VINA RESULT: -7.655743067      2.184      3.916
REMARK  15 active torsions:
REMARK  status: ('A' for Active; 'I' for Inactive)
REMARK    1  A    between atoms: C2_2  and  C3_3 
REMARK    2  A    between atoms: C3_3  and  C5_5 
REMARK    3  A    between atoms: C5_5  and  N1_6 
REMARK    4  A    between atoms: C5_5  and  C8_12 
REMARK       I    between atoms: N1_6  and  C6_8 
REMARK    5  A    between atoms: C6_8  and  O2_10 
REMARK    6  A    between atoms: C8_12  and  C9_13 
REMARK    7  A    between atoms: C8_12  and  N2_20 
REMARK    8  A    between atoms: C9_13  and  C10_14 
REMARK    9  A    between atoms: N2_20  and  C16_22 
REMARK   10  A    between atoms: C16_22  and  C18_24 
REMARK       I    between atoms: C18_24  and  N3_26 
REMARK   11  A    between atoms: N3_26  and  C19_28 
REMARK   12  A    between atoms: C19_28  and  C21_30 
REMARK   13  A    between atoms: C21_30  and  O5_32 
REMARK   14  A    between atoms: O5_32  and  C22_33 
REMARK   15  A    between atoms: C22_33  and  N4_34 
REMARK       I    between atoms: N4_34  and  C23_36 
ROOT
HETATM    1  C8  UNL     1      28.776 -49.109  41.991  1.00  0.00     0.101 C 
ENDROOT
BRANCH   1   2
HETATM    2  C5  UNL     1      27.814 -48.745  43.063  1.00  0.00     0.112 C 
BRANCH   2   3
HETATM    3  C3  UNL     1      28.359 -48.799  44.462  1.00  0.00     0.006 C 
HETATM    4  C4  UNL     1      27.458 -49.342  45.513  1.00  0.00     0.012 C 
BRANCH   3   5
HETATM    5  C2  UNL     1      28.916 -47.474  44.921  1.00  0.00     0.002 C 
HETATM    6  C1  UNL     1      30.212 -47.596  45.687  1.00  0.00     0.005 C 
ENDBRANCH   3   5
ENDBRANCH   2   3
BRANCH   2   7
HETATM    7  N1  UNL     1      26.594 -49.559  43.020  1.00  0.00    -0.330 N 
HETATM    8  C6  UNL     1      25.446 -49.205  42.259  1.00  0.00     0.360 C 
HETATM    9  O1  UNL     1      25.471 -48.155  41.601  1.00  0.00    -0.239 OA
ATOM     10  H1  UNL     1      26.568 -50.422  43.564  1.00  0.00     0.165 HD
BRANCH   8  11
HETATM   11  O2  UNL     1      24.304 -49.998  42.233  1.00  0.00    -0.309 OA
HETATM   12  C7  UNL     1      23.430 -49.935  43.365  1.00  0.00     0.215 C 
ENDBRANCH   8  11
ENDBRANCH   2   7
ENDBRANCH   1   2
BRANCH   1  13
HETATM   13  C9  UNL     1      30.189 -49.320  42.458  1.00  0.00     0.031 C 
BRANCH  13  14
HETATM   14  C10 UNL     1      30.723 -50.692  42.374  1.00  0.00    -0.013 C 
HETATM   15  C11 UNL     1      30.345 -51.406  43.672  1.00  0.00     0.005 C 
HETATM   16  C12 UNL     1      31.211 -51.046  44.827  1.00  0.00     0.000 C 
HETATM   17  C13 UNL     1      32.689 -51.256  44.537  1.00  0.00     0.000 C 
HETATM   18  C14 UNL     1      32.997 -50.279  43.392  1.00  0.00     0.000 C 
HETATM   19  C15 UNL     1      32.208 -50.805  42.213  1.00  0.00     0.005 C 
ENDBRANCH  13  14
ENDBRANCH   1  13
BRANCH   1  20
HETATM   20  N2  UNL     1      28.726 -48.098  40.964  1.00  0.00    -0.403 N 
ATOM     21  H2  UNL     1      28.129 -48.192  40.143  1.00  0.00     0.154 HD
BRANCH  20  22
HETATM   22  C16 UNL     1      29.567 -46.950  41.167  1.00  0.00     0.165 C 
HETATM   23  C17 UNL     1      30.600 -46.868  40.066  1.00  0.00     0.042 C 
BRANCH  22  24
HETATM   24  C18 UNL     1      28.725 -45.728  41.050  1.00  0.00     0.240 C 
HETATM   25  O3  UNL     1      27.648 -45.743  40.392  1.00  0.00    -0.271 OA
HETATM   26  N3  UNL     1      29.087 -44.496  41.670  1.00  0.00    -0.346 N 
ATOM     27  H3  UNL     1      29.951 -44.451  42.210  1.00  0.00     0.163 HD
BRANCH  26  28
HETATM   28  C19 UNL     1      28.272 -43.309  41.561  1.00  0.00     0.180 C 
HETATM   29  C20 UNL     1      27.155 -43.342  42.630  1.00  0.00     0.043 C 
BRANCH  28  30
HETATM   30  C21 UNL     1      29.035 -42.069  41.663  1.00  0.00     0.283 C 
HETATM   31  O4  UNL     1      30.312 -42.115  41.584  1.00  0.00    -0.263 OA
BRANCH  30  32
HETATM   32  O5  UNL     1      28.492 -40.811  41.840  1.00  0.00    -0.300 OA
BRANCH  32  33
HETATM   33  C22 UNL     1      29.209 -39.613  41.552  1.00  0.00     0.305 C 
BRANCH  33  34
HETATM   34  N4  UNL     1      29.944 -39.143  42.685  1.00  0.00    -0.324 N 
HETATM   35  C23 UNL     1      29.932 -37.768  43.003  1.00  0.00     0.330 C 
HETATM   36  N5  UNL     1      30.668 -37.278  44.142  1.00  0.00    -0.040 NA
HETATM   37  O6  UNL     1      29.279 -36.968  42.290  1.00  0.00    -0.251 OA
ATOM     38  H4  UNL     1      30.473 -39.797  43.260  1.00  0.00     0.166 HD
ENDBRANCH  33  34
ENDBRANCH  32  33
ENDBRANCH  30  32
ENDBRANCH  28  30
ENDBRANCH  26  28
ENDBRANCH  22  24
ENDBRANCH  20  22
ENDBRANCH   1  20
TORSDOF 15
ENDMDL
MODEL 4
REMARK VINA RESULT: -7.608258629      3.975      8.302
REMARK  15 active torsions:
REMARK  status: ('A' for Active; 'I' for Inactive)
REMARK    1  A    between atoms: C2_2  and  C3_3 
REMARK    2  A    between atoms: C3_3  and  C5_5 
REMARK    3  A    between atoms: C5_5  and  N1_6 
REMARK    4  A    between atoms: C5_5  and  C8_12 
REMARK       I    between atoms: N1_6  and  C6_8 
REMARK    5  A    between atoms: C6_8  and  O2_10 
REMARK    6  A    between atoms: C8_12  and  C9_13 
REMARK    7  A    between atoms: C8_12  and  N2_20 
REMARK    8  A    between atoms: C9_13  and  C10_14 
REMARK    9  A    between atoms: N2_20  and  C16_22 
REMARK   10  A    between atoms: C16_22  and  C18_24 
REMARK       I    between atoms: C18_24  and  N3_26 
REMARK   11  A    between atoms: N3_26  and  C19_28 
REMARK   12  A    between atoms: C19_28  and  C21_30 
REMARK   13  A    between atoms: C21_30  and  O5_32 
REMARK   14  A    between atoms: O5_32  and  C22_33 
REMARK   15  A    between atoms: C22_33  and  N4_34 
REMARK       I    between atoms: N4_34  and  C23_36 
ROOT
HETATM    1  C8  UNL     1      29.467 -47.038  43.037  1.00  0.00     0.101 C 
ENDROOT
BRANCH   1   2
HETATM    2  C5  UNL     1      28.444 -47.546  43.987  1.00  0.00     0.112 C 
BRANCH   2   3
HETATM    3  C3  UNL     1      28.981 -48.317  45.159  1.00  0.00     0.006 C 
HETATM    4  C4  UNL     1      30.220 -47.796  45.795  1.00  0.00     0.012 C 
BRANCH   3   5
HETATM    5  C2  UNL     1      29.157 -49.786  44.860  1.00  0.00     0.002 C 
HETATM    6  C1  UNL     1      30.524 -50.315  45.219  1.00  0.00     0.005 C 
ENDBRANCH   3   5
ENDBRANCH   2   3
BRANCH   2   7
HETATM    7  N1  UNL     1      27.429 -48.375  43.327  1.00  0.00    -0.330 N 
HETATM    8  C6  UNL     1      26.055 -48.368  43.695  1.00  0.00     0.360 C 
HETATM    9  O1  UNL     1      25.693 -47.630  44.622  1.00  0.00    -0.239 OA
ATOM     10  H1  UNL     1      27.723 -48.987  42.565  1.00  0.00     0.165 HD
BRANCH   8  11
HETATM   11  O2  UNL     1      25.113 -49.161  43.047  1.00  0.00    -0.309 OA
HETATM   12  C7  UNL     1      24.064 -49.723  43.842  1.00  0.00     0.215 C 
ENDBRANCH   8  11
ENDBRANCH   2   7
ENDBRANCH   1   2
BRANCH   1  13
HETATM   13  C9  UNL     1      29.450 -45.550  42.831  1.00  0.00     0.031 C 
BRANCH  13  14
HETATM   14  C10 UNL     1      28.842 -45.055  41.581  1.00  0.00    -0.013 C 
HETATM   15  C11 UNL     1      29.546 -43.747  41.222  1.00  0.00     0.005 C 
HETATM   16  C12 UNL     1      29.079 -42.578  42.015  1.00  0.00     0.000 C 
HETATM   17  C13 UNL     1      27.572 -42.388  41.941  1.00  0.00     0.000 C 
HETATM   18  C14 UNL     1      26.993 -43.657  42.584  1.00  0.00     0.000 C 
HETATM   19  C15 UNL     1      27.372 -44.776  41.638  1.00  0.00     0.005 C 
ENDBRANCH  13  14
ENDBRANCH   1  13
BRANCH   1  20
HETATM   20  N2  UNL     1      29.312 -47.728  41.781  1.00  0.00    -0.403 N 
ATOM     21  H2  UNL     1      28.394 -47.907  41.374  1.00  0.00     0.154 HD
BRANCH  20  22
HETATM   22  C16 UNL     1      30.526 -48.147  41.136  1.00  0.00     0.165 C 
HETATM   23  C17 UNL     1      30.854 -49.569  41.533  1.00  0.00     0.042 C 
BRANCH  22  24
HETATM   24  C18 UNL     1      30.294 -48.160  39.666  1.00  0.00     0.240 C 
HETATM   25  O3  UNL     1      30.258 -47.084  39.005  1.00  0.00    -0.271 OA
HETATM   26  N3  UNL     1      30.106 -49.372  38.939  1.00  0.00    -0.346 N 
ATOM     27  H3  UNL     1      30.130 -50.258  39.443  1.00  0.00     0.163 HD
BRANCH  26  28
HETATM   28  C19 UNL     1      29.882 -49.388  37.513  1.00  0.00     0.180 C 
HETATM   29  C20 UNL     1      31.217 -49.648  36.777  1.00  0.00     0.043 C 
BRANCH  28  30
HETATM   30  C21 UNL     1      28.875 -50.358  37.094  1.00  0.00     0.283 C 
HETATM   31  O4  UNL     1      28.436 -50.321  35.892  1.00  0.00    -0.263 OA
BRANCH  30  32
HETATM   32  O5  UNL     1      28.335 -51.344  37.898  1.00  0.00    -0.300 OA
BRANCH  32  33
HETATM   33  C22 UNL     1      27.002 -51.287  38.399  1.00  0.00     0.305 C 
BRANCH  33  34
HETATM   34  N4  UNL     1      26.582 -49.945  38.654  1.00  0.00    -0.324 N 
HETATM   35  C23 UNL     1      26.854 -49.353  39.907  1.00  0.00     0.330 C 
HETATM   36  N5  UNL     1      26.437 -48.001  40.179  1.00  0.00    -0.040 NA
HETATM   37  O6  UNL     1      27.462 -50.009  40.787  1.00  0.00    -0.251 OA
ATOM     38  H4  UNL     1      26.088 -49.417  37.935  1.00  0.00     0.166 HD
ENDBRANCH  33  34
ENDBRANCH  32  33
ENDBRANCH  30  32
ENDBRANCH  28  30
ENDBRANCH  26  28
ENDBRANCH  22  24
ENDBRANCH  20  22
ENDBRANCH   1  20
TORSDOF 15
ENDMDL
MODEL 5
REMARK VINA RESULT: -7.590834334      2.171      3.747
REMARK  15 active torsions:
REMARK  status: ('A' for Active; 'I' for Inactive)
REMARK    1  A    between atoms: C2_2  and  C3_3 
REMARK    2  A    between atoms: C3_3  and  C5_5 
REMARK    3  A    between atoms: C5_5  and  N1_6 
REMARK    4  A    between atoms: C5_5  and  C8_12 
REMARK       I    between atoms: N1_6  and  C6_8 
REMARK    5  A    between atoms: C6_8  and  O2_10 
REMARK    6  A    between atoms: C8_12  and  C9_13 
REMARK    7  A    between atoms: C8_12  and  N2_20 
REMARK    8  A    between atoms: C9_13  and  C10_14 
REMARK    9  A    between atoms: N2_20  and  C16_22 
REMARK   10  A    between atoms: C16_22  and  C18_24 
REMARK       I    between atoms: C18_24  and  N3_26 
REMARK   11  A    between atoms: N3_26  and  C19_28 
REMARK   12  A    between atoms: C19_28  and  C21_30 
REMARK   13  A    between atoms: C21_30  and  O5_32 
REMARK   14  A    between atoms: O5_32  and  C22_33 
REMARK   15  A    between atoms: C22_33  and  N4_34 
REMARK       I    between atoms: N4_34  and  C23_36 
ROOT
HETATM    1  C8  UNL     1      29.118 -48.380  41.719  1.00  0.00     0.101 C 
ENDROOT
BRANCH   1   2
HETATM    2  C5  UNL     1      27.684 -48.758  41.636  1.00  0.00     0.112 C 
BRANCH   2   3
HETATM    3  C3  UNL     1      27.060 -48.623  40.276  1.00  0.00     0.006 C 
HETATM    4  C4  UNL     1      25.860 -47.749  40.171  1.00  0.00     0.012 C 
BRANCH   3   5
HETATM    5  C2  UNL     1      26.761 -49.956  39.638  1.00  0.00     0.002 C 
HETATM    6  C1  UNL     1      26.198 -50.974  40.601  1.00  0.00     0.005 C 
ENDBRANCH   3   5
ENDBRANCH   2   3
BRANCH   2   7
HETATM    7  N1  UNL     1      26.853 -48.015  42.591  1.00  0.00    -0.330 N 
HETATM    8  C6  UNL     1      26.331 -48.590  43.782  1.00  0.00     0.360 C 
HETATM    9  O1  UNL     1      26.583 -49.778  44.029  1.00  0.00    -0.239 OA
ATOM     10  H1  UNL     1      26.639 -47.038  42.390  1.00  0.00     0.165 HD
BRANCH   8  11
HETATM   11  O2  UNL     1      25.550 -47.861  44.673  1.00  0.00    -0.309 OA
HETATM   12  C7  UNL     1      24.734 -48.596  45.591  1.00  0.00     0.215 C 
ENDBRANCH   8  11
ENDBRANCH   2   7
ENDBRANCH   1   2
BRANCH   1  13
HETATM   13  C9  UNL     1      30.002 -49.404  42.373  1.00  0.00     0.031 C 
BRANCH  13  14
HETATM   14  C10 UNL     1      30.811 -48.954  43.521  1.00  0.00    -0.013 C 
HETATM   15  C11 UNL     1      32.276 -48.988  43.085  1.00  0.00     0.005 C 
HETATM   16  C12 UNL     1      32.870 -50.353  43.089  1.00  0.00     0.000 C 
HETATM   17  C13 UNL     1      32.716 -51.052  44.431  1.00  0.00     0.000 C 
HETATM   18  C14 UNL     1      31.199 -51.197  44.617  1.00  0.00     0.000 C 
HETATM   19  C15 UNL     1      30.691 -49.779  44.765  1.00  0.00     0.005 C 
ENDBRANCH  13  14
ENDBRANCH   1  13
BRANCH   1  20
HETATM   20  N2  UNL     1      29.222 -47.112  42.397  1.00  0.00    -0.403 N 
ATOM     21  H2  UNL     1      28.753 -46.935  43.285  1.00  0.00     0.154 HD
BRANCH  20  22
HETATM   22  C16 UNL     1      30.024 -46.111  41.746  1.00  0.00     0.165 C 
HETATM   23  C17 UNL     1      30.541 -46.644  40.429  1.00  0.00     0.042 C 
BRANCH  22  24
HETATM   24  C18 UNL     1      29.151 -44.951  41.422  1.00  0.00     0.240 C 
HETATM   25  O3  UNL     1      28.094 -45.102  40.748  1.00  0.00    -0.271 OA
HETATM   26  N3  UNL     1      29.459 -43.627  41.854  1.00  0.00    -0.346 N 
ATOM     27  H3  UNL     1      30.305 -43.471  42.401  1.00  0.00     0.163 HD
BRANCH  26  28
HETATM   28  C19 UNL     1      28.613 -42.499  41.543  1.00  0.00     0.180 C 
HETATM   29  C20 UNL     1      27.357 -42.522  42.444  1.00  0.00     0.043 C 
BRANCH  28  30
HETATM   30  C21 UNL     1      29.295 -41.213  41.657  1.00  0.00     0.283 C 
HETATM   31  O4  UNL     1      30.110 -40.856  40.737  1.00  0.00    -0.263 OA
BRANCH  30  32
HETATM   32  O5  UNL     1      29.138 -40.317  42.697  1.00  0.00    -0.300 OA
BRANCH  32  33
HETATM   33  C22 UNL     1      30.140 -39.369  43.057  1.00  0.00     0.305 C 
BRANCH  33  34
HETATM   34  N4  UNL     1      29.934 -38.104  42.424  1.00  0.00    -0.324 N 
HETATM   35  C23 UNL     1      30.262 -36.916  43.112  1.00  0.00     0.330 C 
HETATM   36  N5  UNL     1      30.059 -35.633  42.487  1.00  0.00    -0.040 NA
HETATM   37  O6  UNL     1      30.731 -36.978  44.274  1.00  0.00    -0.251 OA
ATOM     38  H4  UNL     1      29.551 -38.059  41.479  1.00  0.00     0.166 HD
ENDBRANCH  33  34
ENDBRANCH  32  33
ENDBRANCH  30  32
ENDBRANCH  28  30
ENDBRANCH  26  28
ENDBRANCH  22  24
ENDBRANCH  20  22
ENDBRANCH   1  20
TORSDOF 15
ENDMDL
