MODEL 1
REMARK VINA RESULT: -9.213986364      0.000      0.000
REMARK  14 active torsions:
REMARK  status: ('A' for Active; 'I' for Inactive)
REMARK    1  A    between atoms: C2_2  and  C4_4 
REMARK    2  A    between atoms: C4_4  and  C5_5 
REMARK    3  A    between atoms: C5_5  and  N1_6 
REMARK    4  A    between atoms: C5_5  and  C25_37 
REMARK       I    between atoms: N1_6  and  C6_7 
REMARK    5  A    between atoms: C6_7  and  C7_9 
REMARK    6  A    between atoms: C7_9  and  N2_10 
REMARK    7  A    between atoms: C7_9  and  C20_28 
REMARK       I    between atoms: N2_10  and  C8_12 
REMARK    8  A    between atoms: C8_12  and  C9_14 
REMARK    9  A    between atoms: C9_14  and  C11_16 
REMARK   10  A    between atoms: C11_16  and  C12_17 
REMARK   11  A    between atoms: C12_17  and  C13_19 
REMARK   12  A    between atoms: C20_28  and  N4_29 
REMARK   13  A    between atoms: C20_28  and  C21_33 
REMARK   14  A    between atoms: C21_33  and  C22_34 
ROOT
HETATM    1  C7  UNL     1      28.660 -46.038  41.517  1.00  0.00     0.222 C 
ENDROOT
BRANCH   1   2
HETATM    2  C6  UNL     1      28.018 -46.736  40.307  1.00  0.00     0.317 C 
HETATM    3  N1  UNL     1      28.494 -47.800  39.693  1.00  0.00    -0.368 NA
HETATM    4  O1  UNL     1      26.937 -46.106  40.002  1.00  0.00    -0.255 OA
BRANCH   3   5
HETATM    5  C5  UNL     1      28.996 -48.937  39.030  1.00  0.00     0.153 C 
BRANCH   5   6
HETATM    6  C4  UNL     1      29.175 -50.173  39.835  1.00  0.00     0.082 C 
BRANCH   6   7
HETATM    7  C2  UNL     1      29.528 -50.039  41.261  1.00  0.00    -0.016 C 
HETATM    8  C1  UNL     1      30.978 -49.838  41.568  1.00  0.00     0.010 C 
HETATM    9  C3  UNL     1      29.122 -51.338  41.966  1.00  0.00     0.010 C 
ENDBRANCH   6   7
ENDBRANCH   5   6
BRANCH   5  10
HETATM   10  C25 UNL     1      30.114 -48.658  38.071  1.00  0.00     0.291 C 
HETATM   11  N5  UNL     1      30.987 -49.638  37.560  1.00  0.00    -0.055 NA
HETATM   12  O4  UNL     1      30.256 -47.450  37.719  1.00  0.00    -0.269 OA
ENDBRANCH   5  10
ENDBRANCH   3   5
ENDBRANCH   1   2
BRANCH   1  13
HETATM   13  N2  UNL     1      28.272 -44.678  41.438  1.00  0.00    -0.344 N 
HETATM   14  C8  UNL     1      29.002 -43.527  41.746  1.00  0.00     0.222 C 
HETATM   15  O2  UNL     1      30.193 -43.487  42.189  1.00  0.00    -0.273 OA
ATOM     16  H2  UNL     1      27.320 -44.515  41.108  1.00  0.00     0.163 HD
BRANCH  14  17
HETATM   17  C9  UNL     1      28.418 -42.148  41.558  1.00  0.00     0.081 C 
HETATM   18  C10 UNL     1      26.996 -42.285  42.121  1.00  0.00     0.020 C 
BRANCH  17  19
HETATM   19  C11 UNL     1      29.157 -41.129  42.397  1.00  0.00     0.098 C 
BRANCH  19  20
HETATM   20  C12 UNL     1      29.967 -40.276  41.487  1.00  0.00     0.172 C 
HETATM   21  O3  UNL     1      30.214 -40.717  40.312  1.00  0.00    -0.291 OA
BRANCH  20  22
HETATM   22  C13 UNL     1      30.492 -38.938  41.886  1.00  0.00     0.051 C 
HETATM   23  N3  UNL     1      30.220 -38.859  43.181  1.00  0.00    -0.390 N 
HETATM   24  C14 UNL     1      30.496 -37.782  44.101  1.00  0.00     0.119 C 
ATOM     25  H3  UNL     1      29.751 -39.670  43.582  1.00  0.00     0.159 HD
HETATM   26  C15 UNL     1      29.713 -36.519  44.058  1.00  0.00     0.020 C 
HETATM   27  C16 UNL     1      30.132 -35.537  42.922  1.00  0.00     0.002 C 
HETATM   28  C17 UNL     1      30.521 -36.386  41.870  1.00  0.00     0.000 C 
HETATM   29  C18 UNL     1      30.955 -36.765  40.598  1.00  0.00     0.006 C 
HETATM   30  C19 UNL     1      31.074 -38.319  40.705  1.00  0.00     0.061 C 
ENDBRANCH  20  22
ENDBRANCH  19  20
ENDBRANCH  17  19
ENDBRANCH  14  17
ENDBRANCH   1  13
BRANCH   1  31
HETATM   31  C20 UNL     1      28.080 -46.747  42.733  1.00  0.00     0.216 C 
BRANCH  31  32
HETATM   32  N4  UNL     1      26.834 -46.040  43.012  1.00  0.00    -0.073 N 
ATOM     33  H43 UNL     1      26.762 -45.684  43.964  1.00  0.00     0.274 HD
ATOM     34  H42 UNL     1      26.755 -45.137  42.545  1.00  0.00     0.274 HD
ATOM     35  H41 UNL     1      26.100 -46.703  42.760  1.00  0.00     0.274 HD
ENDBRANCH  31  32
BRANCH  31  36
HETATM   36  C21 UNL     1      28.935 -46.674  43.955  1.00  0.00     0.039 C 
BRANCH  36  37
HETATM   37  C22 UNL     1      29.392 -48.014  44.443  1.00  0.00    -0.021 C 
HETATM   38  C23 UNL     1      30.163 -47.781  45.749  1.00  0.00     0.009 C 
HETATM   39  C24 UNL     1      28.301 -48.976  44.781  1.00  0.00     0.009 C 
ENDBRANCH  36  37
ENDBRANCH  31  36
ENDBRANCH   1  31
TORSDOF 14
ENDMDL
MODEL 2
REMARK VINA RESULT: -8.915492777      1.946      2.564
REMARK  14 active torsions:
REMARK  status: ('A' for Active; 'I' for Inactive)
REMARK    1  A    between atoms: C2_2  and  C4_4 
REMARK    2  A    between atoms: C4_4  and  C5_5 
REMARK    3  A    between atoms: C5_5  and  N1_6 
REMARK    4  A    between atoms: C5_5  and  C25_37 
REMARK       I    between atoms: N1_6  and  C6_7 
REMARK    5  A    between atoms: C6_7  and  C7_9 
REMARK    6  A    between atoms: C7_9  and  N2_10 
REMARK    7  A    between atoms: C7_9  and  C20_28 
REMARK       I    between atoms: N2_10  and  C8_12 
REMARK    8  A    between atoms: C8_12  and  C9_14 
REMARK    9  A    between atoms: C9_14  and  C11_16 
REMARK   10  A    between atoms: C11_16  and  C12_17 
REMARK   11  A    between atoms: C12_17  and  C13_19 
REMARK   12  A    between atoms: C20_28  and  N4_29 
REMARK   13  A    between atoms: C20_28  and  C21_33 
REMARK   14  A    between atoms: C21_33  and  C22_34 
ROOT
HETATM    1  C7  UNL     1      28.147 -46.057  41.325  1.00  0.00     0.222 C 
ENDROOT
BRANCH   1   2
HETATM    2  C6  UNL     1      27.014 -46.653  40.473  1.00  0.00     0.317 C 
HETATM    3  N1  UNL     1      26.389 -47.788  40.714  1.00  0.00    -0.368 NA
HETATM    4  O1  UNL     1      26.781 -45.852  39.493  1.00  0.00    -0.255 OA
BRANCH   3   5
HETATM    5  C5  UNL     1      25.716 -48.999  40.961  1.00  0.00     0.153 C 
BRANCH   5   6
HETATM    6  C4  UNL     1      25.007 -49.133  42.261  1.00  0.00     0.082 C 
BRANCH   6   7
HETATM    7  C2  UNL     1      25.754 -49.661  43.418  1.00  0.00    -0.016 C 
HETATM    8  C1  UNL     1      25.379 -51.034  43.878  1.00  0.00     0.010 C 
HETATM    9  C3  UNL     1      25.492 -48.730  44.607  1.00  0.00     0.010 C 
ENDBRANCH   6   7
ENDBRANCH   5   6
BRANCH   5  10
HETATM   10  C25 UNL     1      26.464 -50.228  40.537  1.00  0.00     0.291 C 
HETATM   11  N5  UNL     1      25.855 -51.452  40.197  1.00  0.00    -0.055 NA
HETATM   12  O4  UNL     1      27.725 -50.123  40.494  1.00  0.00    -0.269 OA
ENDBRANCH   5  10
ENDBRANCH   3   5
ENDBRANCH   1   2
BRANCH   1  13
HETATM   13  N2  UNL     1      27.912 -44.661  41.372  1.00  0.00    -0.344 N 
HETATM   14  C8  UNL     1      28.807 -43.617  41.621  1.00  0.00     0.222 C 
HETATM   15  O2  UNL     1      30.046 -43.734  41.880  1.00  0.00    -0.273 OA
ATOM     16  H2  UNL     1      26.948 -44.376  41.198  1.00  0.00     0.163 HD
BRANCH  14  17
HETATM   17  C9  UNL     1      28.366 -42.175  41.589  1.00  0.00     0.081 C 
HETATM   18  C10 UNL     1      26.994 -42.208  42.279  1.00  0.00     0.020 C 
BRANCH  17  19
HETATM   19  C11 UNL     1      29.287 -41.310  42.421  1.00  0.00     0.098 C 
BRANCH  19  20
HETATM   20  C12 UNL     1      30.043 -40.417  41.503  1.00  0.00     0.172 C 
HETATM   21  O3  UNL     1      30.246 -40.820  40.307  1.00  0.00    -0.291 OA
BRANCH  20  22
HETATM   22  C13 UNL     1      30.561 -39.081  41.919  1.00  0.00     0.051 C 
HETATM   23  N3  UNL     1      30.359 -39.050  43.228  1.00  0.00    -0.390 N 
HETATM   24  C14 UNL     1      30.663 -37.998  44.168  1.00  0.00     0.119 C 
ATOM     25  H3  UNL     1      29.930 -39.885  43.626  1.00  0.00     0.159 HD
HETATM   26  C15 UNL     1      29.852 -36.752  44.210  1.00  0.00     0.020 C 
HETATM   27  C16 UNL     1      30.188 -35.724  43.087  1.00  0.00     0.002 C 
HETATM   28  C17 UNL     1      30.535 -36.529  41.987  1.00  0.00     0.000 C 
HETATM   29  C18 UNL     1      30.906 -36.857  40.682  1.00  0.00     0.006 C 
HETATM   30  C19 UNL     1      31.063 -38.411  40.729  1.00  0.00     0.061 C 
ENDBRANCH  20  22
ENDBRANCH  19  20
ENDBRANCH  17  19
ENDBRANCH  14  17
ENDBRANCH   1  13
BRANCH   1  31
HETATM   31  C20 UNL     1      28.006 -46.724  42.687  1.00  0.00     0.216 C 
BRANCH  31  32
HETATM   32  N4  UNL     1      27.042 -45.896  43.405  1.00  0.00    -0.073 N 
ATOM     33  H43 UNL     1      26.133 -46.338  43.537  1.00  0.00     0.274 HD
ATOM     34  H42 UNL     1      27.255 -45.773  44.395  1.00  0.00     0.274 HD
ATOM     35  H41 UNL     1      27.007 -45.025  42.876  1.00  0.00     0.274 HD
ENDBRANCH  31  32
BRANCH  31  36
HETATM   36  C21 UNL     1      29.267 -46.763  43.488  1.00  0.00     0.039 C 
BRANCH  36  37
HETATM   37  C22 UNL     1      29.196 -47.687  44.664  1.00  0.00    -0.021 C 
HETATM   38  C23 UNL     1      29.294 -49.118  44.121  1.00  0.00     0.009 C 
HETATM   39  C24 UNL     1      30.309 -47.550  45.651  1.00  0.00     0.009 C 
ENDBRANCH  36  37
ENDBRANCH  31  36
ENDBRANCH   1  31
TORSDOF 14
ENDMDL
MODEL 3
REMARK VINA RESULT: -8.887741606      0.902      1.168
REMARK  14 active torsions:
REMARK  status: ('A' for Active; 'I' for Inactive)
REMARK    1  A    between atoms: C2_2  and  C4_4 
REMARK    2  A    between atoms: C4_4  and  C5_5 
REMARK    3  A    between atoms: C5_5  and  N1_6 
REMARK    4  A    between atoms: C5_5  and  C25_37 
REMARK       I    between atoms: N1_6  and  C6_7 
REMARK    5  A    between atoms: C6_7  and  C7_9 
REMARK    6  A    between atoms: C7_9  and  N2_10 
REMARK    7  A    between atoms: C7_9  and  C20_28 
REMARK       I    between atoms: N2_10  and  C8_12 
REMARK    8  A    between atoms: C8_12  and  C9_14 
REMARK    9  A    between atoms: C9_14  and  C11_16 
REMARK   10  A    between atoms: C11_16  and  C12_17 
REMARK   11  A    between atoms: C12_17  and  C13_19 
REMARK   12  A    between atoms: C20_28  and  N4_29 
REMARK   13  A    between atoms: C20_28  and  C21_33 
REMARK   14  A    between atoms: C21_33  and  C22_34 
ROOT
HETATM    1  C7  UNL     1      28.579 -46.011  41.442  1.00  0.00     0.222 C 
ENDROOT
BRANCH   1   2
HETATM    2  C6  UNL     1      27.897 -46.677  40.236  1.00  0.00     0.317 C 
HETATM    3  N1  UNL     1      28.314 -47.767  39.624  1.00  0.00    -0.368 NA
HETATM    4  O1  UNL     1      26.851 -45.991  39.933  1.00  0.00    -0.255 OA
BRANCH   3   5
HETATM    5  C5  UNL     1      28.752 -48.931  38.963  1.00  0.00     0.153 C 
BRANCH   5   6
HETATM    6  C4  UNL     1      28.550 -50.228  39.660  1.00  0.00     0.082 C 
BRANCH   6   7
HETATM    7  C2  UNL     1      27.729 -50.248  40.886  1.00  0.00    -0.016 C 
HETATM    8  C1  UNL     1      28.137 -51.226  41.940  1.00  0.00     0.010 C 
HETATM    9  C3  UNL     1      26.300 -50.631  40.483  1.00  0.00     0.010 C 
ENDBRANCH   6   7
ENDBRANCH   5   6
BRANCH   5  10
HETATM   10  C25 UNL     1      30.079 -48.798  38.278  1.00  0.00     0.291 C 
HETATM   11  N5  UNL     1      30.564 -47.605  37.706  1.00  0.00    -0.055 NA
HETATM   12  O4  UNL     1      30.785 -49.848  38.226  1.00  0.00    -0.269 OA
ENDBRANCH   5  10
ENDBRANCH   3   5
ENDBRANCH   1   2
BRANCH   1  13
HETATM   13  N2  UNL     1      28.216 -44.643  41.395  1.00  0.00    -0.344 N 
HETATM   14  C8  UNL     1      28.967 -43.512  41.724  1.00  0.00     0.222 C 
HETATM   15  O2  UNL     1      30.161 -43.502  42.162  1.00  0.00    -0.273 OA
ATOM     16  H2  UNL     1      27.265 -44.456  41.074  1.00  0.00     0.163 HD
BRANCH  14  17
HETATM   17  C9  UNL     1      28.407 -42.120  41.568  1.00  0.00     0.081 C 
HETATM   18  C10 UNL     1      26.993 -42.238  42.156  1.00  0.00     0.020 C 
BRANCH  17  19
HETATM   19  C11 UNL     1      29.181 -41.128  42.408  1.00  0.00     0.098 C 
BRANCH  19  20
HETATM   20  C12 UNL     1      29.986 -40.273  41.496  1.00  0.00     0.172 C 
HETATM   21  O3  UNL     1      30.229 -40.712  40.320  1.00  0.00    -0.291 OA
BRANCH  20  22
HETATM   22  C13 UNL     1      30.511 -38.935  41.895  1.00  0.00     0.051 C 
HETATM   23  N3  UNL     1      30.225 -38.848  43.186  1.00  0.00    -0.390 N 
HETATM   24  C14 UNL     1      30.494 -37.768  44.104  1.00  0.00     0.119 C 
ATOM     25  H3  UNL     1      29.750 -39.656  43.586  1.00  0.00     0.159 HD
HETATM   26  C15 UNL     1      29.715 -36.503  44.046  1.00  0.00     0.020 C 
HETATM   27  C16 UNL     1      30.149 -35.527  42.911  1.00  0.00     0.002 C 
HETATM   28  C17 UNL     1      30.546 -36.382  41.867  1.00  0.00     0.000 C 
HETATM   29  C18 UNL     1      30.993 -36.769  40.601  1.00  0.00     0.006 C 
HETATM   30  C19 UNL     1      31.106 -38.323  40.716  1.00  0.00     0.061 C 
ENDBRANCH  20  22
ENDBRANCH  19  20
ENDBRANCH  17  19
ENDBRANCH  14  17
ENDBRANCH   1  13
BRANCH   1  31
HETATM   31  C20 UNL     1      28.014 -46.730  42.660  1.00  0.00     0.216 C 
BRANCH  31  32
HETATM   32  N4  UNL     1      26.830 -45.959  43.025  1.00  0.00    -0.073 N 
ATOM     33  H43 UNL     1      27.036 -45.093  43.523  1.00  0.00     0.274 HD
ATOM     34  H42 UNL     1      26.355 -45.525  42.233  1.00  0.00     0.274 HD
ATOM     35  H41 UNL     1      26.249 -46.612  43.551  1.00  0.00     0.274 HD
ENDBRANCH  31  32
BRANCH  31  36
HETATM   36  C21 UNL     1      28.929 -46.758  43.840  1.00  0.00     0.039 C 
BRANCH  36  37
HETATM   37  C22 UNL     1      29.364 -48.138  44.222  1.00  0.00    -0.021 C 
HETATM   38  C23 UNL     1      30.481 -48.545  43.252  1.00  0.00     0.009 C 
HETATM   39  C24 UNL     1      29.948 -48.267  45.592  1.00  0.00     0.009 C 
ENDBRANCH  36  37
ENDBRANCH  31  36
ENDBRANCH   1  31
TORSDOF 14
ENDMDL
MODEL 4
REMARK VINA RESULT: -8.774531195      1.170      1.772
REMARK  14 active torsions:
REMARK  status: ('A' for Active; 'I' for Inactive)
REMARK    1  A    between atoms: C2_2  and  C4_4 
REMARK    2  A    between atoms: C4_4  and  C5_5 
REMARK    3  A    between atoms: C5_5  and  N1_6 
REMARK    4  A    between atoms: C5_5  and  C25_37 
REMARK       I    between atoms: N1_6  and  C6_7 
REMARK    5  A    between atoms: C6_7  and  C7_9 
REMARK    6  A    between atoms: C7_9  and  N2_10 
REMARK    7  A    between atoms: C7_9  and  C20_28 
REMARK       I    between atoms: N2_10  and  C8_12 
REMARK    8  A    between atoms: C8_12  and  C9_14 
REMARK    9  A    between atoms: C9_14  and  C11_16 
REMARK   10  A    between atoms: C11_16  and  C12_17 
REMARK   11  A    between atoms: C12_17  and  C13_19 
REMARK   12  A    between atoms: C20_28  and  N4_29 
REMARK   13  A    between atoms: C20_28  and  C21_33 
REMARK   14  A    between atoms: C21_33  and  C22_34 
ROOT
HETATM    1  C7  UNL     1      28.155 -46.242  41.504  1.00  0.00     0.222 C 
ENDROOT
BRANCH   1   2
HETATM    2  C6  UNL     1      27.776 -46.821  40.132  1.00  0.00     0.317 C 
HETATM    3  N1  UNL     1      28.339 -47.865  39.557  1.00  0.00    -0.368 NA
HETATM    4  O1  UNL     1      26.815 -46.115  39.646  1.00  0.00    -0.255 OA
BRANCH   3   5
HETATM    5  C5  UNL     1      28.934 -48.979  38.935  1.00  0.00     0.153 C 
BRANCH   5   6
HETATM    6  C4  UNL     1      29.102 -50.209  39.753  1.00  0.00     0.082 C 
BRANCH   6   7
HETATM    7  C2  UNL     1      29.439 -50.062  41.182  1.00  0.00    -0.016 C 
HETATM    8  C1  UNL     1      30.892 -49.933  41.510  1.00  0.00     0.010 C 
HETATM    9  C3  UNL     1      28.952 -51.322  41.907  1.00  0.00     0.010 C 
ENDBRANCH   6   7
ENDBRANCH   5   6
BRANCH   5  10
HETATM   10  C25 UNL     1      30.108 -48.654  38.061  1.00  0.00     0.291 C 
HETATM   11  N5  UNL     1      31.009 -49.609  37.550  1.00  0.00    -0.055 NA
HETATM   12  O4  UNL     1      30.273 -47.429  37.786  1.00  0.00    -0.269 OA
ENDBRANCH   5  10
ENDBRANCH   3   5
ENDBRANCH   1   2
BRANCH   1  13
HETATM   13  N2  UNL     1      28.192 -44.836  41.342  1.00  0.00    -0.344 N 
HETATM   14  C8  UNL     1      29.196 -43.927  41.688  1.00  0.00     0.222 C 
HETATM   15  O2  UNL     1      30.300 -44.205  42.253  1.00  0.00    -0.273 OA
ATOM     16  H2  UNL     1      27.364 -44.425  40.909  1.00  0.00     0.163 HD
BRANCH  14  17
HETATM   17  C9  UNL     1      29.062 -42.453  41.395  1.00  0.00     0.081 C 
HETATM   18  C10 UNL     1      27.708 -42.089  42.022  1.00  0.00     0.020 C 
BRANCH  17  19
HETATM   19  C11 UNL     1      30.135 -41.660  42.108  1.00  0.00     0.098 C 
BRANCH  19  20
HETATM   20  C12 UNL     1      30.155 -40.287  41.539  1.00  0.00     0.172 C 
HETATM   21  O3  UNL     1      30.330 -40.162  40.279  1.00  0.00    -0.291 OA
BRANCH  20  22
HETATM   22  C13 UNL     1      29.973 -39.063  42.372  1.00  0.00     0.051 C 
HETATM   23  N3  UNL     1      29.511 -38.159  41.520  1.00  0.00    -0.390 N 
HETATM   24  C14 UNL     1      29.155 -36.782  41.764  1.00  0.00     0.119 C 
ATOM     25  H3  UNL     1      29.391 -38.480  40.561  1.00  0.00     0.159 HD
HETATM   26  C15 UNL     1      30.201 -35.750  41.990  1.00  0.00     0.020 C 
HETATM   27  C16 UNL     1      30.813 -35.752  43.424  1.00  0.00     0.002 C 
HETATM   28  C17 UNL     1      30.800 -37.110  43.792  1.00  0.00     0.000 C 
HETATM   29  C18 UNL     1      31.026 -38.249  44.568  1.00  0.00     0.006 C 
HETATM   30  C19 UNL     1      30.364 -39.392  43.735  1.00  0.00     0.061 C 
ENDBRANCH  20  22
ENDBRANCH  19  20
ENDBRANCH  17  19
ENDBRANCH  14  17
ENDBRANCH   1  13
BRANCH   1  31
HETATM   31  C20 UNL     1      27.047 -46.698  42.443  1.00  0.00     0.216 C 
BRANCH  31  32
HETATM   32  N4  UNL     1      26.662 -45.493  43.171  1.00  0.00    -0.073 N 
ATOM     33  H43 UNL     1      26.633 -44.652  42.595  1.00  0.00     0.274 HD
ATOM     34  H42 UNL     1      25.681 -45.473  43.453  1.00  0.00     0.274 HD
ATOM     35  H41 UNL     1      27.319 -45.442  43.950  1.00  0.00     0.274 HD
ENDBRANCH  31  32
BRANCH  31  36
HETATM   36  C21 UNL     1      27.468 -47.726  43.442  1.00  0.00     0.039 C 
BRANCH  36  37
HETATM   37  C22 UNL     1      26.557 -48.912  43.496  1.00  0.00    -0.021 C 
HETATM   38  C23 UNL     1      25.542 -48.652  44.616  1.00  0.00     0.009 C 
HETATM   39  C24 UNL     1      25.749 -49.153  42.262  1.00  0.00     0.009 C 
ENDBRANCH  36  37
ENDBRANCH  31  36
ENDBRANCH   1  31
TORSDOF 14
ENDMDL
MODEL 5
REMARK VINA RESULT: -8.756498931      1.461      2.166
REMARK  14 active torsions:
REMARK  status: ('A' for Active; 'I' for Inactive)
REMARK    1  A    between atoms: C2_2  and  C4_4 
REMARK    2  A    between atoms: C4_4  and  C5_5 
REMARK    3  A    between atoms: C5_5  and  N1_6 
REMARK    4  A    between atoms: C5_5  and  C25_37 
REMARK       I    between atoms: N1_6  and  C6_7 
REMARK    5  A    between atoms: C6_7  and  C7_9 
REMARK    6  A    between atoms: C7_9  and  N2_10 
REMARK    7  A    between atoms: C7_9  and  C20_28 
REMARK       I    between atoms: N2_10  and  C8_12 
REMARK    8  A    between atoms: C8_12  and  C9_14 
REMARK    9  A    between atoms: C9_14  and  C11_16 
REMARK   10  A    between atoms: C11_16  and  C12_17 
REMARK   11  A    between atoms: C12_17  and  C13_19 
REMARK   12  A    between atoms: C20_28  and  N4_29 
REMARK   13  A    between atoms: C20_28  and  C21_33 
REMARK   14  A    between atoms: C21_33  and  C22_34 
ROOT
HETATM    1  C7  UNL     1      29.093 -45.904  42.209  1.00  0.00     0.222 C 
ENDROOT
BRANCH   1   2
HETATM    2  C6  UNL     1      29.447 -46.566  40.867  1.00  0.00     0.317 C 
HETATM    3  N1  UNL     1      28.866 -47.635  40.362  1.00  0.00    -0.368 NA
HETATM    4  O1  UNL     1      30.401 -45.894  40.324  1.00  0.00    -0.255 OA
BRANCH   3   5
HETATM    5  C5  UNL     1      28.252 -48.778  39.815  1.00  0.00     0.153 C 
BRANCH   5   6
HETATM    6  C4  UNL     1      28.710 -49.222  38.472  1.00  0.00     0.082 C 
BRANCH   6   7
HETATM    7  C2  UNL     1      30.161 -49.292  38.212  1.00  0.00    -0.016 C 
HETATM    8  C1  UNL     1      30.742 -48.182  37.396  1.00  0.00     0.010 C 
HETATM    9  C3  UNL     1      30.432 -50.581  37.428  1.00  0.00     0.010 C 
ENDBRANCH   6   7
ENDBRANCH   5   6
BRANCH   5  10
HETATM   10  C25 UNL     1      26.766 -48.844  40.012  1.00  0.00     0.291 C 
HETATM   11  N5  UNL     1      25.950 -47.730  40.291  1.00  0.00    -0.055 NA
HETATM   12  O4  UNL     1      26.244 -49.994  39.917  1.00  0.00    -0.269 OA
ENDBRANCH   5  10
ENDBRANCH   3   5
ENDBRANCH   1   2
BRANCH   1  13
HETATM   13  N2  UNL     1      28.578 -44.624  41.893  1.00  0.00    -0.344 N 
HETATM   14  C8  UNL     1      29.213 -43.379  41.917  1.00  0.00     0.222 C 
HETATM   15  O2  UNL     1      30.416 -43.155  42.259  1.00  0.00    -0.273 OA
ATOM     16  H2  UNL     1      27.599 -44.607  41.605  1.00  0.00     0.163 HD
BRANCH  14  17
HETATM   17  C9  UNL     1      28.495 -42.119  41.503  1.00  0.00     0.081 C 
HETATM   18  C10 UNL     1      27.036 -42.395  41.898  1.00  0.00     0.020 C 
BRANCH  17  19
HETATM   19  C11 UNL     1      28.979 -40.932  42.307  1.00  0.00     0.098 C 
BRANCH  19  20
HETATM   20  C12 UNL     1      29.896 -40.133  41.451  1.00  0.00     0.172 C 
HETATM   21  O3  UNL     1      30.188 -40.591  40.293  1.00  0.00    -0.291 OA
BRANCH  20  22
HETATM   22  C13 UNL     1      30.477 -38.830  41.884  1.00  0.00     0.051 C 
HETATM   23  N3  UNL     1      30.236 -38.786  43.187  1.00  0.00    -0.390 N 
HETATM   24  C14 UNL     1      30.570 -37.753  44.137  1.00  0.00     0.119 C 
ATOM     25  H3  UNL     1      29.746 -39.594  43.570  1.00  0.00     0.159 HD
HETATM   26  C15 UNL     1      29.832 -36.462  44.154  1.00  0.00     0.020 C 
HETATM   27  C16 UNL     1      30.263 -35.456  43.044  1.00  0.00     0.002 C 
HETATM   28  C17 UNL     1      30.598 -36.281  41.955  1.00  0.00     0.000 C 
HETATM   29  C18 UNL     1      30.991 -36.631  40.662  1.00  0.00     0.006 C 
HETATM   30  C19 UNL     1      31.056 -38.190  40.712  1.00  0.00     0.061 C 
ENDBRANCH  20  22
ENDBRANCH  19  20
ENDBRANCH  17  19
ENDBRANCH  14  17
ENDBRANCH   1  13
BRANCH   1  31
HETATM   31  C20 UNL     1      28.051 -46.821  42.836  1.00  0.00     0.216 C 
BRANCH  31  32
HETATM   32  N4  UNL     1      26.869 -45.980  42.995  1.00  0.00    -0.073 N 
ATOM     33  H43 UNL     1      27.060 -45.070  43.414  1.00  0.00     0.274 HD
ATOM     34  H42 UNL     1      26.491 -45.624  42.117  1.00  0.00     0.274 HD
ATOM     35  H41 UNL     1      26.215 -46.554  43.527  1.00  0.00     0.274 HD
ENDBRANCH  31  32
BRANCH  31  36
HETATM   36  C21 UNL     1      28.425 -47.350  44.182  1.00  0.00     0.039 C 
BRANCH  36  37
HETATM   37  C22 UNL     1      29.891 -47.617  44.329  1.00  0.00    -0.021 C 
HETATM   38  C23 UNL     1      30.204 -47.604  45.831  1.00  0.00     0.009 C 
HETATM   39  C24 UNL     1      30.351 -48.948  43.830  1.00  0.00     0.009 C 
ENDBRANCH  36  37
ENDBRANCH  31  36
ENDBRANCH   1  31
TORSDOF 14
ENDMDL
