MODEL 1
REMARK VINA RESULT: -7.180681642      0.000      0.000
REMARK  18 active torsions:
REMARK  status: ('A' for Active; 'I' for Inactive)
REMARK    1  A    between atoms: C2_2  and  C3_3 
REMARK    2  A    between atoms: C3_3  and  N1_4 
REMARK    3  A    between atoms: C3_3  and  C18_30 
REMARK       I    between atoms: N1_4  and  C4_6 
REMARK    4  A    between atoms: C4_6  and  C5_8 
REMARK    5  A    between atoms: C5_8  and  C6_9 
REMARK    6  A    between atoms: C5_8  and  N2_16 
REMARK    7  A    between atoms: C6_9  and  C7_10 
REMARK    8  A    between atoms: N2_16  and  C13_18 
REMARK    9  A    between atoms: C13_18  and  O2_19 
REMARK   10  A    between atoms: C13_18  and  C14_21 
REMARK   11  A    between atoms: C14_21  and  N3_22 
REMARK   12  A    between atoms: C14_21  and  C15_26 
REMARK   13  A    between atoms: C15_26  and  C16_27 
REMARK   14  A    between atoms: C16_27  and  S1_28 
REMARK   15  A    between atoms: C18_30  and  O3_31 
REMARK   16  A    between atoms: C18_30  and  N4_33 
REMARK   17  A    between atoms: C22_37  and  C23_38 
REMARK   18  A    between atoms: C23_38  and  N5_39 
ROOT
HETATM    1  C5  UNL     1      27.992 -46.613  41.501  1.00  0.00     0.171 C 
ENDROOT
BRANCH   1   2
HETATM    2  C4  UNL     1      29.037 -47.207  40.636  1.00  0.00     0.240 C 
HETATM    3  N1  UNL     1      28.993 -48.519  40.149  1.00  0.00    -0.347 N 
ATOM      4  H1  UNL     1      28.204 -49.116  40.392  1.00  0.00     0.163 HD
HETATM    5  O1  UNL     1      30.016 -46.483  40.329  1.00  0.00    -0.271 OA
BRANCH   3   6
HETATM    6  C3  UNL     1      30.063 -49.051  39.296  1.00  0.00     0.158 C 
BRANCH   6   7
HETATM    7  C2  UNL     1      30.468 -50.390  39.764  1.00  0.00     0.029 C 
HETATM    8  C1  UNL     1      29.277 -51.325  39.987  1.00  0.00     0.007 C 
ENDBRANCH   6   7
BRANCH   6   9
HETATM    9  C18 UNL     1      29.558 -48.921  37.918  1.00  0.00     0.137 C 
BRANCH   9  10
HETATM   10  O3  UNL     1      28.764 -47.898  37.732  1.00  0.00    -0.348 OA
ATOM     11  H3  UNL     1      28.132 -47.763  38.428  1.00  0.00     0.219 HD
ENDBRANCH   9  10
BRANCH   9  12
HETATM   12  N4  UNL     1      29.764 -49.683  36.773  1.00  0.00    -0.357 N 
HETATM   13  C19 UNL     1      28.976 -50.714  36.079  1.00  0.00     0.125 C 
HETATM   14  C20 UNL     1      30.000 -51.847  36.139  1.00  0.00     0.022 C 
HETATM   15  C21 UNL     1      31.352 -51.128  35.988  1.00  0.00     0.028 C 
HETATM   16  C22 UNL     1      30.945 -49.676  35.868  1.00  0.00     0.111 C 
BRANCH  16  17
HETATM   17  C23 UNL     1      31.988 -48.698  36.195  1.00  0.00     0.256 C 
BRANCH  17  18
HETATM   18  N5  UNL     1      33.288 -49.393  36.034  1.00  0.00    -0.077 N 
HETATM   19  C24 UNL     1      34.385 -48.455  36.111  1.00  0.00     0.267 C 
ATOM     20  H52 UNL     1      33.394 -50.154  36.704  1.00  0.00     0.276 HD
ATOM     21  H51 UNL     1      33.319 -49.940  35.173  1.00  0.00     0.276 HD
ENDBRANCH  17  18
ENDBRANCH  16  17
ENDBRANCH   9  12
ENDBRANCH   6   9
ENDBRANCH   3   6
ENDBRANCH   1   2
BRANCH   1  22
HETATM   22  C6  UNL     1      27.767 -45.155  41.179  1.00  0.00     0.039 C 
BRANCH  22  23
HETATM   23  C7  UNL     1      28.149 -44.185  42.231  1.00  0.00    -0.012 C 
HETATM   24  C8  UNL     1      29.387 -43.419  41.712  1.00  0.00     0.005 C 
HETATM   25  C9  UNL     1      29.397 -41.992  42.146  1.00  0.00     0.000 C 
HETATM   26  C10 UNL     1      28.285 -41.220  41.505  1.00  0.00     0.000 C 
HETATM   27  C11 UNL     1      27.025 -42.055  41.568  1.00  0.00     0.000 C 
HETATM   28  C12 UNL     1      27.165 -43.151  42.624  1.00  0.00     0.005 C 
ENDBRANCH  22  23
ENDBRANCH   1  22
BRANCH   1  29
HETATM   29  N2  UNL     1      28.165 -46.772  42.894  1.00  0.00    -0.383 N 
ATOM     30  H2  UNL     1      27.465 -46.448  43.560  1.00  0.00     0.156 HD
BRANCH  29  31
HETATM   31  C13 UNL     1      29.361 -47.404  43.319  1.00  0.00     0.244 C 
BRANCH  31  32
HETATM   32  O2  UNL     1      30.367 -46.411  43.377  1.00  0.00    -0.375 OA
ATOM     33  H2  UNL     1      30.980 -46.667  44.056  1.00  0.00     0.212 HD
ENDBRANCH  31  32
BRANCH  31  34
HETATM   34  C14 UNL     1      29.247 -47.919  44.771  1.00  0.00     0.232 C 
BRANCH  34  35
HETATM   35  N3  UNL     1      30.518 -47.547  45.398  1.00  0.00    -0.071 N 
ATOM     36  H33 UNL     1      31.132 -46.998  44.796  1.00  0.00     0.274 HD
ATOM     37  H32 UNL     1      30.428 -46.849  46.136  1.00  0.00     0.274 HD
ATOM     38  H31 UNL     1      30.921 -48.431  45.708  1.00  0.00     0.274 HD
ENDBRANCH  34  35
BRANCH  34  39
HETATM   39  C15 UNL     1      29.173 -49.399  44.674  1.00  0.00     0.047 C 
BRANCH  39  40
HETATM   40  C16 UNL     1      29.725 -50.028  43.447  1.00  0.00     0.075 C 
BRANCH  40  41
HETATM   41  S1  UNL     1      31.380 -50.670  43.549  1.00  0.00    -0.173 SA
HETATM   42  C17 UNL     1      32.604 -49.463  43.046  1.00  0.00     0.089 C 
ENDBRANCH  40  41
ENDBRANCH  39  40
ENDBRANCH  34  39
ENDBRANCH  31  34
ENDBRANCH  29  31
ENDBRANCH   1  29
TORSDOF 18
ENDMDL
MODEL 2
REMARK VINA RESULT: -7.165462338      1.284      1.467
REMARK  18 active torsions:
REMARK  status: ('A' for Active; 'I' for Inactive)
REMARK    1  A    between atoms: C2_2  and  C3_3 
REMARK    2  A    between atoms: C3_3  and  N1_4 
REMARK    3  A    between atoms: C3_3  and  C18_30 
REMARK       I    between atoms: N1_4  and  C4_6 
REMARK    4  A    between atoms: C4_6  and  C5_8 
REMARK    5  A    between atoms: C5_8  and  C6_9 
REMARK    6  A    between atoms: C5_8  and  N2_16 
REMARK    7  A    between atoms: C6_9  and  C7_10 
REMARK    8  A    between atoms: N2_16  and  C13_18 
REMARK    9  A    between atoms: C13_18  and  O2_19 
REMARK   10  A    between atoms: C13_18  and  C14_21 
REMARK   11  A    between atoms: C14_21  and  N3_22 
REMARK   12  A    between atoms: C14_21  and  C15_26 
REMARK   13  A    between atoms: C15_26  and  C16_27 
REMARK   14  A    between atoms: C16_27  and  S1_28 
REMARK   15  A    between atoms: C18_30  and  O3_31 
REMARK   16  A    between atoms: C18_30  and  N4_33 
REMARK   17  A    between atoms: C22_37  and  C23_38 
REMARK   18  A    between atoms: C23_38  and  N5_39 
ROOT
HETATM    1  C5  UNL     1      27.721 -46.523  41.182  1.00  0.00     0.171 C 
ENDROOT
BRANCH   1   2
HETATM    2  C4  UNL     1      28.862 -47.128  40.458  1.00  0.00     0.240 C 
HETATM    3  N1  UNL     1      28.767 -48.289  39.683  1.00  0.00    -0.347 N 
ATOM      4  H1  UNL     1      27.867 -48.761  39.597  1.00  0.00     0.163 HD
HETATM    5  O1  UNL     1      29.976 -46.557  40.554  1.00  0.00    -0.271 OA
BRANCH   3   6
HETATM    6  C3  UNL     1      29.938 -48.841  38.989  1.00  0.00     0.158 C 
BRANCH   6   7
HETATM    7  C2  UNL     1      30.367 -50.095  39.636  1.00  0.00     0.029 C 
HETATM    8  C1  UNL     1      29.203 -51.054  39.899  1.00  0.00     0.007 C 
ENDBRANCH   6   7
BRANCH   6   9
HETATM    9  C18 UNL     1      29.558 -48.887  37.567  1.00  0.00     0.137 C 
BRANCH   9  10
HETATM   10  O3  UNL     1      28.791 -47.899  37.184  1.00  0.00    -0.348 OA
ATOM     11  H3  UNL     1      29.121 -47.417  36.435  1.00  0.00     0.219 HD
ENDBRANCH   9  10
BRANCH   9  12
HETATM   12  N4  UNL     1      29.859 -49.786  36.550  1.00  0.00    -0.357 N 
HETATM   13  C19 UNL     1      29.160 -50.947  35.975  1.00  0.00     0.125 C 
HETATM   14  C20 UNL     1      30.237 -51.999  36.235  1.00  0.00     0.022 C 
HETATM   15  C21 UNL     1      31.556 -51.232  36.043  1.00  0.00     0.028 C 
HETATM   16  C22 UNL     1      31.081 -49.836  35.703  1.00  0.00     0.111 C 
BRANCH  16  17
HETATM   17  C23 UNL     1      32.056 -48.763  35.932  1.00  0.00     0.256 C 
BRANCH  17  18
HETATM   18  N5  UNL     1      33.386 -49.410  36.024  1.00  0.00    -0.077 N 
HETATM   19  C24 UNL     1      34.433 -48.419  36.121  1.00  0.00     0.267 C 
ATOM     20  H52 UNL     1      33.428 -50.080  36.792  1.00  0.00     0.276 HD
ATOM     21  H51 UNL     1      33.547 -50.054  35.249  1.00  0.00     0.276 HD
ENDBRANCH  17  18
ENDBRANCH  16  17
ENDBRANCH   9  12
ENDBRANCH   6   9
ENDBRANCH   3   6
ENDBRANCH   1   2
BRANCH   1  22
HETATM   22  C6  UNL     1      27.646 -45.032  40.958  1.00  0.00     0.039 C 
BRANCH  22  23
HETATM   23  C7  UNL     1      28.077 -44.176  42.087  1.00  0.00    -0.012 C 
HETATM   24  C8  UNL     1      29.375 -43.462  41.644  1.00  0.00     0.005 C 
HETATM   25  C9  UNL     1      29.478 -42.079  42.189  1.00  0.00     0.000 C 
HETATM   26  C10 UNL     1      28.434 -41.181  41.597  1.00  0.00     0.000 C 
HETATM   27  C11 UNL     1      27.118 -41.926  41.579  1.00  0.00     0.000 C 
HETATM   28  C12 UNL     1      27.162 -43.108  42.547  1.00  0.00     0.005 C 
ENDBRANCH  22  23
ENDBRANCH   1  22
BRANCH   1  29
HETATM   29  N2  UNL     1      27.636 -46.801  42.565  1.00  0.00    -0.383 N 
ATOM     30  H2  UNL     1      28.266 -46.365  43.238  1.00  0.00     0.156 HD
BRANCH  29  31
HETATM   31  C13 UNL     1      26.632 -47.717  42.971  1.00  0.00     0.244 C 
BRANCH  31  32
HETATM   32  O2  UNL     1      25.788 -47.938  41.858  1.00  0.00    -0.375 OA
ATOM     33  H2  UNL     1      24.995 -48.350  42.181  1.00  0.00     0.212 HD
ENDBRANCH  31  32
BRANCH  31  34
HETATM   34  C14 UNL     1      27.226 -49.108  43.286  1.00  0.00     0.232 C 
BRANCH  34  35
HETATM   35  N3  UNL     1      26.389 -49.630  44.369  1.00  0.00    -0.071 N 
ATOM     36  H33 UNL     1      26.911 -50.113  45.101  1.00  0.00     0.274 HD
ATOM     37  H32 UNL     1      25.990 -48.910  44.971  1.00  0.00     0.274 HD
ATOM     38  H31 UNL     1      25.695 -50.212  43.901  1.00  0.00     0.274 HD
ENDBRANCH  34  35
BRANCH  34  39
HETATM   39  C15 UNL     1      28.592 -48.859  43.808  1.00  0.00     0.047 C 
BRANCH  39  40
HETATM   40  C16 UNL     1      29.681 -49.739  43.314  1.00  0.00     0.075 C 
BRANCH  40  41
HETATM   41  S1  UNL     1      31.276 -48.990  43.080  1.00  0.00    -0.173 SA
HETATM   42  C17 UNL     1      32.581 -50.210  42.941  1.00  0.00     0.089 C 
ENDBRANCH  40  41
ENDBRANCH  39  40
ENDBRANCH  34  39
ENDBRANCH  31  34
ENDBRANCH  29  31
ENDBRANCH   1  29
TORSDOF 18
ENDMDL
MODEL 3
REMARK VINA RESULT: -6.997496300      1.905      2.520
REMARK  18 active torsions:
REMARK  status: ('A' for Active; 'I' for Inactive)
REMARK    1  A    between atoms: C2_2  and  C3_3 
REMARK    2  A    between atoms: C3_3  and  N1_4 
REMARK    3  A    between atoms: C3_3  and  C18_30 
REMARK       I    between atoms: N1_4  and  C4_6 
REMARK    4  A    between atoms: C4_6  and  C5_8 
REMARK    5  A    between atoms: C5_8  and  C6_9 
REMARK    6  A    between atoms: C5_8  and  N2_16 
REMARK    7  A    between atoms: C6_9  and  C7_10 
REMARK    8  A    between atoms: N2_16  and  C13_18 
REMARK    9  A    between atoms: C13_18  and  O2_19 
REMARK   10  A    between atoms: C13_18  and  C14_21 
REMARK   11  A    between atoms: C14_21  and  N3_22 
REMARK   12  A    between atoms: C14_21  and  C15_26 
REMARK   13  A    between atoms: C15_26  and  C16_27 
REMARK   14  A    between atoms: C16_27  and  S1_28 
REMARK   15  A    between atoms: C18_30  and  O3_31 
REMARK   16  A    between atoms: C18_30  and  N4_33 
REMARK   17  A    between atoms: C22_37  and  C23_38 
REMARK   18  A    between atoms: C23_38  and  N5_39 
ROOT
HETATM    1  C5  UNL     1      27.605 -46.750  41.319  1.00  0.00     0.171 C 
ENDROOT
BRANCH   1   2
HETATM    2  C4  UNL     1      28.875 -47.404  40.928  1.00  0.00     0.240 C 
HETATM    3  N1  UNL     1      29.222 -48.711  41.288  1.00  0.00    -0.347 N 
ATOM      4  H1  UNL     1      28.576 -49.263  41.852  1.00  0.00     0.163 HD
HETATM    5  O1  UNL     1      29.681 -46.736  40.235  1.00  0.00    -0.271 OA
BRANCH   3   6
HETATM    6  C3  UNL     1      30.499 -49.304  40.871  1.00  0.00     0.158 C 
BRANCH   6   7
HETATM    7  C2  UNL     1      31.126 -50.009  42.004  1.00  0.00     0.029 C 
HETATM    8  C1  UNL     1      32.161 -49.151  42.736  1.00  0.00     0.007 C 
ENDBRANCH   6   7
BRANCH   6   9
HETATM    9  C18 UNL     1      30.187 -50.078  39.658  1.00  0.00     0.137 C 
BRANCH   9  10
HETATM   10  O3  UNL     1      30.892 -51.173  39.525  1.00  0.00    -0.348 OA
ATOM     11  H3  UNL     1      31.791 -51.027  39.253  1.00  0.00     0.219 HD
ENDBRANCH   9  10
BRANCH   9  12
HETATM   12  N4  UNL     1      29.284 -49.867  38.622  1.00  0.00    -0.357 N 
HETATM   13  C19 UNL     1      27.911 -50.327  38.357  1.00  0.00     0.125 C 
HETATM   14  C20 UNL     1      28.169 -51.019  37.019  1.00  0.00     0.022 C 
HETATM   15  C21 UNL     1      29.245 -50.144  36.353  1.00  0.00     0.028 C 
HETATM   16  C22 UNL     1      29.479 -49.063  37.386  1.00  0.00     0.111 C 
BRANCH  16  17
HETATM   17  C23 UNL     1      30.763 -48.359  37.283  1.00  0.00     0.256 C 
BRANCH  17  18
HETATM   18  N5  UNL     1      31.247 -48.558  35.896  1.00  0.00    -0.077 N 
HETATM   19  C24 UNL     1      32.671 -48.806  35.881  1.00  0.00     0.267 C 
ATOM     20  H52 UNL     1      30.731 -49.296  35.418  1.00  0.00     0.276 HD
ATOM     21  H51 UNL     1      30.993 -47.777  35.292  1.00  0.00     0.276 HD
ENDBRANCH  17  18
ENDBRANCH  16  17
ENDBRANCH   9  12
ENDBRANCH   6   9
ENDBRANCH   3   6
ENDBRANCH   1   2
BRANCH   1  22
HETATM   22  C6  UNL     1      27.631 -45.268  41.029  1.00  0.00     0.039 C 
BRANCH  22  23
HETATM   23  C7  UNL     1      28.092 -44.392  42.131  1.00  0.00    -0.012 C 
HETATM   24  C8  UNL     1      29.345 -43.645  41.622  1.00  0.00     0.005 C 
HETATM   25  C9  UNL     1      29.434 -42.255  42.154  1.00  0.00     0.000 C 
HETATM   26  C10 UNL     1      28.338 -41.392  41.608  1.00  0.00     0.000 C 
HETATM   27  C11 UNL     1      27.045 -42.174  41.658  1.00  0.00     0.000 C 
HETATM   28  C12 UNL     1      27.169 -43.348  42.630  1.00  0.00     0.005 C 
ENDBRANCH  22  23
ENDBRANCH   1  22
BRANCH   1  29
HETATM   29  N2  UNL     1      27.168 -46.968  42.644  1.00  0.00    -0.383 N 
ATOM     30  H2  UNL     1      27.659 -46.566  43.442  1.00  0.00     0.156 HD
BRANCH  29  31
HETATM   31  C13 UNL     1      26.013 -47.775  42.809  1.00  0.00     0.244 C 
BRANCH  31  32
HETATM   32  O2  UNL     1      25.562 -48.137  41.518  1.00  0.00    -0.375 OA
ATOM     33  H2  UNL     1      24.686 -47.783  41.414  1.00  0.00     0.212 HD
ENDBRANCH  31  32
BRANCH  31  34
HETATM   34  C14 UNL     1      26.352 -49.121  43.488  1.00  0.00     0.232 C 
BRANCH  34  35
HETATM   35  N3  UNL     1      25.131 -49.489  44.209  1.00  0.00    -0.071 N 
ATOM     36  H33 UNL     1      25.094 -50.470  44.488  1.00  0.00     0.274 HD
ATOM     37  H32 UNL     1      25.071 -49.101  45.150  1.00  0.00     0.274 HD
ATOM     38  H31 UNL     1      24.371 -49.203  43.592  1.00  0.00     0.274 HD
ENDBRANCH  34  35
BRANCH  34  39
HETATM   39  C15 UNL     1      27.422 -48.821  44.473  1.00  0.00     0.047 C 
BRANCH  39  40
HETATM   40  C16 UNL     1      28.435 -49.879  44.719  1.00  0.00     0.075 C 
BRANCH  40  41
HETATM   41  S1  UNL     1      29.818 -49.443  45.749  1.00  0.00    -0.173 SA
HETATM   42  C17 UNL     1      30.208 -47.698  45.651  1.00  0.00     0.089 C 
ENDBRANCH  40  41
ENDBRANCH  39  40
ENDBRANCH  34  39
ENDBRANCH  31  34
ENDBRANCH  29  31
ENDBRANCH   1  29
TORSDOF 18
ENDMDL
MODEL 4
REMARK VINA RESULT: -6.960330963      0.905      1.093
REMARK  18 active torsions:
REMARK  status: ('A' for Active; 'I' for Inactive)
REMARK    1  A    between atoms: C2_2  and  C3_3 
REMARK    2  A    between atoms: C3_3  and  N1_4 
REMARK    3  A    between atoms: C3_3  and  C18_30 
REMARK       I    between atoms: N1_4  and  C4_6 
REMARK    4  A    between atoms: C4_6  and  C5_8 
REMARK    5  A    between atoms: C5_8  and  C6_9 
REMARK    6  A    between atoms: C5_8  and  N2_16 
REMARK    7  A    between atoms: C6_9  and  C7_10 
REMARK    8  A    between atoms: N2_16  and  C13_18 
REMARK    9  A    between atoms: C13_18  and  O2_19 
REMARK   10  A    between atoms: C13_18  and  C14_21 
REMARK   11  A    between atoms: C14_21  and  N3_22 
REMARK   12  A    between atoms: C14_21  and  C15_26 
REMARK   13  A    between atoms: C15_26  and  C16_27 
REMARK   14  A    between atoms: C16_27  and  S1_28 
REMARK   15  A    between atoms: C18_30  and  O3_31 
REMARK   16  A    between atoms: C18_30  and  N4_33 
REMARK   17  A    between atoms: C22_37  and  C23_38 
REMARK   18  A    between atoms: C23_38  and  N5_39 
ROOT
HETATM    1  C5  UNL     1      27.941 -46.758  41.419  1.00  0.00     0.171 C 
ENDROOT
BRANCH   1   2
HETATM    2  C4  UNL     1      28.910 -47.361  40.476  1.00  0.00     0.240 C 
HETATM    3  N1  UNL     1      28.776 -48.644  39.933  1.00  0.00    -0.347 N 
ATOM      4  H1  UNL     1      27.969 -49.213  40.189  1.00  0.00     0.163 HD
HETATM    5  O1  UNL     1      29.908 -46.672  40.152  1.00  0.00    -0.271 OA
BRANCH   3   6
HETATM    6  C3  UNL     1      29.773 -49.187  39.003  1.00  0.00     0.158 C 
BRANCH   6   7
HETATM    7  C2  UNL     1      30.220 -50.517  39.456  1.00  0.00     0.029 C 
HETATM    8  C1  UNL     1      29.081 -51.359  40.035  1.00  0.00     0.007 C 
ENDBRANCH   6   7
BRANCH   6   9
HETATM    9  C18 UNL     1      29.157 -49.079  37.669  1.00  0.00     0.137 C 
BRANCH   9  10
HETATM   10  O3  UNL     1      28.954 -47.849  37.271  1.00  0.00    -0.348 OA
ATOM     11  H3  UNL     1      28.081 -47.520  37.452  1.00  0.00     0.219 HD
ENDBRANCH   9  10
BRANCH   9  12
HETATM   12  N4  UNL     1      28.747 -50.038  36.750  1.00  0.00    -0.357 N 
HETATM   13  C19 UNL     1      27.472 -50.728  36.497  1.00  0.00     0.125 C 
HETATM   14  C20 UNL     1      27.961 -52.163  36.683  1.00  0.00     0.022 C 
HETATM   15  C21 UNL     1      29.394 -52.139  36.124  1.00  0.00     0.028 C 
HETATM   16  C22 UNL     1      29.557 -50.698  35.692  1.00  0.00     0.111 C 
BRANCH  16  17
HETATM   17  C23 UNL     1      30.942 -50.229  35.567  1.00  0.00     0.256 C 
BRANCH  17  18
HETATM   18  N5  UNL     1      31.099 -49.732  34.179  1.00  0.00    -0.077 N 
HETATM   19  C24 UNL     1      32.313 -48.959  34.045  1.00  0.00     0.267 C 
ATOM     20  H52 UNL     1      31.059 -50.492  33.500  1.00  0.00     0.276 HD
ATOM     21  H51 UNL     1      30.281 -49.207  33.871  1.00  0.00     0.276 HD
ENDBRANCH  17  18
ENDBRANCH  16  17
ENDBRANCH   9  12
ENDBRANCH   6   9
ENDBRANCH   3   6
ENDBRANCH   1   2
BRANCH   1  22
HETATM   22  C6  UNL     1      27.722 -45.292  41.132  1.00  0.00     0.039 C 
BRANCH  22  23
HETATM   23  C7  UNL     1      28.132 -44.347  42.196  1.00  0.00    -0.012 C 
HETATM   24  C8  UNL     1      29.361 -43.574  41.665  1.00  0.00     0.005 C 
HETATM   25  C9  UNL     1      29.387 -42.158  42.131  1.00  0.00     0.000 C 
HETATM   26  C10 UNL     1      28.264 -41.368  41.532  1.00  0.00     0.000 C 
HETATM   27  C11 UNL     1      27.003 -42.199  41.605  1.00  0.00     0.000 C 
HETATM   28  C12 UNL     1      27.162 -43.319  42.633  1.00  0.00     0.005 C 
ENDBRANCH  22  23
ENDBRANCH   1  22
BRANCH   1  29
HETATM   29  N2  UNL     1      28.208 -46.939  42.795  1.00  0.00    -0.383 N 
ATOM     30  H2  UNL     1      27.569 -46.599  43.513  1.00  0.00     0.156 HD
BRANCH  29  31
HETATM   31  C13 UNL     1      29.409 -47.618  43.127  1.00  0.00     0.244 C 
BRANCH  31  32
HETATM   32  O2  UNL     1      30.451 -46.661  43.115  1.00  0.00    -0.375 OA
ATOM     33  H2  UNL     1      31.170 -47.019  43.623  1.00  0.00     0.212 HD
ENDBRANCH  31  32
BRANCH  31  34
HETATM   34  C14 UNL     1      29.383 -48.141  44.580  1.00  0.00     0.232 C 
BRANCH  34  35
HETATM   35  N3  UNL     1      30.638 -47.665  45.167  1.00  0.00    -0.071 N 
ATOM     36  H33 UNL     1      30.875 -46.705  44.920  1.00  0.00     0.274 HD
ATOM     37  H32 UNL     1      30.596 -47.516  46.175  1.00  0.00     0.274 HD
ATOM     38  H31 UNL     1      31.334 -48.352  44.877  1.00  0.00     0.274 HD
ENDBRANCH  34  35
BRANCH  34  39
HETATM   39  C15 UNL     1      29.427 -49.621  44.481  1.00  0.00     0.047 C 
BRANCH  39  40
HETATM   40  C16 UNL     1      30.024 -50.203  43.252  1.00  0.00     0.075 C 
BRANCH  40  41
HETATM   41  S1  UNL     1      31.674 -50.852  43.390  1.00  0.00    -0.173 SA
HETATM   42  C17 UNL     1      32.918 -49.584  43.159  1.00  0.00     0.089 C 
ENDBRANCH  40  41
ENDBRANCH  39  40
ENDBRANCH  34  39
ENDBRANCH  31  34
ENDBRANCH  29  31
ENDBRANCH   1  29
TORSDOF 18
ENDMDL
MODEL 5
REMARK VINA RESULT: -6.958145751      2.460      3.436
REMARK  18 active torsions:
REMARK  status: ('A' for Active; 'I' for Inactive)
REMARK    1  A    between atoms: C2_2  and  C3_3 
REMARK    2  A    between atoms: C3_3  and  N1_4 
REMARK    3  A    between atoms: C3_3  and  C18_30 
REMARK       I    between atoms: N1_4  and  C4_6 
REMARK    4  A    between atoms: C4_6  and  C5_8 
REMARK    5  A    between atoms: C5_8  and  C6_9 
REMARK    6  A    between atoms: C5_8  and  N2_16 
REMARK    7  A    between atoms: C6_9  and  C7_10 
REMARK    8  A    between atoms: N2_16  and  C13_18 
REMARK    9  A    between atoms: C13_18  and  O2_19 
REMARK   10  A    between atoms: C13_18  and  C14_21 
REMARK   11  A    between atoms: C14_21  and  N3_22 
REMARK   12  A    between atoms: C14_21  and  C15_26 
REMARK   13  A    between atoms: C15_26  and  C16_27 
REMARK   14  A    between atoms: C16_27  and  S1_28 
REMARK   15  A    between atoms: C18_30  and  O3_31 
REMARK   16  A    between atoms: C18_30  and  N4_33 
REMARK   17  A    between atoms: C22_37  and  C23_38 
REMARK   18  A    between atoms: C23_38  and  N5_39 
ROOT
HETATM    1  C5  UNL     1      28.988 -45.793  42.052  1.00  0.00     0.171 C 
ENDROOT
BRANCH   1   2
HETATM    2  C4  UNL     1      30.010 -46.791  41.664  1.00  0.00     0.240 C 
HETATM    3  N1  UNL     1      29.829 -48.175  41.769  1.00  0.00    -0.347 N 
ATOM      4  H1  UNL     1      28.948 -48.538  42.130  1.00  0.00     0.163 HD
HETATM    5  O1  UNL     1      31.101 -46.359  41.217  1.00  0.00    -0.271 OA
BRANCH   3   6
HETATM    6  C3  UNL     1      30.884 -49.115  41.369  1.00  0.00     0.158 C 
BRANCH   6   7
HETATM    7  C2  UNL     1      31.335 -49.899  42.533  1.00  0.00     0.029 C 
HETATM    8  C1  UNL     1      32.712 -49.467  43.041  1.00  0.00     0.007 C 
ENDBRANCH   6   7
BRANCH   6   9
HETATM    9  C18 UNL     1      30.334 -49.842  40.212  1.00  0.00     0.137 C 
BRANCH   9  10
HETATM   10  O3  UNL     1      30.928 -50.981  39.964  1.00  0.00    -0.348 OA
ATOM     11  H3  UNL     1      31.017 -51.181  39.039  1.00  0.00     0.219 HD
ENDBRANCH   9  10
BRANCH   9  12
HETATM   12  N4  UNL     1      29.301 -49.548  39.329  1.00  0.00    -0.357 N 
HETATM   13  C19 UNL     1      27.884 -49.935  39.253  1.00  0.00     0.125 C 
HETATM   14  C20 UNL     1      27.910 -50.581  37.868  1.00  0.00     0.022 C 
HETATM   15  C21 UNL     1      28.919 -49.726  37.082  1.00  0.00     0.028 C 
HETATM   16  C22 UNL     1      29.354 -48.701  38.107  1.00  0.00     0.111 C 
BRANCH  16  17
HETATM   17  C23 UNL     1      30.642 -48.049  37.842  1.00  0.00     0.256 C 
BRANCH  17  18
HETATM   18  N5  UNL     1      30.865 -48.129  36.378  1.00  0.00    -0.077 N 
HETATM   19  C24 UNL     1      32.212 -48.564  36.087  1.00  0.00     0.267 C 
ATOM     20  H52 UNL     1      30.170 -48.720  35.922  1.00  0.00     0.276 HD
ATOM     21  H51 UNL     1      30.645 -47.247  35.915  1.00  0.00     0.276 HD
ENDBRANCH  17  18
ENDBRANCH  16  17
ENDBRANCH   9  12
ENDBRANCH   6   9
ENDBRANCH   3   6
ENDBRANCH   1   2
BRANCH   1  22
HETATM   22  C6  UNL     1      29.604 -44.441  42.322  1.00  0.00     0.039 C 
BRANCH  22  23
HETATM   23  C7  UNL     1      29.253 -43.359  41.375  1.00  0.00    -0.012 C 
HETATM   24  C8  UNL     1      28.069 -42.582  41.994  1.00  0.00     0.005 C 
HETATM   25  C9  UNL     1      28.125 -41.123  41.693  1.00  0.00     0.000 C 
HETATM   26  C10 UNL     1      29.290 -40.472  42.375  1.00  0.00     0.000 C 
HETATM   27  C11 UNL     1      30.502 -41.360  42.203  1.00  0.00     0.000 C 
HETATM   28  C12 UNL     1      30.282 -42.345  41.055  1.00  0.00     0.005 C 
ENDBRANCH  22  23
ENDBRANCH   1  22
BRANCH   1  29
HETATM   29  N2  UNL     1      28.136 -46.150  43.121  1.00  0.00    -0.383 N 
ATOM     30  H2  UNL     1      28.472 -46.190  44.083  1.00  0.00     0.156 HD
BRANCH  29  31
HETATM   31  C13 UNL     1      26.790 -46.451  42.790  1.00  0.00     0.244 C 
BRANCH  31  32
HETATM   32  O2  UNL     1      26.747 -46.725  41.402  1.00  0.00    -0.375 OA
ATOM     33  H2  UNL     1      26.489 -45.923  40.963  1.00  0.00     0.212 HD
ENDBRANCH  31  32
BRANCH  31  34
HETATM   34  C14 UNL     1      26.320 -47.763  43.455  1.00  0.00     0.232 C 
BRANCH  34  35
HETATM   35  N3  UNL     1      27.470 -48.209  44.247  1.00  0.00    -0.071 N 
ATOM     36  H33 UNL     1      28.093 -47.454  44.535  1.00  0.00     0.274 HD
ATOM     37  H32 UNL     1      27.230 -48.524  45.187  1.00  0.00     0.274 HD
ATOM     38  H31 UNL     1      27.918 -48.922  43.672  1.00  0.00     0.274 HD
ENDBRANCH  34  35
BRANCH  34  39
HETATM   39  C15 UNL     1      26.097 -48.725  42.346  1.00  0.00     0.047 C 
BRANCH  39  40
HETATM   40  C16 UNL     1      25.278 -49.927  42.643  1.00  0.00     0.075 C 
BRANCH  40  41
HETATM   41  S1  UNL     1      23.950 -49.727  43.809  1.00  0.00    -0.173 SA
HETATM   42  C17 UNL     1      24.398 -50.300  45.446  1.00  0.00     0.089 C 
ENDBRANCH  40  41
ENDBRANCH  39  40
ENDBRANCH  34  39
ENDBRANCH  31  34
ENDBRANCH  29  31
ENDBRANCH   1  29
TORSDOF 18
ENDMDL
