MODEL 1
REMARK VINA RESULT: -6.417094661      0.000      0.000
REMARK  17 active torsions:
REMARK  status: ('A' for Active; 'I' for Inactive)
REMARK    1  A    between atoms: C2_2  and  C3_3 
REMARK    2  A    between atoms: C3_3  and  N1_5 
REMARK    3  A    between atoms: N1_5  and  C5_7 
REMARK    4  A    between atoms: C5_7  and  O1_8 
REMARK    5  A    between atoms: C5_7  and  C6_10 
REMARK    6  A    between atoms: C6_10  and  C7_11 
REMARK    7  A    between atoms: C9_13  and  C10_14 
REMARK    8  A    between atoms: C9_13  and  C23_40 
REMARK       I    between atoms: C10_14  and  N2_16 
REMARK    9  A    between atoms: N2_16  and  C11_18 
REMARK   10  A    between atoms: C11_18  and  O3_19 
REMARK   11  A    between atoms: C11_18  and  C13_21 
REMARK       I    between atoms: C13_21  and  N3_23 
REMARK   12  A    between atoms: N3_23  and  C14_25 
REMARK   13  A    between atoms: C14_25  and  C15_26 
REMARK   14  A    between atoms: C14_25  and  C22_33 
REMARK   15  A    between atoms: C15_26  and  C16_27 
REMARK   16  A    between atoms: C22_33  and  N4_34 
REMARK   17  A    between atoms: C22_33  and  O5_38 
ROOT
HETATM    1  C11 UNL     1       2.922  43.825  56.856  1.00  0.00     0.316 C 
ENDROOT
BRANCH   1   2
HETATM    2  N2  UNL     1       2.448  43.900  58.233  1.00  0.00    -0.323 N 
HETATM    3  C10 UNL     1       1.157  44.290  58.597  1.00  0.00     0.254 C 
HETATM    4  O2  UNL     1       0.356  44.610  57.686  1.00  0.00    -0.268 OA
ATOM      5  H2  UNL     1       3.099  43.652  58.977  1.00  0.00     0.165 HD
BRANCH   3   6
HETATM    6  C9  UNL     1       0.718  44.328  60.049  1.00  0.00     0.044 C 
HETATM    7  C6  UNL     1      -0.434  45.166  60.231  1.00  0.00     0.008 C 
BRANCH   7   8
HETATM    8  C5  UNL     1      -0.417  46.607  59.936  1.00  0.00     0.143 C 
BRANCH   8   9
HETATM    9  N1  UNL     1       0.111  47.355  58.885  1.00  0.00    -0.366 N 
ATOM     10  H1  UNL     1      -0.304  47.331  57.954  1.00  0.00     0.162 HD
BRANCH   9  11
HETATM   11  C3  UNL     1       1.305  48.188  59.182  1.00  0.00     0.079 C 
HETATM   12  C4  UNL     1       1.017  49.649  59.040  1.00  0.00     0.032 C 
BRANCH  11  13
HETATM   13  C2  UNL     1       2.486  47.752  58.310  1.00  0.00     0.020 C 
HETATM   14  C1  UNL     1       3.762  47.788  59.149  1.00  0.00     0.007 C 
ENDBRANCH  11  13
ENDBRANCH   9  11
ENDBRANCH   8   9
BRANCH   8  15
HETATM   15  O1  UNL     1      -1.010  47.371  60.813  1.00  0.00    -0.346 OA
ATOM     16  H1  UNL     1      -1.461  48.094  60.394  1.00  0.00     0.219 HD
ENDBRANCH   8  15
ENDBRANCH   7   8
BRANCH   7  17
HETATM   17  C7  UNL     1      -1.390  44.937  61.381  1.00  0.00     0.039 C 
HETATM   18  C8  UNL     1      -1.568  43.523  61.809  1.00  0.00     0.010 C 
ENDBRANCH   7  17
BRANCH   6  19
HETATM   19  C23 UNL     1       1.913  44.304  60.896  1.00  0.00    -0.071 C 
HETATM   20  C24 UNL     1       2.252  45.532  61.683  1.00  0.00     0.044 C 
HETATM   21  C25 UNL     1       2.141  43.034  61.704  1.00  0.00     0.044 C 
ENDBRANCH   6  19
ENDBRANCH   3   6
ENDBRANCH   1   2
BRANCH   1  22
HETATM   22  O3  UNL     1       2.643  42.604  56.355  1.00  0.00    -0.362 OA
HETATM   23  C12 UNL     1       2.106  42.597  55.057  1.00  0.00     0.204 C 
ENDBRANCH   1  22
BRANCH   1  24
HETATM   24  C13 UNL     1       4.398  44.133  56.814  1.00  0.00     0.267 C 
HETATM   25  O4  UNL     1       4.751  45.315  56.891  1.00  0.00    -0.269 OA
HETATM   26  N3  UNL     1       5.362  43.115  56.694  1.00  0.00    -0.348 N 
ATOM     27  H3  UNL     1       5.007  42.161  56.635  1.00  0.00     0.163 HD
BRANCH  26  28
HETATM   28  C14 UNL     1       6.782  43.268  56.647  1.00  0.00     0.140 C 
BRANCH  28  29
HETATM   29  C15 UNL     1       7.419  42.712  57.874  1.00  0.00     0.034 C 
BRANCH  29  30
HETATM   30  C16 UNL     1       6.886  41.380  58.328  1.00  0.00    -0.013 C 
HETATM   31  C17 UNL     1       6.542  41.506  59.797  1.00  0.00     0.005 C 
HETATM   32  C18 UNL     1       6.038  40.177  60.313  1.00  0.00     0.000 C 
HETATM   33  C19 UNL     1       7.219  39.254  60.381  1.00  0.00     0.000 C 
HETATM   34  C20 UNL     1       8.380  39.759  59.550  1.00  0.00     0.000 C 
HETATM   35  C21 UNL     1       7.923  40.285  58.211  1.00  0.00     0.005 C 
ENDBRANCH  29  30
ENDBRANCH  28  29
BRANCH  28  36
HETATM   36  C22 UNL     1       7.341  42.654  55.373  1.00  0.00     0.339 C 
BRANCH  36  37
HETATM   37  N4  UNL     1       6.356  42.089  54.519  1.00  0.00    -0.051 N 
ATOM     38  H43 UNL     1       6.735  41.944  53.584  1.00  0.00     0.277 HD
ATOM     39  H42 UNL     1       6.170  41.122  54.782  1.00  0.00     0.277 HD
ATOM     40  H41 UNL     1       5.488  42.622  54.474  1.00  0.00     0.277 HD
ENDBRANCH  36  37
BRANCH  36  41
HETATM   41  O5  UNL     1       8.028  43.674  54.709  1.00  0.00    -0.368 OA
ATOM     42  H5  UNL     1       8.952  43.461  54.768  1.00  0.00     0.212 HD
ENDBRANCH  36  41
ENDBRANCH  28  36
ENDBRANCH  26  28
ENDBRANCH   1  24
TORSDOF 17
ENDMDL
MODEL 2
REMARK VINA RESULT: -6.276348436      2.784      6.692
REMARK  17 active torsions:
REMARK  status: ('A' for Active; 'I' for Inactive)
REMARK    1  A    between atoms: C2_2  and  C3_3 
REMARK    2  A    between atoms: C3_3  and  N1_5 
REMARK    3  A    between atoms: N1_5  and  C5_7 
REMARK    4  A    between atoms: C5_7  and  O1_8 
REMARK    5  A    between atoms: C5_7  and  C6_10 
REMARK    6  A    between atoms: C6_10  and  C7_11 
REMARK    7  A    between atoms: C9_13  and  C10_14 
REMARK    8  A    between atoms: C9_13  and  C23_40 
REMARK       I    between atoms: C10_14  and  N2_16 
REMARK    9  A    between atoms: N2_16  and  C11_18 
REMARK   10  A    between atoms: C11_18  and  O3_19 
REMARK   11  A    between atoms: C11_18  and  C13_21 
REMARK       I    between atoms: C13_21  and  N3_23 
REMARK   12  A    between atoms: N3_23  and  C14_25 
REMARK   13  A    between atoms: C14_25  and  C15_26 
REMARK   14  A    between atoms: C14_25  and  C22_33 
REMARK   15  A    between atoms: C15_26  and  C16_27 
REMARK   16  A    between atoms: C22_33  and  N4_34 
REMARK   17  A    between atoms: C22_33  and  O5_38 
ROOT
HETATM    1  C11 UNL     1       6.364  43.779  57.292  1.00  0.00     0.316 C 
ENDROOT
BRANCH   1   2
HETATM    2  N2  UNL     1       6.557  45.210  57.496  1.00  0.00    -0.323 N 
HETATM    3  C10 UNL     1       7.671  45.769  58.125  1.00  0.00     0.254 C 
HETATM    4  O2  UNL     1       8.558  44.994  58.557  1.00  0.00    -0.268 OA
ATOM      5  H2  UNL     1       5.833  45.843  57.156  1.00  0.00     0.165 HD
BRANCH   3   6
HETATM    6  C9  UNL     1       7.823  47.270  58.288  1.00  0.00     0.044 C 
HETATM    7  C6  UNL     1       7.252  47.728  59.523  1.00  0.00     0.008 C 
BRANCH   7   8
HETATM    8  C5  UNL     1       5.822  47.584  59.835  1.00  0.00     0.143 C 
BRANCH   8   9
HETATM    9  N1  UNL     1       4.759  48.485  59.852  1.00  0.00    -0.366 N 
ATOM     10  H1  UNL     1       4.897  49.467  60.091  1.00  0.00     0.162 HD
BRANCH   9  11
HETATM   11  C3  UNL     1       3.416  47.952  59.506  1.00  0.00     0.079 C 
HETATM   12  C4  UNL     1       3.242  47.787  58.029  1.00  0.00     0.032 C 
BRANCH  11  13
HETATM   13  C2  UNL     1       2.321  48.835  60.114  1.00  0.00     0.020 C 
HETATM   14  C1  UNL     1       1.316  49.200  59.025  1.00  0.00     0.007 C 
ENDBRANCH  11  13
ENDBRANCH   9  11
ENDBRANCH   8   9
BRANCH   8  15
HETATM   15  O1  UNL     1       5.434  46.383  60.166  1.00  0.00    -0.346 OA
ATOM     16  H1  UNL     1       5.994  45.720  59.783  1.00  0.00     0.219 HD
ENDBRANCH   8  15
ENDBRANCH   7   8
BRANCH   7  17
HETATM   17  C7  UNL     1       7.750  48.992  60.189  1.00  0.00     0.039 C 
HETATM   18  C8  UNL     1       9.201  49.285  60.031  1.00  0.00     0.010 C 
ENDBRANCH   7  17
BRANCH   6  19
HETATM   19  C23 UNL     1       7.659  47.897  56.974  1.00  0.00    -0.071 C 
HETATM   20  C24 UNL     1       6.615  48.961  56.819  1.00  0.00     0.044 C 
HETATM   21  C25 UNL     1       8.940  48.251  56.232  1.00  0.00     0.044 C 
ENDBRANCH   6  19
ENDBRANCH   3   6
ENDBRANCH   1   2
BRANCH   1  22
HETATM   22  O3  UNL     1       6.897  43.423  56.105  1.00  0.00    -0.362 OA
HETATM   23  C12 UNL     1       7.638  42.230  56.115  1.00  0.00     0.204 C 
ENDBRANCH   1  22
BRANCH   1  24
HETATM   24  C13 UNL     1       4.894  43.452  57.378  1.00  0.00     0.267 C 
HETATM   25  O4  UNL     1       4.491  42.828  58.366  1.00  0.00    -0.269 OA
HETATM   26  N3  UNL     1       3.991  43.840  56.371  1.00  0.00    -0.348 N 
ATOM     27  H3  UNL     1       4.386  44.350  55.581  1.00  0.00     0.163 HD
BRANCH  26  28
HETATM   28  C14 UNL     1       2.583  43.598  56.330  1.00  0.00     0.140 C 
BRANCH  28  29
HETATM   29  C15 UNL     1       1.821  44.835  56.660  1.00  0.00     0.034 C 
BRANCH  29  30
HETATM   30  C16 UNL     1       0.716  44.661  57.667  1.00  0.00    -0.013 C 
HETATM   31  C17 UNL     1       0.087  46.020  57.888  1.00  0.00     0.005 C 
HETATM   32  C18 UNL     1      -1.007  45.906  58.926  1.00  0.00     0.000 C 
HETATM   33  C19 UNL     1      -0.337  45.690  60.251  1.00  0.00     0.000 C 
HETATM   34  C20 UNL     1       1.099  45.236  60.091  1.00  0.00     0.000 C 
HETATM   35  C21 UNL     1       1.239  44.194  59.008  1.00  0.00     0.005 C 
ENDBRANCH  29  30
ENDBRANCH  28  29
BRANCH  28  36
HETATM   36  C22 UNL     1       2.183  43.009  54.987  1.00  0.00     0.339 C 
BRANCH  36  37
HETATM   37  N4  UNL     1       3.280  42.631  54.168  1.00  0.00    -0.051 N 
ATOM     38  H43 UNL     1       4.101  43.192  54.390  1.00  0.00     0.277 HD
ATOM     39  H42 UNL     1       3.623  41.709  54.435  1.00  0.00     0.277 HD
ATOM     40  H41 UNL     1       3.084  42.665  53.167  1.00  0.00     0.277 HD
ENDBRANCH  36  37
BRANCH  36  41
HETATM   41  O5  UNL     1       1.381  41.898  55.263  1.00  0.00    -0.368 OA
ATOM     42  H5  UNL     1       1.803  41.152  54.855  1.00  0.00     0.212 HD
ENDBRANCH  36  41
ENDBRANCH  28  36
ENDBRANCH  26  28
ENDBRANCH   1  24
TORSDOF 17
ENDMDL
MODEL 3
REMARK VINA RESULT: -6.263440126      3.592      6.076
REMARK  17 active torsions:
REMARK  status: ('A' for Active; 'I' for Inactive)
REMARK    1  A    between atoms: C2_2  and  C3_3 
REMARK    2  A    between atoms: C3_3  and  N1_5 
REMARK    3  A    between atoms: N1_5  and  C5_7 
REMARK    4  A    between atoms: C5_7  and  O1_8 
REMARK    5  A    between atoms: C5_7  and  C6_10 
REMARK    6  A    between atoms: C6_10  and  C7_11 
REMARK    7  A    between atoms: C9_13  and  C10_14 
REMARK    8  A    between atoms: C9_13  and  C23_40 
REMARK       I    between atoms: C10_14  and  N2_16 
REMARK    9  A    between atoms: N2_16  and  C11_18 
REMARK   10  A    between atoms: C11_18  and  O3_19 
REMARK   11  A    between atoms: C11_18  and  C13_21 
REMARK       I    between atoms: C13_21  and  N3_23 
REMARK   12  A    between atoms: N3_23  and  C14_25 
REMARK   13  A    between atoms: C14_25  and  C15_26 
REMARK   14  A    between atoms: C14_25  and  C22_33 
REMARK   15  A    between atoms: C15_26  and  C16_27 
REMARK   16  A    between atoms: C22_33  and  N4_34 
REMARK   17  A    between atoms: C22_33  and  O5_38 
ROOT
HETATM    1  C11 UNL     1       2.514  45.307  56.838  1.00  0.00     0.316 C 
ENDROOT
BRANCH   1   2
HETATM    2  N2  UNL     1       1.762  45.070  58.065  1.00  0.00    -0.323 N 
HETATM    3  C10 UNL     1       2.315  45.125  59.346  1.00  0.00     0.254 C 
HETATM    4  O2  UNL     1       3.538  45.383  59.453  1.00  0.00    -0.268 OA
ATOM      5  H2  UNL     1       0.770  44.850  57.982  1.00  0.00     0.165 HD
BRANCH   3   6
HETATM    6  C9  UNL     1       1.473  44.888  60.586  1.00  0.00     0.044 C 
HETATM    7  C6  UNL     1       0.145  45.413  60.432  1.00  0.00     0.008 C 
BRANCH   7   8
HETATM    8  C5  UNL     1      -0.120  46.844  60.217  1.00  0.00     0.143 C 
BRANCH   8   9
HETATM    9  N1  UNL     1       0.500  47.817  59.436  1.00  0.00    -0.366 N 
ATOM     10  H1  UNL     1       0.473  47.779  58.417  1.00  0.00     0.162 HD
BRANCH   9  11
HETATM   11  C3  UNL     1       1.202  48.913  60.152  1.00  0.00     0.079 C 
HETATM   12  C4  UNL     1       0.786  50.262  59.657  1.00  0.00     0.032 C 
BRANCH  11  13
HETATM   13  C2  UNL     1       2.719  48.716  60.067  1.00  0.00     0.020 C 
HETATM   14  C1  UNL     1       3.373  49.373  61.280  1.00  0.00     0.007 C 
ENDBRANCH  11  13
ENDBRANCH   9  11
ENDBRANCH   8   9
BRANCH   8  15
HETATM   15  O1  UNL     1      -1.134  47.336  60.875  1.00  0.00    -0.346 OA
ATOM     16  H1  UNL     1      -0.935  48.195  61.228  1.00  0.00     0.219 HD
ENDBRANCH   8  15
ENDBRANCH   7   8
BRANCH   7  17
HETATM   17  C7  UNL     1      -1.016  44.836  61.211  1.00  0.00     0.039 C 
HETATM   18  C8  UNL     1      -0.900  43.400  61.586  1.00  0.00     0.010 C 
ENDBRANCH   7  17
BRANCH   6  19
HETATM   19  C23 UNL     1       2.331  45.038  61.764  1.00  0.00    -0.071 C 
HETATM   20  C24 UNL     1       2.039  46.154  62.719  1.00  0.00     0.044 C 
HETATM   21  C25 UNL     1       2.704  43.754  62.493  1.00  0.00     0.044 C 
ENDBRANCH   6  19
ENDBRANCH   3   6
ENDBRANCH   1   2
BRANCH   1  22
HETATM   22  O3  UNL     1       2.414  46.610  56.500  1.00  0.00    -0.362 OA
HETATM   23  C12 UNL     1       3.592  47.360  56.652  1.00  0.00     0.204 C 
ENDBRANCH   1  22
BRANCH   1  24
HETATM   24  C13 UNL     1       2.004  44.397  55.750  1.00  0.00     0.267 C 
HETATM   25  O4  UNL     1       1.421  43.359  56.082  1.00  0.00    -0.269 OA
HETATM   26  N3  UNL     1       2.176  44.706  54.388  1.00  0.00    -0.348 N 
ATOM     27  H3  UNL     1       2.665  45.576  54.179  1.00  0.00     0.163 HD
BRANCH  26  28
HETATM   28  C14 UNL     1       1.740  43.938  53.264  1.00  0.00     0.140 C 
BRANCH  28  29
HETATM   29  C15 UNL     1       1.850  44.726  52.005  1.00  0.00     0.034 C 
BRANCH  29  30
HETATM   30  C16 UNL     1       1.636  43.946  50.736  1.00  0.00    -0.013 C 
HETATM   31  C17 UNL     1       2.790  44.262  49.809  1.00  0.00     0.005 C 
HETATM   32  C18 UNL     1       2.600  43.530  48.499  1.00  0.00     0.000 C 
HETATM   33  C19 UNL     1       1.471  44.204  47.778  1.00  0.00     0.000 C 
HETATM   34  C20 UNL     1       0.635  45.059  48.708  1.00  0.00     0.000 C 
HETATM   35  C21 UNL     1       0.369  44.363  50.021  1.00  0.00     0.005 C 
ENDBRANCH  29  30
ENDBRANCH  28  29
BRANCH  28  36
HETATM   36  C22 UNL     1       2.498  42.622  53.193  1.00  0.00     0.339 C 
BRANCH  36  37
HETATM   37  N4  UNL     1       3.600  42.537  54.085  1.00  0.00    -0.051 N 
ATOM     38  H43 UNL     1       4.191  43.364  54.003  1.00  0.00     0.277 HD
ATOM     39  H42 UNL     1       3.288  42.643  55.050  1.00  0.00     0.277 HD
ATOM     40  H41 UNL     1       4.158  41.689  53.981  1.00  0.00     0.277 HD
ENDBRANCH  36  37
BRANCH  36  41
HETATM   41  O5  UNL     1       1.572  41.613  53.473  1.00  0.00    -0.368 OA
ATOM     42  H5  UNL     1       2.067  40.878  53.815  1.00  0.00     0.212 HD
ENDBRANCH  36  41
ENDBRANCH  28  36
ENDBRANCH  26  28
ENDBRANCH   1  24
TORSDOF 17
ENDMDL
MODEL 4
REMARK VINA RESULT: -6.203895774      3.440      6.600
REMARK  17 active torsions:
REMARK  status: ('A' for Active; 'I' for Inactive)
REMARK    1  A    between atoms: C2_2  and  C3_3 
REMARK    2  A    between atoms: C3_3  and  N1_5 
REMARK    3  A    between atoms: N1_5  and  C5_7 
REMARK    4  A    between atoms: C5_7  and  O1_8 
REMARK    5  A    between atoms: C5_7  and  C6_10 
REMARK    6  A    between atoms: C6_10  and  C7_11 
REMARK    7  A    between atoms: C9_13  and  C10_14 
REMARK    8  A    between atoms: C9_13  and  C23_40 
REMARK       I    between atoms: C10_14  and  N2_16 
REMARK    9  A    between atoms: N2_16  and  C11_18 
REMARK   10  A    between atoms: C11_18  and  O3_19 
REMARK   11  A    between atoms: C11_18  and  C13_21 
REMARK       I    between atoms: C13_21  and  N3_23 
REMARK   12  A    between atoms: N3_23  and  C14_25 
REMARK   13  A    between atoms: C14_25  and  C15_26 
REMARK   14  A    between atoms: C14_25  and  C22_33 
REMARK   15  A    between atoms: C15_26  and  C16_27 
REMARK   16  A    between atoms: C22_33  and  N4_34 
REMARK   17  A    between atoms: C22_33  and  O5_38 
ROOT
HETATM    1  C11 UNL     1       2.971  45.144  57.035  1.00  0.00     0.316 C 
ENDROOT
BRANCH   1   2
HETATM    2  N2  UNL     1       2.031  46.057  57.675  1.00  0.00    -0.323 N 
HETATM    3  C10 UNL     1       1.303  45.751  58.827  1.00  0.00     0.254 C 
HETATM    4  O2  UNL     1       1.455  44.616  59.339  1.00  0.00    -0.268 OA
ATOM      5  H2  UNL     1       1.897  46.977  57.256  1.00  0.00     0.165 HD
BRANCH   3   6
HETATM    6  C9  UNL     1       0.355  46.754  59.458  1.00  0.00     0.044 C 
HETATM    7  C6  UNL     1       1.031  47.599  60.402  1.00  0.00     0.008 C 
BRANCH   7   8
HETATM    8  C5  UNL     1       1.681  47.071  61.612  1.00  0.00     0.143 C 
BRANCH   8   9
HETATM    9  N1  UNL     1       2.790  46.253  61.813  1.00  0.00    -0.366 N 
ATOM     10  H1  UNL     1       2.767  45.479  62.477  1.00  0.00     0.162 HD
BRANCH   9  11
HETATM   11  C3  UNL     1       4.008  46.558  61.019  1.00  0.00     0.079 C 
HETATM   12  C4  UNL     1       4.673  45.317  60.515  1.00  0.00     0.032 C 
BRANCH  11  13
HETATM   13  C2  UNL     1       4.969  47.430  61.833  1.00  0.00     0.020 C 
HETATM   14  C1  UNL     1       4.844  48.878  61.365  1.00  0.00     0.007 C 
ENDBRANCH  11  13
ENDBRANCH   9  11
ENDBRANCH   8   9
BRANCH   8  15
HETATM   15  O1  UNL     1       1.135  47.421  62.745  1.00  0.00    -0.346 OA
ATOM     16  H1  UNL     1       0.769  48.295  62.697  1.00  0.00     0.219 HD
ENDBRANCH   8  15
ENDBRANCH   7   8
BRANCH   7  17
HETATM   17  C7  UNL     1       0.511  48.984  60.718  1.00  0.00     0.039 C 
HETATM   18  C8  UNL     1       0.973  50.075  59.817  1.00  0.00     0.010 C 
ENDBRANCH   7  17
BRANCH   6  19
HETATM   19  C23 UNL     1      -0.944  46.104  59.653  1.00  0.00    -0.071 C 
HETATM   20  C24 UNL     1      -1.670  46.339  60.941  1.00  0.00     0.044 C 
HETATM   21  C25 UNL     1      -1.890  46.119  58.460  1.00  0.00     0.044 C 
ENDBRANCH   6  19
ENDBRANCH   3   6
ENDBRANCH   1   2
BRANCH   1  22
HETATM   22  O3  UNL     1       4.025  45.846  56.569  1.00  0.00    -0.362 OA
HETATM   23  C12 UNL     1       4.067  47.194  56.961  1.00  0.00     0.204 C 
ENDBRANCH   1  22
BRANCH   1  24
HETATM   24  C13 UNL     1       2.267  44.382  55.940  1.00  0.00     0.267 C 
HETATM   25  O4  UNL     1       1.574  43.409  56.258  1.00  0.00    -0.269 OA
HETATM   26  N3  UNL     1       2.382  44.756  54.589  1.00  0.00    -0.348 N 
ATOM     27  H3  UNL     1       2.968  45.567  54.392  1.00  0.00     0.163 HD
BRANCH  26  28
HETATM   28  C14 UNL     1       1.768  44.127  53.461  1.00  0.00     0.140 C 
BRANCH  28  29
HETATM   29  C15 UNL     1       1.775  45.032  52.278  1.00  0.00     0.034 C 
BRANCH  29  30
HETATM   30  C16 UNL     1       1.774  44.342  50.940  1.00  0.00    -0.013 C 
HETATM   31  C17 UNL     1       2.513  45.236  49.968  1.00  0.00     0.005 C 
HETATM   32  C18 UNL     1       2.505  44.604  48.594  1.00  0.00     0.000 C 
HETATM   33  C19 UNL     1       1.105  44.716  48.067  1.00  0.00     0.000 C 
HETATM   34  C20 UNL     1       0.105  44.999  49.168  1.00  0.00     0.000 C 
HETATM   35  C21 UNL     1       0.373  44.163  50.396  1.00  0.00     0.005 C 
ENDBRANCH  29  30
ENDBRANCH  28  29
BRANCH  28  36
HETATM   36  C22 UNL     1       2.430  42.789  53.173  1.00  0.00     0.339 C 
BRANCH  36  37
HETATM   37  N4  UNL     1       3.599  42.541  53.941  1.00  0.00    -0.051 N 
ATOM     38  H43 UNL     1       4.393  43.052  53.557  1.00  0.00     0.277 HD
ATOM     39  H42 UNL     1       3.529  42.991  54.853  1.00  0.00     0.277 HD
ATOM     40  H41 UNL     1       3.828  41.553  54.045  1.00  0.00     0.277 HD
ENDBRANCH  36  37
BRANCH  36  41
HETATM   41  O5  UNL     1       1.468  41.807  53.427  1.00  0.00    -0.368 OA
ATOM     42  H5  UNL     1       0.715  42.020  52.890  1.00  0.00     0.212 HD
ENDBRANCH  36  41
ENDBRANCH  28  36
ENDBRANCH  26  28
ENDBRANCH   1  24
TORSDOF 17
ENDMDL
MODEL 5
REMARK VINA RESULT: -6.175468357      1.470      2.431
REMARK  17 active torsions:
REMARK  status: ('A' for Active; 'I' for Inactive)
REMARK    1  A    between atoms: C2_2  and  C3_3 
REMARK    2  A    between atoms: C3_3  and  N1_5 
REMARK    3  A    between atoms: N1_5  and  C5_7 
REMARK    4  A    between atoms: C5_7  and  O1_8 
REMARK    5  A    between atoms: C5_7  and  C6_10 
REMARK    6  A    between atoms: C6_10  and  C7_11 
REMARK    7  A    between atoms: C9_13  and  C10_14 
REMARK    8  A    between atoms: C9_13  and  C23_40 
REMARK       I    between atoms: C10_14  and  N2_16 
REMARK    9  A    between atoms: N2_16  and  C11_18 
REMARK   10  A    between atoms: C11_18  and  O3_19 
REMARK   11  A    between atoms: C11_18  and  C13_21 
REMARK       I    between atoms: C13_21  and  N3_23 
REMARK   12  A    between atoms: N3_23  and  C14_25 
REMARK   13  A    between atoms: C14_25  and  C15_26 
REMARK   14  A    between atoms: C14_25  and  C22_33 
REMARK   15  A    between atoms: C15_26  and  C16_27 
REMARK   16  A    between atoms: C22_33  and  N4_34 
REMARK   17  A    between atoms: C22_33  and  O5_38 
ROOT
HETATM    1  C11 UNL     1       2.793  43.840  56.780  1.00  0.00     0.316 C 
ENDROOT
BRANCH   1   2
HETATM    2  N2  UNL     1       2.336  43.891  58.164  1.00  0.00    -0.323 N 
HETATM    3  C10 UNL     1       1.065  44.320  58.554  1.00  0.00     0.254 C 
HETATM    4  O2  UNL     1       0.268  44.698  57.661  1.00  0.00    -0.268 OA
ATOM      5  H2  UNL     1       2.984  43.595  58.893  1.00  0.00     0.165 HD
BRANCH   3   6
HETATM    6  C9  UNL     1       0.642  44.330  60.011  1.00  0.00     0.044 C 
HETATM    7  C6  UNL     1      -0.481  45.198  60.229  1.00  0.00     0.008 C 
BRANCH   7   8
HETATM    8  C5  UNL     1      -0.422  46.646  59.974  1.00  0.00     0.143 C 
BRANCH   8   9
HETATM    9  N1  UNL     1       0.096  47.405  58.927  1.00  0.00    -0.366 N 
ATOM     10  H1  UNL     1      -0.328  47.390  57.999  1.00  0.00     0.162 HD
BRANCH   9  11
HETATM   11  C3  UNL     1       1.292  48.236  59.221  1.00  0.00     0.079 C 
HETATM   12  C4  UNL     1       1.005  49.698  59.082  1.00  0.00     0.032 C 
BRANCH  11  13
HETATM   13  C2  UNL     1       2.470  47.799  58.345  1.00  0.00     0.020 C 
HETATM   14  C1  UNL     1       3.747  47.824  59.182  1.00  0.00     0.007 C 
ENDBRANCH  11  13
ENDBRANCH   9  11
ENDBRANCH   8   9
BRANCH   8  15
HETATM   15  O1  UNL     1      -0.955  47.404  60.893  1.00  0.00    -0.346 OA
ATOM     16  H1  UNL     1      -0.342  47.575  61.599  1.00  0.00     0.219 HD
ENDBRANCH   8  15
ENDBRANCH   7   8
BRANCH   7  17
HETATM   17  C7  UNL     1      -1.432  44.966  61.383  1.00  0.00     0.039 C 
HETATM   18  C8  UNL     1      -1.660  43.546  61.764  1.00  0.00     0.010 C 
ENDBRANCH   7  17
BRANCH   6  19
HETATM   19  C23 UNL     1       1.845  44.244  60.843  1.00  0.00    -0.071 C 
HETATM   20  C24 UNL     1       2.264  45.459  61.613  1.00  0.00     0.044 C 
HETATM   21  C25 UNL     1       2.007  42.972  61.664  1.00  0.00     0.044 C 
ENDBRANCH   6  19
ENDBRANCH   3   6
ENDBRANCH   1   2
BRANCH   1  22
HETATM   22  O3  UNL     1       2.568  42.607  56.282  1.00  0.00    -0.362 OA
HETATM   23  C12 UNL     1       2.051  42.573  54.976  1.00  0.00     0.204 C 
ENDBRANCH   1  22
BRANCH   1  24
HETATM   24  C13 UNL     1       4.251  44.221  56.717  1.00  0.00     0.267 C 
HETATM   25  O4  UNL     1       4.545  45.421  56.762  1.00  0.00    -0.269 OA
HETATM   26  N3  UNL     1       5.264  43.250  56.614  1.00  0.00    -0.348 N 
ATOM     27  H3  UNL     1       4.958  42.278  56.580  1.00  0.00     0.163 HD
BRANCH  26  28
HETATM   28  C14 UNL     1       6.675  43.473  56.550  1.00  0.00     0.140 C 
BRANCH  28  29
HETATM   29  C15 UNL     1       7.325  43.144  57.849  1.00  0.00     0.034 C 
BRANCH  29  30
HETATM   30  C16 UNL     1       7.896  44.318  58.598  1.00  0.00    -0.013 C 
HETATM   31  C17 UNL     1       6.803  44.857  59.495  1.00  0.00     0.005 C 
HETATM   32  C18 UNL     1       7.315  46.068  60.243  1.00  0.00     0.000 C 
HETATM   33  C19 UNL     1       7.436  47.183  59.247  1.00  0.00     0.000 C 
HETATM   34  C20 UNL     1       7.437  46.671  57.822  1.00  0.00     0.000 C 
HETATM   35  C21 UNL     1       8.300  45.442  57.670  1.00  0.00     0.005 C 
ENDBRANCH  29  30
ENDBRANCH  28  29
BRANCH  28  36
HETATM   36  C22 UNL     1       7.282  42.708  55.385  1.00  0.00     0.339 C 
BRANCH  36  37
HETATM   37  N4  UNL     1       6.328  42.073  54.545  1.00  0.00    -0.051 N 
ATOM     38  H43 UNL     1       5.402  42.475  54.690  1.00  0.00     0.277 HD
ATOM     39  H42 UNL     1       6.480  42.334  53.571  1.00  0.00     0.277 HD
ATOM     40  H41 UNL     1       6.296  41.058  54.643  1.00  0.00     0.277 HD
ENDBRANCH  36  37
BRANCH  36  41
HETATM   41  O5  UNL     1       8.033  43.631  54.651  1.00  0.00    -0.368 OA
ATOM     42  H5  UNL     1       8.353  43.171  53.884  1.00  0.00     0.212 HD
ENDBRANCH  36  41
ENDBRANCH  28  36
ENDBRANCH  26  28
ENDBRANCH   1  24
TORSDOF 17
ENDMDL
