MODEL 1
REMARK VINA RESULT: -6.683084851      0.000      0.000
REMARK  14 active torsions:
REMARK  status: ('A' for Active; 'I' for Inactive)
REMARK    1  A    between atoms: O1_2  and  C2_3 
REMARK    2  A    between atoms: C2_3  and  C3_4 
REMARK    3  A    between atoms: C3_4  and  C4_5 
REMARK    4  A    between atoms: C4_5  and  N1_6 
REMARK    5  A    between atoms: C4_5  and  C6_13 
REMARK       I    between atoms: N1_6  and  C5_8 
REMARK    6  A    between atoms: C6_13  and  C7_14 
REMARK    7  A    between atoms: C6_13  and  N4_21 
REMARK    8  A    between atoms: C7_14  and  C8_15 
REMARK       I    between atoms: N4_21  and  C14_23 
REMARK    9  A    between atoms: C14_23  and  C15_25 
REMARK   10  A    between atoms: C15_25  and  C16_26 
REMARK   11  A    between atoms: C15_25  and  N5_30 
REMARK   12  A    between atoms: C16_26  and  C17_27 
REMARK       I    between atoms: N5_30  and  C20_32 
REMARK   13  A    between atoms: C20_32  and  C21_34 
REMARK   14  A    between atoms: C21_34  and  N6_35 
ROOT
HETATM    1  C6  UNL     1       4.614  47.454  58.560  1.00  0.00     0.107 C 
ENDROOT
BRANCH   1   2
HETATM    2  C4  UNL     1       6.013  46.975  58.692  1.00  0.00     0.108 C 
BRANCH   2   3
HETATM    3  C3  UNL     1       6.064  45.495  59.114  1.00  0.00     0.053 C 
BRANCH   3   4
HETATM    4  C2  UNL     1       6.947  44.680  58.221  1.00  0.00     0.169 C 
BRANCH   4   5
HETATM    5  O1  UNL     1       6.263  44.523  57.005  1.00  0.00    -0.396 OA
HETATM    6  C1  UNL     1       5.655  43.266  57.032  1.00  0.00     0.201 C 
ENDBRANCH   4   5
ENDBRANCH   3   4
ENDBRANCH   2   3
BRANCH   2   7
HETATM    7  N1  UNL     1       6.929  47.196  57.620  1.00  0.00    -0.358 N 
HETATM    8  C5  UNL     1       7.406  48.512  57.296  1.00  0.00     0.182 C 
HETATM    9  N2  UNL     1       7.982  48.706  56.154  1.00  0.00    -0.374 N 
HETATM   10  N3  UNL     1       7.290  49.626  58.145  1.00  0.00    -0.064 NA
ATOM     11  H22 UNL     1       8.066  47.898  55.538  1.00  0.00     0.158 HD
ATOM     12  H21 UNL     1       8.321  49.640  55.924  1.00  0.00     0.158 HD
ATOM     13  H1  UNL     1       7.253  46.400  57.070  1.00  0.00     0.162 HD
ENDBRANCH   2   7
ENDBRANCH   1   2
BRANCH   1  14
HETATM   14  C7  UNL     1       3.942  48.016  59.743  1.00  0.00     0.032 C 
BRANCH  14  15
HETATM   15  C8  UNL     1       2.486  48.072  59.866  1.00  0.00    -0.013 C 
HETATM   16  C9  UNL     1       1.921  47.313  61.051  1.00  0.00     0.005 C 
HETATM   17  C10 UNL     1       0.456  47.577  61.164  1.00  0.00     0.000 C 
HETATM   18  C11 UNL     1       0.134  49.041  61.353  1.00  0.00     0.000 C 
HETATM   19  C12 UNL     1       0.686  49.787  60.165  1.00  0.00     0.000 C 
HETATM   20  C13 UNL     1       2.169  49.570  60.122  1.00  0.00     0.005 C 
ENDBRANCH  14  15
ENDBRANCH   1  14
BRANCH   1  21
HETATM   21  N4  UNL     1       3.845  46.287  58.048  1.00  0.00    -0.353 N 
HETATM   22  C14 UNL     1       3.282  46.283  56.738  1.00  0.00     0.240 C 
HETATM   23  O2  UNL     1       3.498  47.347  56.041  1.00  0.00    -0.271 OA
ATOM     24  H4  UNL     1       3.719  45.472  58.648  1.00  0.00     0.163 HD
BRANCH  22  25
HETATM   25  C15 UNL     1       2.513  45.207  56.142  1.00  0.00     0.177 C 
BRANCH  25  26
HETATM   26  C16 UNL     1       1.305  44.676  56.788  1.00  0.00     0.038 C 
BRANCH  26  27
HETATM   27  C17 UNL     1       0.824  45.195  58.086  1.00  0.00    -0.020 C 
HETATM   28  C18 UNL     1      -0.460  45.949  58.073  1.00  0.00     0.009 C 
HETATM   29  C19 UNL     1       0.937  44.236  59.226  1.00  0.00     0.009 C 
ENDBRANCH  26  27
ENDBRANCH  25  26
BRANCH  25  30
HETATM   30  N5  UNL     1       2.095  45.637  54.793  1.00  0.00    -0.347 N 
HETATM   31  C20 UNL     1       2.021  44.794  53.688  1.00  0.00     0.233 C 
HETATM   32  O3  UNL     1       2.299  43.566  53.717  1.00  0.00    -0.272 OA
ATOM     33  H5  UNL     1       1.843  46.617  54.662  1.00  0.00     0.163 HD
BRANCH  31  34
HETATM   34  C21 UNL     1       1.591  45.285  52.338  1.00  0.00     0.223 C 
BRANCH  34  35
HETATM   35  N6  UNL     1       1.884  44.349  51.276  1.00  0.00    -0.188 NA
HETATM   36  C22 UNL     1       2.550  45.055  50.160  1.00  0.00     0.123 C 
HETATM   37  C23 UNL     1       1.429  45.462  49.234  1.00  0.00     0.045 C 
HETATM   38  C24 UNL     1       0.214  44.885  49.922  1.00  0.00     0.195 C 
HETATM   39  O4  UNL     1       0.732  43.885  50.708  1.00  0.00    -0.303 OA
ENDBRANCH  34  35
ENDBRANCH  31  34
ENDBRANCH  25  30
ENDBRANCH  22  25
ENDBRANCH   1  21
TORSDOF 14
ENDMDL
MODEL 2
REMARK VINA RESULT: -6.519963351      1.646      2.628
REMARK  14 active torsions:
REMARK  status: ('A' for Active; 'I' for Inactive)
REMARK    1  A    between atoms: O1_2  and  C2_3 
REMARK    2  A    between atoms: C2_3  and  C3_4 
REMARK    3  A    between atoms: C3_4  and  C4_5 
REMARK    4  A    between atoms: C4_5  and  N1_6 
REMARK    5  A    between atoms: C4_5  and  C6_13 
REMARK       I    between atoms: N1_6  and  C5_8 
REMARK    6  A    between atoms: C6_13  and  C7_14 
REMARK    7  A    between atoms: C6_13  and  N4_21 
REMARK    8  A    between atoms: C7_14  and  C8_15 
REMARK       I    between atoms: N4_21  and  C14_23 
REMARK    9  A    between atoms: C14_23  and  C15_25 
REMARK   10  A    between atoms: C15_25  and  C16_26 
REMARK   11  A    between atoms: C15_25  and  N5_30 
REMARK   12  A    between atoms: C16_26  and  C17_27 
REMARK       I    between atoms: N5_30  and  C20_32 
REMARK   13  A    between atoms: C20_32  and  C21_34 
REMARK   14  A    between atoms: C21_34  and  N6_35 
ROOT
HETATM    1  C6  UNL     1       4.542  46.968  57.537  1.00  0.00     0.107 C 
ENDROOT
BRANCH   1   2
HETATM    2  C4  UNL     1       6.025  47.016  57.567  1.00  0.00     0.108 C 
BRANCH   2   3
HETATM    3  C3  UNL     1       6.541  48.464  57.656  1.00  0.00     0.053 C 
BRANCH   3   4
HETATM    4  C2  UNL     1       7.311  48.868  56.436  1.00  0.00     0.169 C 
BRANCH   4   5
HETATM    5  O1  UNL     1       8.101  47.767  56.069  1.00  0.00    -0.396 OA
HETATM    6  C1  UNL     1       9.419  48.069  56.417  1.00  0.00     0.201 C 
ENDBRANCH   4   5
ENDBRANCH   3   4
ENDBRANCH   2   3
BRANCH   2   7
HETATM    7  N1  UNL     1       6.730  46.201  58.504  1.00  0.00    -0.358 N 
HETATM    8  C5  UNL     1       7.205  44.891  58.155  1.00  0.00     0.182 C 
HETATM    9  N2  UNL     1       7.560  44.082  59.100  1.00  0.00    -0.374 N 
HETATM   10  N3  UNL     1       7.312  44.414  56.838  1.00  0.00    -0.064 NA
ATOM     11  H22 UNL     1       7.483  44.428  60.056  1.00  0.00     0.158 HD
ATOM     12  H21 UNL     1       7.898  43.152  58.853  1.00  0.00     0.158 HD
ATOM     13  H1  UNL     1       6.900  46.558  59.444  1.00  0.00     0.162 HD
ENDBRANCH   2   7
ENDBRANCH   1   2
BRANCH   1  14
HETATM   14  C7  UNL     1       3.800  47.157  58.795  1.00  0.00     0.032 C 
BRANCH  14  15
HETATM   15  C8  UNL     1       3.089  48.397  59.107  1.00  0.00    -0.013 C 
HETATM   16  C9  UNL     1       1.648  48.435  58.638  1.00  0.00     0.005 C 
HETATM   17  C10 UNL     1       0.986  49.670  59.155  1.00  0.00     0.000 C 
HETATM   18  C11 UNL     1       0.986  49.752  60.663  1.00  0.00     0.000 C 
HETATM   19  C12 UNL     1       2.422  49.728  61.121  1.00  0.00     0.000 C 
HETATM   20  C13 UNL     1       3.040  48.442  60.659  1.00  0.00     0.005 C 
ENDBRANCH  14  15
ENDBRANCH   1  14
BRANCH   1  21
HETATM   21  N4  UNL     1       4.203  45.646  56.944  1.00  0.00    -0.353 N 
HETATM   22  C14 UNL     1       3.181  45.512  55.958  1.00  0.00     0.240 C 
HETATM   23  O2  UNL     1       2.594  46.609  55.620  1.00  0.00    -0.271 OA
ATOM     24  H4  UNL     1       4.714  44.817  57.248  1.00  0.00     0.163 HD
BRANCH  22  25
HETATM   25  C15 UNL     1       2.767  44.277  55.319  1.00  0.00     0.177 C 
BRANCH  25  26
HETATM   26  C16 UNL     1       1.845  43.342  55.980  1.00  0.00     0.038 C 
BRANCH  26  27
HETATM   27  C17 UNL     1       1.613  43.377  57.440  1.00  0.00    -0.020 C 
HETATM   28  C18 UNL     1       2.746  42.957  58.310  1.00  0.00     0.009 C 
HETATM   29  C19 UNL     1       0.908  44.597  57.934  1.00  0.00     0.009 C 
ENDBRANCH  26  27
ENDBRANCH  25  26
BRANCH  25  30
HETATM   30  N5  UNL     1       2.140  44.618  54.028  1.00  0.00    -0.347 N 
HETATM   31  C20 UNL     1       2.117  43.776  52.919  1.00  0.00     0.233 C 
HETATM   32  O3  UNL     1       2.626  42.625  52.897  1.00  0.00    -0.272 OA
ATOM     33  H5  UNL     1       1.694  45.532  53.941  1.00  0.00     0.163 HD
BRANCH  31  34
HETATM   34  C21 UNL     1       1.468  44.176  51.628  1.00  0.00     0.223 C 
BRANCH  34  35
HETATM   35  N6  UNL     1       2.278  43.870  50.470  1.00  0.00    -0.188 NA
HETATM   36  C22 UNL     1       2.873  45.116  49.936  1.00  0.00     0.123 C 
HETATM   37  C23 UNL     1       1.896  45.595  48.890  1.00  0.00     0.045 C 
HETATM   38  C24 UNL     1       0.842  44.512  48.910  1.00  0.00     0.195 C 
HETATM   39  O4  UNL     1       1.500  43.429  49.438  1.00  0.00    -0.303 OA
ENDBRANCH  34  35
ENDBRANCH  31  34
ENDBRANCH  25  30
ENDBRANCH  22  25
ENDBRANCH   1  21
TORSDOF 14
ENDMDL
MODEL 3
REMARK VINA RESULT: -6.420228078      3.086      7.410
REMARK  14 active torsions:
REMARK  status: ('A' for Active; 'I' for Inactive)
REMARK    1  A    between atoms: O1_2  and  C2_3 
REMARK    2  A    between atoms: C2_3  and  C3_4 
REMARK    3  A    between atoms: C3_4  and  C4_5 
REMARK    4  A    between atoms: C4_5  and  N1_6 
REMARK    5  A    between atoms: C4_5  and  C6_13 
REMARK       I    between atoms: N1_6  and  C5_8 
REMARK    6  A    between atoms: C6_13  and  C7_14 
REMARK    7  A    between atoms: C6_13  and  N4_21 
REMARK    8  A    between atoms: C7_14  and  C8_15 
REMARK       I    between atoms: N4_21  and  C14_23 
REMARK    9  A    between atoms: C14_23  and  C15_25 
REMARK   10  A    between atoms: C15_25  and  C16_26 
REMARK   11  A    between atoms: C15_25  and  N5_30 
REMARK   12  A    between atoms: C16_26  and  C17_27 
REMARK       I    between atoms: N5_30  and  C20_32 
REMARK   13  A    between atoms: C20_32  and  C21_34 
REMARK   14  A    between atoms: C21_34  and  N6_35 
ROOT
HETATM    1  C6  UNL     1       2.276  46.641  58.050  1.00  0.00     0.107 C 
ENDROOT
BRANCH   1   2
HETATM    2  C4  UNL     1       1.407  47.410  58.975  1.00  0.00     0.108 C 
BRANCH   2   3
HETATM    3  C3  UNL     1       1.765  48.908  58.971  1.00  0.00     0.053 C 
BRANCH   3   4
HETATM    4  C2  UNL     1       2.054  49.427  60.346  1.00  0.00     0.169 C 
BRANCH   4   5
HETATM    5  O1  UNL     1       3.447  49.376  60.516  1.00  0.00    -0.396 OA
HETATM    6  C1  UNL     1       3.688  49.039  61.850  1.00  0.00     0.201 C 
ENDBRANCH   4   5
ENDBRANCH   3   4
ENDBRANCH   2   3
BRANCH   2   7
HETATM    7  N1  UNL     1      -0.010  47.260  58.888  1.00  0.00    -0.358 N 
HETATM    8  C5  UNL     1      -0.748  46.507  59.864  1.00  0.00     0.182 C 
HETATM    9  N2  UNL     1      -1.959  46.145  59.589  1.00  0.00    -0.374 N 
HETATM   10  N3  UNL     1      -0.241  46.125  61.117  1.00  0.00    -0.064 NA
ATOM     11  H22 UNL     1      -2.328  46.421  58.680  1.00  0.00     0.158 HD
ATOM     12  H21 UNL     1      -2.484  45.610  60.282  1.00  0.00     0.158 HD
ATOM     13  H1  UNL     1      -0.510  47.698  58.115  1.00  0.00     0.162 HD
ENDBRANCH   2   7
ENDBRANCH   1   2
BRANCH   1  14
HETATM   14  C7  UNL     1       2.012  45.206  57.857  1.00  0.00     0.032 C 
BRANCH  14  15
HETATM   15  C8  UNL     1       1.707  44.633  56.547  1.00  0.00    -0.013 C 
HETATM   16  C9  UNL     1       2.338  45.360  55.375  1.00  0.00     0.005 C 
HETATM   17  C10 UNL     1       2.092  44.593  54.118  1.00  0.00     0.000 C 
HETATM   18  C11 UNL     1       2.661  43.194  54.159  1.00  0.00     0.000 C 
HETATM   19  C12 UNL     1       2.017  42.474  55.316  1.00  0.00     0.000 C 
HETATM   20  C13 UNL     1       2.348  43.219  56.575  1.00  0.00     0.005 C 
ENDBRANCH  14  15
ENDBRANCH   1  14
BRANCH   1  21
HETATM   21  N4  UNL     1       3.662  46.837  58.557  1.00  0.00    -0.353 N 
HETATM   22  C14 UNL     1       4.714  47.274  57.699  1.00  0.00     0.240 C 
HETATM   23  O2  UNL     1       4.373  47.493  56.475  1.00  0.00    -0.271 OA
ATOM     24  H4  UNL     1       3.863  46.656  59.541  1.00  0.00     0.163 HD
BRANCH  22  25
HETATM   25  C15 UNL     1       6.095  47.492  58.085  1.00  0.00     0.177 C 
BRANCH  25  26
HETATM   26  C16 UNL     1       6.447  48.060  59.394  1.00  0.00     0.038 C 
BRANCH  26  27
HETATM   27  C17 UNL     1       7.609  48.959  59.565  1.00  0.00    -0.020 C 
HETATM   28  C18 UNL     1       8.008  49.774  58.384  1.00  0.00     0.009 C 
HETATM   29  C19 UNL     1       7.625  49.726  60.847  1.00  0.00     0.009 C 
ENDBRANCH  26  27
ENDBRANCH  25  26
BRANCH  25  30
HETATM   30  N5  UNL     1       6.803  46.199  58.002  1.00  0.00    -0.347 N 
HETATM   31  C20 UNL     1       7.912  45.961  57.195  1.00  0.00     0.233 C 
HETATM   32  O3  UNL     1       8.438  46.826  56.447  1.00  0.00    -0.272 OA
ATOM     33  H5  UNL     1       6.456  45.429  58.575  1.00  0.00     0.163 HD
BRANCH  31  34
HETATM   34  C21 UNL     1       8.590  44.625  57.147  1.00  0.00     0.223 C 
BRANCH  34  35
HETATM   35  N6  UNL     1       8.541  44.012  55.839  1.00  0.00    -0.188 NA
HETATM   36  C22 UNL     1       7.365  43.118  55.752  1.00  0.00     0.123 C 
HETATM   37  C23 UNL     1       7.881  41.758  56.159  1.00  0.00     0.045 C 
HETATM   38  C24 UNL     1       9.349  42.026  56.397  1.00  0.00     0.195 C 
HETATM   39  O4  UNL     1       9.594  43.161  55.663  1.00  0.00    -0.303 OA
ENDBRANCH  34  35
ENDBRANCH  31  34
ENDBRANCH  25  30
ENDBRANCH  22  25
ENDBRANCH   1  21
TORSDOF 14
ENDMDL
MODEL 4
REMARK VINA RESULT: -6.162331054      2.726      8.289
REMARK  14 active torsions:
REMARK  status: ('A' for Active; 'I' for Inactive)
REMARK    1  A    between atoms: O1_2  and  C2_3 
REMARK    2  A    between atoms: C2_3  and  C3_4 
REMARK    3  A    between atoms: C3_4  and  C4_5 
REMARK    4  A    between atoms: C4_5  and  N1_6 
REMARK    5  A    between atoms: C4_5  and  C6_13 
REMARK       I    between atoms: N1_6  and  C5_8 
REMARK    6  A    between atoms: C6_13  and  C7_14 
REMARK    7  A    between atoms: C6_13  and  N4_21 
REMARK    8  A    between atoms: C7_14  and  C8_15 
REMARK       I    between atoms: N4_21  and  C14_23 
REMARK    9  A    between atoms: C14_23  and  C15_25 
REMARK   10  A    between atoms: C15_25  and  C16_26 
REMARK   11  A    between atoms: C15_25  and  N5_30 
REMARK   12  A    between atoms: C16_26  and  C17_27 
REMARK       I    between atoms: N5_30  and  C20_32 
REMARK   13  A    between atoms: C20_32  and  C21_34 
REMARK   14  A    between atoms: C21_34  and  N6_35 
ROOT
HETATM    1  C6  UNL     1       4.092  44.117  57.076  1.00  0.00     0.107 C 
ENDROOT
BRANCH   1   2
HETATM    2  C4  UNL     1       2.776  43.599  56.626  1.00  0.00     0.108 C 
BRANCH   2   3
HETATM    3  C3  UNL     1       2.804  43.206  55.137  1.00  0.00     0.053 C 
BRANCH   3   4
HETATM    4  C2  UNL     1       1.753  42.195  54.797  1.00  0.00     0.169 C 
BRANCH   4   5
HETATM    5  O1  UNL     1       1.753  42.061  53.399  1.00  0.00    -0.396 OA
HETATM    6  C1  UNL     1       2.102  43.303  52.865  1.00  0.00     0.201 C 
ENDBRANCH   4   5
ENDBRANCH   3   4
ENDBRANCH   2   3
BRANCH   2   7
HETATM    7  N1  UNL     1       2.139  42.566  57.378  1.00  0.00    -0.358 N 
HETATM    8  C5  UNL     1       1.470  42.842  58.619  1.00  0.00     0.182 C 
HETATM    9  N2  UNL     1       1.177  41.858  59.405  1.00  0.00    -0.374 N 
HETATM   10  N3  UNL     1       1.105  44.128  59.052  1.00  0.00    -0.064 NA
ATOM     11  H22 UNL     1       1.442  40.924  59.092  1.00  0.00     0.158 HD
ATOM     12  H21 UNL     1       0.702  42.053  60.287  1.00  0.00     0.158 HD
ATOM     13  H1  UNL     1       2.159  41.609  57.026  1.00  0.00     0.162 HD
ENDBRANCH   2   7
ENDBRANCH   1   2
BRANCH   1  14
HETATM   14  C7  UNL     1       4.992  43.219  57.819  1.00  0.00     0.032 C 
BRANCH  14  15
HETATM   15  C8  UNL     1       6.395  43.033  57.450  1.00  0.00    -0.013 C 
HETATM   16  C9  UNL     1       7.007  41.731  57.927  1.00  0.00     0.005 C 
HETATM   17  C10 UNL     1       8.379  41.583  57.355  1.00  0.00     0.000 C 
HETATM   18  C11 UNL     1       8.389  41.576  55.844  1.00  0.00     0.000 C 
HETATM   19  C12 UNL     1       7.793  42.879  55.378  1.00  0.00     0.000 C 
HETATM   20  C13 UNL     1       6.389  42.965  55.899  1.00  0.00     0.005 C 
ENDBRANCH  14  15
ENDBRANCH   1  14
BRANCH   1  21
HETATM   21  N4  UNL     1       3.781  45.317  57.900  1.00  0.00    -0.353 N 
HETATM   22  C14 UNL     1       3.502  46.580  57.300  1.00  0.00     0.240 C 
HETATM   23  O2  UNL     1       3.529  46.596  56.011  1.00  0.00    -0.271 OA
ATOM     24  H4  UNL     1       3.766  45.233  58.916  1.00  0.00     0.163 HD
BRANCH  22  25
HETATM   25  C15 UNL     1       3.194  47.810  58.003  1.00  0.00     0.177 C 
BRANCH  25  26
HETATM   26  C16 UNL     1       1.810  48.181  58.333  1.00  0.00     0.038 C 
BRANCH  26  27
HETATM   27  C17 UNL     1       1.441  48.704  59.666  1.00  0.00    -0.020 C 
HETATM   28  C18 UNL     1       0.993  50.123  59.730  1.00  0.00     0.009 C 
HETATM   29  C19 UNL     1       0.606  47.781  60.493  1.00  0.00     0.009 C 
ENDBRANCH  26  27
ENDBRANCH  25  26
BRANCH  25  30
HETATM   30  N5  UNL     1       3.926  47.801  59.285  1.00  0.00    -0.347 N 
HETATM   31  C20 UNL     1       5.255  48.188  59.433  1.00  0.00     0.233 C 
HETATM   32  O3  UNL     1       5.980  48.595  58.488  1.00  0.00    -0.272 OA
ATOM     33  H5  UNL     1       3.425  47.489  60.117  1.00  0.00     0.163 HD
BRANCH  31  34
HETATM   34  C21 UNL     1       5.951  48.155  60.760  1.00  0.00     0.223 C 
BRANCH  34  35
HETATM   35  N6  UNL     1       5.836  49.398  61.490  1.00  0.00    -0.188 NA
HETATM   36  C22 UNL     1       6.317  49.207  62.876  1.00  0.00     0.123 C 
HETATM   37  C23 UNL     1       5.084  48.849  63.669  1.00  0.00     0.045 C 
HETATM   38  C24 UNL     1       3.994  48.922  62.625  1.00  0.00     0.195 C 
HETATM   39  O4  UNL     1       4.525  49.741  61.659  1.00  0.00    -0.303 OA
ENDBRANCH  34  35
ENDBRANCH  31  34
ENDBRANCH  25  30
ENDBRANCH  22  25
ENDBRANCH   1  21
TORSDOF 14
ENDMDL
MODEL 5
REMARK VINA RESULT: -6.161302009      2.652      8.258
REMARK  14 active torsions:
REMARK  status: ('A' for Active; 'I' for Inactive)
REMARK    1  A    between atoms: O1_2  and  C2_3 
REMARK    2  A    between atoms: C2_3  and  C3_4 
REMARK    3  A    between atoms: C3_4  and  C4_5 
REMARK    4  A    between atoms: C4_5  and  N1_6 
REMARK    5  A    between atoms: C4_5  and  C6_13 
REMARK       I    between atoms: N1_6  and  C5_8 
REMARK    6  A    between atoms: C6_13  and  C7_14 
REMARK    7  A    between atoms: C6_13  and  N4_21 
REMARK    8  A    between atoms: C7_14  and  C8_15 
REMARK       I    between atoms: N4_21  and  C14_23 
REMARK    9  A    between atoms: C14_23  and  C15_25 
REMARK   10  A    between atoms: C15_25  and  C16_26 
REMARK   11  A    between atoms: C15_25  and  N5_30 
REMARK   12  A    between atoms: C16_26  and  C17_27 
REMARK       I    between atoms: N5_30  and  C20_32 
REMARK   13  A    between atoms: C20_32  and  C21_34 
REMARK   14  A    between atoms: C21_34  and  N6_35 
ROOT
HETATM    1  C6  UNL     1       4.033  44.282  56.819  1.00  0.00     0.107 C 
ENDROOT
BRANCH   1   2
HETATM    2  C4  UNL     1       2.650  43.835  56.521  1.00  0.00     0.108 C 
BRANCH   2   3
HETATM    3  C3  UNL     1       2.452  43.576  55.016  1.00  0.00     0.053 C 
BRANCH   3   4
HETATM    4  C2  UNL     1       1.894  42.213  54.742  1.00  0.00     0.169 C 
BRANCH   4   5
HETATM    5  O1  UNL     1       1.678  42.131  53.358  1.00  0.00    -0.396 OA
HETATM    6  C1  UNL     1       2.047  43.361  52.808  1.00  0.00     0.201 C 
ENDBRANCH   4   5
ENDBRANCH   3   4
ENDBRANCH   2   3
BRANCH   2   7
HETATM    7  N1  UNL     1       2.091  42.754  57.267  1.00  0.00    -0.358 N 
HETATM    8  C5  UNL     1       1.541  42.950  58.580  1.00  0.00     0.182 C 
HETATM    9  N2  UNL     1       1.328  41.918  59.330  1.00  0.00    -0.374 N 
HETATM   10  N3  UNL     1       1.214  44.204  59.121  1.00  0.00    -0.064 NA
ATOM     11  H22 UNL     1       1.566  41.007  58.938  1.00  0.00     0.158 HD
ATOM     12  H21 UNL     1       0.938  42.056  60.262  1.00  0.00     0.158 HD
ATOM     13  H1  UNL     1       2.081  41.819  56.858  1.00  0.00     0.162 HD
ENDBRANCH   2   7
ENDBRANCH   1   2
BRANCH   1  14
HETATM   14  C7  UNL     1       5.005  43.297  57.320  1.00  0.00     0.032 C 
BRANCH  14  15
HETATM   15  C8  UNL     1       6.443  43.421  57.081  1.00  0.00    -0.013 C 
HETATM   16  C9  UNL     1       7.308  42.532  57.953  1.00  0.00     0.005 C 
HETATM   17  C10 UNL     1       8.731  42.626  57.508  1.00  0.00     0.000 C 
HETATM   18  C11 UNL     1       8.928  42.203  56.071  1.00  0.00     0.000 C 
HETATM   19  C12 UNL     1       8.076  43.101  55.211  1.00  0.00     0.000 C 
HETATM   20  C13 UNL     1       6.645  42.927  55.623  1.00  0.00     0.005 C 
ENDBRANCH  14  15
ENDBRANCH   1  14
BRANCH   1  21
HETATM   21  N4  UNL     1       3.885  45.391  57.800  1.00  0.00    -0.353 N 
HETATM   22  C14 UNL     1       3.642  46.732  57.378  1.00  0.00     0.240 C 
HETATM   23  O2  UNL     1       3.551  46.900  56.103  1.00  0.00    -0.271 OA
ATOM     24  H4  UNL     1       3.958  45.188  58.797  1.00  0.00     0.163 HD
BRANCH  22  25
HETATM   25  C15 UNL     1       3.487  47.885  58.244  1.00  0.00     0.177 C 
BRANCH  25  26
HETATM   26  C16 UNL     1       2.340  48.015  59.153  1.00  0.00     0.038 C 
BRANCH  26  27
HETATM   27  C17 UNL     1       2.059  49.273  59.878  1.00  0.00    -0.020 C 
HETATM   28  C18 UNL     1       0.882  50.062  59.421  1.00  0.00     0.009 C 
HETATM   29  C19 UNL     1       2.168  49.178  61.365  1.00  0.00     0.009 C 
ENDBRANCH  26  27
ENDBRANCH  25  26
BRANCH  25  30
HETATM   30  N5  UNL     1       4.690  47.984  59.094  1.00  0.00    -0.347 N 
HETATM   31  C20 UNL     1       5.972  48.238  58.615  1.00  0.00     0.233 C 
HETATM   32  O3  UNL     1       6.248  48.416  57.399  1.00  0.00    -0.272 OA
ATOM     33  H5  UNL     1       4.574  47.858  60.100  1.00  0.00     0.163 HD
BRANCH  31  34
HETATM   34  C21 UNL     1       7.160  48.324  59.525  1.00  0.00     0.223 C 
BRANCH  34  35
HETATM   35  N6  UNL     1       7.212  49.562  60.270  1.00  0.00    -0.188 NA
HETATM   36  C22 UNL     1       8.411  49.571  61.137  1.00  0.00     0.123 C 
HETATM   37  C23 UNL     1       7.939  49.016  62.459  1.00  0.00     0.045 C 
HETATM   38  C24 UNL     1       6.466  48.788  62.208  1.00  0.00     0.195 C 
HETATM   39  O4  UNL     1       6.181  49.633  61.163  1.00  0.00    -0.303 OA
ENDBRANCH  34  35
ENDBRANCH  31  34
ENDBRANCH  25  30
ENDBRANCH  22  25
ENDBRANCH   1  21
TORSDOF 14
ENDMDL
