MODEL 1
REMARK VINA RESULT: -4.525930651      0.000      0.000
REMARK  4 active torsions:
REMARK  status: ('A' for Active; 'I' for Inactive)
REMARK    1  A    between atoms: S1_2  and  C2_3 
REMARK    2  A    between atoms: C3_6  and  C4_7 
REMARK    3  A    between atoms: C4_7  and  N2_8 
REMARK    4  A    between atoms: C4_7  and  N3_12 
ROOT
HETATM    1  C2  UNL     1      44.769  -7.950  -5.732  1.00  0.00     0.160 A 
HETATM    2  N1  UNL     1      43.697  -7.654  -4.981  1.00  0.00    -0.321 N 
ATOM      3  H1  UNL     1      42.730  -7.671  -5.304  1.00  0.00     0.169 HD
HETATM    4  C3  UNL     1      44.092  -7.331  -3.739  1.00  0.00     0.156 A 
HETATM    5  N4  UNL     1      45.432  -7.435  -3.740  1.00  0.00    -0.284 N 
ATOM      6  H4  UNL     1      46.040  -7.255  -2.941  1.00  0.00     0.188 HD
HETATM    7  N5  UNL     1      45.838  -7.809  -4.944  1.00  0.00    -0.278 N 
ATOM      8  H5  UNL     1      46.807  -7.964  -5.222  1.00  0.00     0.189 HD
ENDROOT
BRANCH   4   9
HETATM    9  C4  UNL     1      43.170  -6.947  -2.638  1.00  0.00     0.446 C 
BRANCH   9  10
HETATM   10  N2  UNL     1      43.958  -6.310  -1.601  1.00  0.00    -0.043 N 
ATOM     11  H23 UNL     1      44.489  -6.977  -1.042  1.00  0.00     0.277 HD
ATOM     12  H22 UNL     1      44.750  -5.785  -1.972  1.00  0.00     0.277 HD
ATOM     13  H21 UNL     1      43.330  -5.734  -1.041  1.00  0.00     0.277 HD
ENDBRANCH   9  10
BRANCH   9  14
HETATM   14  N3  UNL     1      42.653  -8.185  -2.076  1.00  0.00    -0.043 N 
ATOM     15  H33 UNL     1      41.634  -8.230  -2.069  1.00  0.00     0.277 HD
ATOM     16  H32 UNL     1      42.812  -8.997  -2.673  1.00  0.00     0.277 HD
ATOM     17  H31 UNL     1      43.067  -8.281  -1.148  1.00  0.00     0.277 HD
ENDBRANCH   9  14
ENDBRANCH   4   9
BRANCH   1  18
HETATM   18  S1  UNL     1      44.713  -8.430  -7.431  1.00  0.00    -0.097 SA
HETATM   19  C1  UNL     1      44.342 -10.190  -7.566  1.00  0.00     0.099 C 
ENDBRANCH   1  18
TORSDOF 4
ENDMDL
MODEL 2
REMARK VINA RESULT: -4.522809731      0.481      1.130
REMARK  4 active torsions:
REMARK  status: ('A' for Active; 'I' for Inactive)
REMARK    1  A    between atoms: S1_2  and  C2_3 
REMARK    2  A    between atoms: C3_6  and  C4_7 
REMARK    3  A    between atoms: C4_7  and  N2_8 
REMARK    4  A    between atoms: C4_7  and  N3_12 
ROOT
HETATM    1  C2  UNL     1      44.663  -7.976  -5.705  1.00  0.00     0.160 A 
HETATM    2  N1  UNL     1      43.726  -7.816  -4.757  1.00  0.00    -0.321 N 
ATOM      3  H1  UNL     1      42.723  -7.934  -4.897  1.00  0.00     0.169 HD
HETATM    4  C3  UNL     1      44.310  -7.477  -3.597  1.00  0.00     0.156 A 
HETATM    5  N4  UNL     1      45.630  -7.432  -3.849  1.00  0.00    -0.284 N 
ATOM      6  H4  UNL     1      46.354  -7.202  -3.169  1.00  0.00     0.188 HD
HETATM    7  N5  UNL     1      45.840  -7.734  -5.121  1.00  0.00    -0.278 N 
ATOM      8  H5  UNL     1      46.750  -7.774  -5.579  1.00  0.00     0.189 HD
ENDROOT
BRANCH   4   9
HETATM    9  C4  UNL     1      43.576  -7.220  -2.331  1.00  0.00     0.446 C 
BRANCH   9  10
HETATM   10  N2  UNL     1      42.337  -7.972  -2.377  1.00  0.00    -0.043 N 
ATOM     11  H23 UNL     1      41.516  -7.392  -2.205  1.00  0.00     0.277 HD
ATOM     12  H22 UNL     1      42.093  -8.276  -3.319  1.00  0.00     0.277 HD
ATOM     13  H21 UNL     1      42.418  -8.748  -1.720  1.00  0.00     0.277 HD
ENDBRANCH   9  10
BRANCH   9  14
HETATM   14  N3  UNL     1      43.216  -5.811  -2.335  1.00  0.00    -0.043 N 
ATOM     15  H33 UNL     1      42.387  -5.608  -2.894  1.00  0.00     0.277 HD
ATOM     16  H32 UNL     1      42.848  -5.486  -1.441  1.00  0.00     0.277 HD
ATOM     17  H31 UNL     1      44.043  -5.298  -2.641  1.00  0.00     0.277 HD
ENDBRANCH   9  14
ENDBRANCH   4   9
BRANCH   1  18
HETATM   18  S1  UNL     1      44.340  -8.424  -7.382  1.00  0.00    -0.097 SA
HETATM   19  C1  UNL     1      44.340 -10.220  -7.554  1.00  0.00     0.099 C 
ENDBRANCH   1  18
TORSDOF 4
ENDMDL
MODEL 3
REMARK VINA RESULT: -4.376421377      0.921      1.195
REMARK  4 active torsions:
REMARK  status: ('A' for Active; 'I' for Inactive)
REMARK    1  A    between atoms: S1_2  and  C2_3 
REMARK    2  A    between atoms: C3_6  and  C4_7 
REMARK    3  A    between atoms: C4_7  and  N2_8 
REMARK    4  A    between atoms: C4_7  and  N3_12 
ROOT
HETATM    1  C2  UNL     1      44.815  -7.704  -5.782  1.00  0.00     0.160 A 
HETATM    2  N1  UNL     1      43.859  -7.010  -5.144  1.00  0.00    -0.321 N 
ATOM      3  H1  UNL     1      42.950  -6.765  -5.536  1.00  0.00     0.169 HD
HETATM    4  C3  UNL     1      44.282  -6.687  -3.911  1.00  0.00     0.156 A 
HETATM    5  N4  UNL     1      45.521  -7.198  -3.802  1.00  0.00    -0.284 N 
ATOM      6  H4  UNL     1      46.120  -7.124  -2.980  1.00  0.00     0.188 HD
HETATM    7  N5  UNL     1      45.840  -7.810  -4.932  1.00  0.00    -0.278 N 
ATOM      8  H5  UNL     1      46.723  -8.286  -5.121  1.00  0.00     0.189 HD
ENDROOT
BRANCH   4   9
HETATM    9  C4  UNL     1      43.482  -5.918  -2.924  1.00  0.00     0.446 C 
BRANCH   9  10
HETATM   10  N2  UNL     1      43.699  -4.507  -3.179  1.00  0.00    -0.043 N 
ATOM     11  H23 UNL     1      42.844  -3.955  -3.103  1.00  0.00     0.277 HD
ATOM     12  H22 UNL     1      44.224  -4.046  -2.436  1.00  0.00     0.277 HD
ATOM     13  H21 UNL     1      44.146  -4.420  -4.092  1.00  0.00     0.277 HD
ENDBRANCH   9  10
BRANCH   9  14
HETATM   14  N3  UNL     1      44.048  -6.202  -1.615  1.00  0.00    -0.043 N 
ATOM     15  H33 UNL     1      44.955  -6.667  -1.660  1.00  0.00     0.277 HD
ATOM     16  H32 UNL     1      44.358  -5.367  -1.119  1.00  0.00     0.277 HD
ATOM     17  H31 UNL     1      43.346  -6.737  -1.102  1.00  0.00     0.277 HD
ENDBRANCH   9  14
ENDBRANCH   4   9
BRANCH   1  18
HETATM   18  S1  UNL     1      44.683  -8.330  -7.428  1.00  0.00    -0.097 SA
HETATM   19  C1  UNL     1      44.319 -10.096  -7.391  1.00  0.00     0.099 C 
ENDBRANCH   1  18
TORSDOF 4
ENDMDL
MODEL 4
REMARK VINA RESULT: -4.368554863      9.283     10.689
REMARK  4 active torsions:
REMARK  status: ('A' for Active; 'I' for Inactive)
REMARK    1  A    between atoms: S1_2  and  C2_3 
REMARK    2  A    between atoms: C3_6  and  C4_7 
REMARK    3  A    between atoms: C4_7  and  N2_8 
REMARK    4  A    between atoms: C4_7  and  N3_12 
ROOT
HETATM    1  C2  UNL     1      37.852  -4.090  -9.394  1.00  0.00     0.160 A 
HETATM    2  N1  UNL     1      38.298  -4.859 -10.399  1.00  0.00    -0.321 N 
ATOM      3  H1  UNL     1      39.058  -5.535 -10.329  1.00  0.00     0.169 HD
HETATM    4  C3  UNL     1      37.591  -4.603 -11.511  1.00  0.00     0.156 A 
HETATM    5  N4  UNL     1      36.698  -3.658 -11.170  1.00  0.00    -0.284 N 
ATOM      6  H4  UNL     1      36.006  -3.244 -11.795  1.00  0.00     0.188 HD
HETATM    7  N5  UNL     1      36.858  -3.351  -9.892  1.00  0.00    -0.278 N 
ATOM      8  H5  UNL     1      36.311  -2.663  -9.374  1.00  0.00     0.189 HD
ENDROOT
BRANCH   4   9
HETATM    9  C4  UNL     1      37.811  -5.273 -12.819  1.00  0.00     0.446 C 
BRANCH   9  10
HETATM   10  N2  UNL     1      36.569  -5.212 -13.564  1.00  0.00    -0.043 N 
ATOM     11  H23 UNL     1      35.777  -4.925 -12.989  1.00  0.00     0.277 HD
ATOM     12  H22 UNL     1      36.542  -4.437 -14.227  1.00  0.00     0.277 HD
ATOM     13  H21 UNL     1      36.427  -6.118 -14.010  1.00  0.00     0.277 HD
ENDBRANCH   9  10
BRANCH   9  14
HETATM   14  N3  UNL     1      38.063  -6.677 -12.532  1.00  0.00    -0.043 N 
ATOM     15  H33 UNL     1      38.965  -7.004 -12.880  1.00  0.00     0.277 HD
ATOM     16  H32 UNL     1      38.234  -6.862 -11.544  1.00  0.00     0.277 HD
ATOM     17  H31 UNL     1      37.272  -7.199 -12.909  1.00  0.00     0.277 HD
ENDBRANCH   9  14
ENDBRANCH   4   9
BRANCH   1  18
HETATM   18  S1  UNL     1      38.497  -4.099  -7.750  1.00  0.00    -0.097 SA
HETATM   19  C1  UNL     1      37.215  -3.614  -6.579  1.00  0.00     0.099 C 
ENDBRANCH   1  18
TORSDOF 4
ENDMDL
MODEL 5
REMARK VINA RESULT: -4.319176724      2.401      3.489
REMARK  4 active torsions:
REMARK  status: ('A' for Active; 'I' for Inactive)
REMARK    1  A    between atoms: S1_2  and  C2_3 
REMARK    2  A    between atoms: C3_6  and  C4_7 
REMARK    3  A    between atoms: C4_7  and  N2_8 
REMARK    4  A    between atoms: C4_7  and  N3_12 
ROOT
HETATM    1  C2  UNL     1      44.893  -6.283  -4.663  1.00  0.00     0.160 A 
HETATM    2  N1  UNL     1      44.292  -6.819  -3.589  1.00  0.00    -0.321 N 
ATOM      3  H1  UNL     1      44.313  -6.428  -2.648  1.00  0.00     0.169 HD
HETATM    4  C3  UNL     1      43.658  -7.948  -3.943  1.00  0.00     0.156 A 
HETATM    5  N4  UNL     1      43.880  -8.097  -5.261  1.00  0.00    -0.284 N 
ATOM      6  H4  UNL     1      43.531  -8.863  -5.837  1.00  0.00     0.188 HD
HETATM    7  N5  UNL     1      44.625  -7.091  -5.692  1.00  0.00    -0.278 N 
ATOM      8  H5  UNL     1      44.943  -6.956  -6.652  1.00  0.00     0.189 HD
ENDROOT
BRANCH   4   9
HETATM    9  C4  UNL     1      42.885  -8.806  -3.008  1.00  0.00     0.446 C 
BRANCH   9  10
HETATM   10  N2  UNL     1      41.978  -9.618  -3.796  1.00  0.00    -0.043 N 
ATOM     11  H23 UNL     1      41.346  -9.060  -4.370  1.00  0.00     0.277 HD
ATOM     12  H22 UNL     1      42.448 -10.112  -4.555  1.00  0.00     0.277 HD
ATOM     13  H21 UNL     1      41.487 -10.245  -3.160  1.00  0.00     0.277 HD
ENDBRANCH   9  10
BRANCH   9  14
HETATM   14  N3  UNL     1      42.064  -7.913  -2.205  1.00  0.00    -0.043 N 
ATOM     15  H33 UNL     1      41.638  -8.373  -1.400  1.00  0.00     0.277 HD
ATOM     16  H32 UNL     1      42.607  -7.224  -1.685  1.00  0.00     0.277 HD
ATOM     17  H31 UNL     1      41.382  -7.494  -2.837  1.00  0.00     0.277 HD
ENDBRANCH   9  14
ENDBRANCH   4   9
BRANCH   1  18
HETATM   18  S1  UNL     1      45.839  -4.792  -4.654  1.00  0.00    -0.097 SA
HETATM   19  C1  UNL     1      45.138  -3.620  -3.475  1.00  0.00     0.099 C 
ENDBRANCH   1  18
TORSDOF 4
ENDMDL
