MODEL 1
REMARK VINA RESULT: -4.985039715      0.000      0.000
REMARK  3 active torsions:
REMARK  status: ('A' for Active; 'I' for Inactive)
REMARK    1  A    between atoms: C2_7  and  N4_8 
REMARK    2  A    between atoms: N4_8  and  N5_10 
REMARK    3  A    between atoms: N5_10  and  C3_12 
ROOT
HETATM    1  N4  UNL     1      45.835  -7.633  -4.496  1.00  0.00    -0.287 N 
ATOM      2  H4  UNL     1      46.472  -8.424  -4.408  1.00  0.00     0.188 HD
ENDROOT
BRANCH   1   3
HETATM    3  C2  UNL     1      44.918  -7.312  -3.465  1.00  0.00     0.149 A 
HETATM    4  C1  UNL     1      44.995  -6.259  -2.566  1.00  0.00     0.155 A 
HETATM    5  N1  UNL     1      43.965  -6.309  -1.699  1.00  0.00    -0.292 N 
HETATM    6  N2  UNL     1      43.242  -7.369  -2.032  1.00  0.00    -0.021 NA
ATOM      7  H1  UNL     1      43.778  -5.658  -0.936  1.00  0.00     0.183 HD
HETATM    8  N3  UNL     1      43.793  -7.972  -3.072  1.00  0.00    -0.267 N 
ATOM      9  H3  UNL     1      43.427  -8.813  -3.518  1.00  0.00     0.186 HD
ENDBRANCH   1   3
BRANCH   1  10
HETATM   10  N5  UNL     1      45.840  -6.844  -5.619  1.00  0.00    -0.327 N 
ATOM     11  H5  UNL     1      46.041  -5.845  -5.563  1.00  0.00     0.180 HD
BRANCH  10  12
HETATM   12  C3  UNL     1      45.556  -7.468  -6.858  1.00  0.00     0.150 A 
HETATM   13  C4  UNL     1      45.222  -8.930  -6.820  1.00  0.00     0.260 A 
HETATM   14  N6  UNL     1      43.965  -8.585  -7.505  1.00  0.00    -0.071 N 
HETATM   15  C5  UNL     1      44.337  -7.160  -7.626  1.00  0.00     0.260 A 
ATOM     16  H62 UNL     1      43.707  -9.099  -8.348  1.00  0.00     0.277 HD
ATOM     17  H61 UNL     1      43.080  -8.826  -7.058  1.00  0.00     0.277 HD
ENDBRANCH  10  12
ENDBRANCH   1  10
TORSDOF 3
ENDMDL
MODEL 2
REMARK VINA RESULT: -4.924570302      9.354     11.278
REMARK  3 active torsions:
REMARK  status: ('A' for Active; 'I' for Inactive)
REMARK    1  A    between atoms: C2_7  and  N4_8 
REMARK    2  A    between atoms: N4_8  and  N5_10 
REMARK    3  A    between atoms: N5_10  and  C3_12 
ROOT
HETATM    1  N4  UNL     1      36.943  -4.395 -13.252  1.00  0.00    -0.287 N 
ATOM      2  H4  UNL     1      37.319  -3.781 -13.975  1.00  0.00     0.188 HD
ENDROOT
BRANCH   1   3
HETATM    3  C2  UNL     1      37.327  -4.248 -11.896  1.00  0.00     0.149 A 
HETATM    4  C1  UNL     1      38.322  -4.939 -11.222  1.00  0.00     0.155 A 
HETATM    5  N1  UNL     1      38.360  -4.562  -9.930  1.00  0.00    -0.292 N 
HETATM    6  N2  UNL     1      37.412  -3.648  -9.775  1.00  0.00    -0.021 NA
ATOM      7  H1  UNL     1      38.994  -4.910  -9.210  1.00  0.00     0.183 HD
HETATM    8  N3  UNL     1      36.793  -3.453 -10.928  1.00  0.00    -0.267 N 
ATOM      9  H3  UNL     1      36.024  -2.799 -11.071  1.00  0.00     0.186 HD
ENDBRANCH   1   3
BRANCH   1  10
HETATM   10  N5  UNL     1      36.050  -5.389 -13.563  1.00  0.00    -0.327 N 
ATOM     11  H5  UNL     1      35.159  -5.471 -13.074  1.00  0.00     0.180 HD
BRANCH  10  12
HETATM   12  C3  UNL     1      36.412  -6.296 -14.588  1.00  0.00     0.150 A 
HETATM   13  C4  UNL     1      37.853  -6.307 -15.007  1.00  0.00     0.260 A 
HETATM   14  N6  UNL     1      37.855  -7.747 -14.697  1.00  0.00    -0.071 N 
HETATM   15  C5  UNL     1      36.413  -7.754 -14.376  1.00  0.00     0.260 A 
ATOM     16  H62 UNL     1      38.205  -8.400 -15.398  1.00  0.00     0.277 HD
ATOM     17  H61 UNL     1      38.515  -8.099 -14.003  1.00  0.00     0.277 HD
ENDBRANCH  10  12
ENDBRANCH   1  10
TORSDOF 3
ENDMDL
MODEL 3
REMARK VINA RESULT: -4.838227443      9.144     10.546
REMARK  3 active torsions:
REMARK  status: ('A' for Active; 'I' for Inactive)
REMARK    1  A    between atoms: C2_7  and  N4_8 
REMARK    2  A    between atoms: N4_8  and  N5_10 
REMARK    3  A    between atoms: N5_10  and  C3_12 
ROOT
HETATM    1  N4  UNL     1      36.939  -3.739 -11.512  1.00  0.00    -0.287 N 
ATOM      2  H4  UNL     1      36.233  -3.267 -12.077  1.00  0.00     0.188 HD
ENDROOT
BRANCH   1   3
HETATM    3  C2  UNL     1      36.895  -3.691 -10.097  1.00  0.00     0.149 A 
HETATM    4  C1  UNL     1      37.876  -4.108  -9.209  1.00  0.00     0.155 A 
HETATM    5  N1  UNL     1      37.453  -3.951  -7.939  1.00  0.00    -0.292 N 
HETATM    6  N2  UNL     1      36.230  -3.444  -8.008  1.00  0.00    -0.021 NA
ATOM      7  H1  UNL     1      37.972  -4.178  -7.091  1.00  0.00     0.183 HD
HETATM    8  N3  UNL     1      35.887  -3.286  -9.276  1.00  0.00    -0.267 N 
ATOM      9  H3  UNL     1      34.992  -2.913  -9.593  1.00  0.00     0.186 HD
ENDBRANCH   1   3
BRANCH   1  10
HETATM   10  N5  UNL     1      37.960  -4.442 -12.100  1.00  0.00    -0.327 N 
ATOM     11  H5  UNL     1      38.885  -4.488 -11.673  1.00  0.00     0.180 HD
BRANCH  10  12
HETATM   12  C3  UNL     1      37.682  -5.101 -13.321  1.00  0.00     0.150 A 
HETATM   13  C4  UNL     1      37.279  -6.544 -13.238  1.00  0.00     0.260 A 
HETATM   14  N6  UNL     1      36.059  -6.169 -13.972  1.00  0.00    -0.071 N 
HETATM   15  C5  UNL     1      36.501  -4.769 -14.137  1.00  0.00     0.260 A 
ATOM     16  H62 UNL     1      35.802  -6.704 -14.802  1.00  0.00     0.277 HD
ATOM     17  H61 UNL     1      35.152  -6.351 -13.543  1.00  0.00     0.277 HD
ENDBRANCH  10  12
ENDBRANCH   1  10
TORSDOF 3
ENDMDL
MODEL 4
REMARK VINA RESULT: -4.789929841      1.295      1.438
REMARK  3 active torsions:
REMARK  status: ('A' for Active; 'I' for Inactive)
REMARK    1  A    between atoms: C2_7  and  N4_8 
REMARK    2  A    between atoms: N4_8  and  N5_10 
REMARK    3  A    between atoms: N5_10  and  C3_12 
ROOT
HETATM    1  N4  UNL     1      43.469  -8.112  -4.570  1.00  0.00    -0.287 N 
ATOM      2  H4  UNL     1      42.960  -8.992  -4.495  1.00  0.00     0.188 HD
ENDROOT
BRANCH   1   3
HETATM    3  C2  UNL     1      43.794  -7.355  -3.417  1.00  0.00     0.149 A 
HETATM    4  C1  UNL     1      44.784  -6.392  -3.293  1.00  0.00     0.155 A 
HETATM    5  N1  UNL     1      44.826  -5.925  -2.030  1.00  0.00    -0.292 N 
HETATM    6  N2  UNL     1      43.884  -6.572  -1.357  1.00  0.00    -0.021 NA
ATOM      7  H1  UNL     1      45.458  -5.214  -1.662  1.00  0.00     0.183 HD
HETATM    8  N3  UNL     1      43.268  -7.420  -2.163  1.00  0.00    -0.267 N 
ATOM      9  H3  UNL     1      42.504  -8.036  -1.884  1.00  0.00     0.186 HD
ENDBRANCH   1   3
BRANCH   1  10
HETATM   10  N5  UNL     1      43.863  -7.625  -5.790  1.00  0.00    -0.327 N 
ATOM     11  H5  UNL     1      43.525  -6.726  -6.135  1.00  0.00     0.180 HD
BRANCH  10  12
HETATM   12  C3  UNL     1      44.754  -8.416  -6.554  1.00  0.00     0.150 A 
HETATM   13  C4  UNL     1      44.213  -9.697  -7.118  1.00  0.00     0.260 A 
HETATM   14  N6  UNL     1      44.627  -9.203  -8.441  1.00  0.00    -0.071 N 
HETATM   15  C5  UNL     1      45.245  -7.986  -7.875  1.00  0.00     0.260 A 
ATOM     16  H62 UNL     1      45.192  -9.809  -9.037  1.00  0.00     0.277 HD
ATOM     17  H61 UNL     1      43.921  -9.103  -9.170  1.00  0.00     0.277 HD
ENDBRANCH  10  12
ENDBRANCH   1  10
TORSDOF 3
ENDMDL
MODEL 5
REMARK VINA RESULT: -4.754335127      1.151      1.639
REMARK  3 active torsions:
REMARK  status: ('A' for Active; 'I' for Inactive)
REMARK    1  A    between atoms: C2_7  and  N4_8 
REMARK    2  A    between atoms: N4_8  and  N5_10 
REMARK    3  A    between atoms: N5_10  and  C3_12 
ROOT
HETATM    1  N4  UNL     1      44.682  -6.906  -4.432  1.00  0.00    -0.287 N 
ATOM      2  H4  UNL     1      44.627  -5.900  -4.590  1.00  0.00     0.188 HD
ENDROOT
BRANCH   1   3
HETATM    3  C2  UNL     1      43.791  -7.557  -3.543  1.00  0.00     0.149 A 
HETATM    4  C1  UNL     1      42.969  -8.640  -3.816  1.00  0.00     0.155 A 
HETATM    5  N1  UNL     1      42.228  -8.948  -2.734  1.00  0.00    -0.292 N 
HETATM    6  N2  UNL     1      42.565  -8.084  -1.787  1.00  0.00    -0.021 NA
ATOM      7  H1  UNL     1      41.541  -9.698  -2.658  1.00  0.00     0.183 HD
HETATM    8  N3  UNL     1      43.487  -7.257  -2.250  1.00  0.00    -0.267 N 
ATOM      9  H3  UNL     1      43.910  -6.499  -1.714  1.00  0.00     0.186 HD
ENDBRANCH   1   3
BRANCH   1  10
HETATM   10  N5  UNL     1      45.622  -7.672  -5.075  1.00  0.00    -0.327 N 
ATOM     11  H5  UNL     1      46.403  -8.087  -4.566  1.00  0.00     0.180 HD
BRANCH  10  12
HETATM   12  C3  UNL     1      45.468  -7.864  -6.468  1.00  0.00     0.150 A 
HETATM   13  C4  UNL     1      45.141  -9.254  -6.930  1.00  0.00     0.260 A 
HETATM   14  N6  UNL     1      43.957  -8.677  -7.588  1.00  0.00    -0.071 N 
HETATM   15  C5  UNL     1      44.330  -7.297  -7.214  1.00  0.00     0.260 A 
ATOM     16  H62 UNL     1      43.788  -8.890  -8.571  1.00  0.00     0.277 HD
ATOM     17  H61 UNL     1      43.033  -9.023  -7.329  1.00  0.00     0.277 HD
ENDBRANCH  10  12
ENDBRANCH   1  10
TORSDOF 3
ENDMDL
