MODEL 1
REMARK VINA RESULT: -5.146707734      0.000      0.000
REMARK  5 active torsions:
REMARK  status: ('A' for Active; 'I' for Inactive)
REMARK    1  A    between atoms: N1_1  and  C1_5 
REMARK    2  A    between atoms: C1_5  and  N2_6 
REMARK    3  A    between atoms: C1_5  and  C2_10 
REMARK    4  A    between atoms: C2_10  and  N3_11 
REMARK    5  A    between atoms: C2_10  and  N4_15 
ROOT
HETATM    1  C2  UNL     1      44.658  -7.675  -3.535  1.00  0.00     0.363 C 
ENDROOT
BRANCH   1   2
HETATM    2  C1  UNL     1      43.487  -7.088  -2.820  1.00  0.00     0.429 C 
BRANCH   2   3
HETATM    3  N1  UNL     1      44.013  -6.207  -1.770  1.00  0.00    -0.046 N 
ATOM      4  H13 UNL     1      43.580  -5.284  -1.791  1.00  0.00     0.276 HD
ATOM      5  H12 UNL     1      43.705  -6.492  -0.839  1.00  0.00     0.276 HD
ATOM      6  H11 UNL     1      45.029  -6.158  -1.840  1.00  0.00     0.276 HD
ENDBRANCH   2   3
BRANCH   2   7
HETATM    7  N2  UNL     1      42.653  -8.091  -2.233  1.00  0.00    -0.046 N 
ATOM      8  H23 UNL     1      42.770  -8.144  -1.221  1.00  0.00     0.276 HD
ATOM      9  H22 UNL     1      41.667  -7.832  -2.254  1.00  0.00     0.276 HD
ATOM     10  H21 UNL     1      42.823  -8.988  -2.687  1.00  0.00     0.276 HD
ENDBRANCH   2   7
ENDBRANCH   1   2
BRANCH   1  11
HETATM   11  N3  UNL     1      45.840  -6.927  -3.155  1.00  0.00    -0.053 N 
ATOM     12  H33 UNL     1      46.160  -6.297  -3.889  1.00  0.00     0.277 HD
ATOM     13  H32 UNL     1      45.648  -6.222  -2.444  1.00  0.00     0.277 HD
ATOM     14  H31 UNL     1      46.557  -7.593  -2.866  1.00  0.00     0.277 HD
ENDBRANCH   1  11
BRANCH   1  15
HETATM   15  N4  UNL     1      44.468  -7.553  -4.969  1.00  0.00    -0.236 N 
HETATM   16  N5  UNL     1      43.700  -6.874  -5.799  1.00  0.00    -0.276 N 
HETATM   17  C3  UNL     1      44.238  -7.414  -6.904  1.00  0.00     0.168 A 
ATOM     18  H5  UNL     1      42.962  -6.185  -5.654  1.00  0.00     0.189 HD
HETATM   19  N6  UNL     1      44.545  -7.746  -8.168  1.00  0.00    -0.334 N 
HETATM   20  C5  UNL     1      45.049  -8.132  -6.029  1.00  0.00     0.171 A 
HETATM   21  C4  UNL     1      45.528  -8.655  -8.113  1.00  0.00     0.183 A 
ATOM     22  H6  UNL     1      44.111  -7.374  -9.012  1.00  0.00     0.168 HD
HETATM   23  N7  UNL     1      45.835  -8.888  -6.802  1.00  0.00    -0.334 N 
ATOM     24  H7  UNL     1      46.549  -9.536  -6.467  1.00  0.00     0.168 HD
ENDBRANCH   1  15
TORSDOF 5
ENDMDL
MODEL 2
REMARK VINA RESULT: -4.863478888      1.443      2.273
REMARK  5 active torsions:
REMARK  status: ('A' for Active; 'I' for Inactive)
REMARK    1  A    between atoms: N1_1  and  C1_5 
REMARK    2  A    between atoms: C1_5  and  N2_6 
REMARK    3  A    between atoms: C1_5  and  C2_10 
REMARK    4  A    between atoms: C2_10  and  N3_11 
REMARK    5  A    between atoms: C2_10  and  N4_15 
ROOT
HETATM    1  C2  UNL     1      43.757  -7.972  -2.763  1.00  0.00     0.363 C 
ENDROOT
BRANCH   1   2
HETATM    2  C1  UNL     1      42.388  -8.377  -3.197  1.00  0.00     0.429 C 
BRANCH   2   3
HETATM    3  N1  UNL     1      41.527  -8.351  -2.008  1.00  0.00    -0.046 N 
ATOM      4  H13 UNL     1      41.739  -9.113  -1.364  1.00  0.00     0.276 HD
ATOM      5  H12 UNL     1      41.749  -7.570  -1.390  1.00  0.00     0.276 HD
ATOM      6  H11 UNL     1      40.548  -8.349  -2.293  1.00  0.00     0.276 HD
ENDBRANCH   2   3
BRANCH   2   7
HETATM    7  N2  UNL     1      42.368  -9.684  -3.776  1.00  0.00    -0.046 N 
ATOM      8  H23 UNL     1      41.419 -10.048  -3.872  1.00  0.00     0.276 HD
ATOM      9  H22 UNL     1      42.621  -9.671  -4.764  1.00  0.00     0.276 HD
ATOM     10  H21 UNL     1      42.966 -10.309  -3.235  1.00  0.00     0.276 HD
ENDBRANCH   2   7
ENDBRANCH   1   2
BRANCH   1  11
HETATM   11  N3  UNL     1      43.637  -6.790  -1.934  1.00  0.00    -0.053 N 
ATOM     12  H33 UNL     1      42.816  -6.229  -2.164  1.00  0.00     0.277 HD
ATOM     13  H32 UNL     1      43.387  -7.009  -0.970  1.00  0.00     0.277 HD
ATOM     14  H31 UNL     1      44.506  -6.262  -2.005  1.00  0.00     0.277 HD
ENDBRANCH   1  11
BRANCH   1  15
HETATM   15  N4  UNL     1      44.564  -7.648  -3.926  1.00  0.00    -0.236 N 
HETATM   16  N5  UNL     1      45.840  -7.655  -4.263  1.00  0.00    -0.276 N 
HETATM   17  C3  UNL     1      45.620  -7.204  -5.508  1.00  0.00     0.168 A 
ATOM     18  H5  UNL     1      46.688  -7.910  -3.758  1.00  0.00     0.189 HD
HETATM   19  N6  UNL     1      45.749  -6.780  -6.775  1.00  0.00    -0.334 N 
HETATM   20  C5  UNL     1      44.274  -7.196  -5.154  1.00  0.00     0.171 A 
HETATM   21  C4  UNL     1      44.519  -6.504  -7.229  1.00  0.00     0.183 A 
ATOM     22  H6  UNL     1      46.621  -6.686  -7.295  1.00  0.00     0.168 HD
HETATM   23  N7  UNL     1      43.618  -6.761  -6.235  1.00  0.00    -0.334 N 
ATOM     24  H7  UNL     1      42.607  -6.640  -6.305  1.00  0.00     0.168 HD
ENDBRANCH   1  15
TORSDOF 5
ENDMDL
MODEL 3
REMARK VINA RESULT: -4.848086355      1.053      1.160
REMARK  5 active torsions:
REMARK  status: ('A' for Active; 'I' for Inactive)
REMARK    1  A    between atoms: N1_1  and  C1_5 
REMARK    2  A    between atoms: C1_5  and  N2_6 
REMARK    3  A    between atoms: C1_5  and  C2_10 
REMARK    4  A    between atoms: C2_10  and  N3_11 
REMARK    5  A    between atoms: C2_10  and  N4_15 
ROOT
HETATM    1  C2  UNL     1      44.657  -7.678  -3.455  1.00  0.00     0.363 C 
ENDROOT
BRANCH   1   2
HETATM    2  C1  UNL     1      43.466  -6.939  -2.945  1.00  0.00     0.429 C 
BRANCH   2   3
HETATM    3  N1  UNL     1      43.945  -5.964  -1.958  1.00  0.00    -0.046 N 
ATOM      4  H13 UNL     1      44.118  -5.049  -2.376  1.00  0.00     0.276 HD
ATOM      5  H12 UNL     1      43.213  -5.690  -1.302  1.00  0.00     0.276 HD
ATOM      6  H11 UNL     1      44.768  -6.332  -1.483  1.00  0.00     0.276 HD
ENDBRANCH   2   3
BRANCH   2   7
HETATM    7  N2  UNL     1      42.509  -7.811  -2.334  1.00  0.00    -0.046 N 
ATOM      8  H23 UNL     1      41.769  -7.295  -1.857  1.00  0.00     0.276 HD
ATOM      9  H22 UNL     1      41.932  -8.293  -3.023  1.00  0.00     0.276 HD
ATOM     10  H21 UNL     1      42.986  -8.462  -1.711  1.00  0.00     0.276 HD
ENDBRANCH   2   7
ENDBRANCH   1   2
BRANCH   1  11
HETATM   11  N3  UNL     1      45.840  -6.908  -3.126  1.00  0.00    -0.053 N 
ATOM     12  H33 UNL     1      46.468  -6.792  -3.921  1.00  0.00     0.277 HD
ATOM     13  H32 UNL     1      45.636  -5.922  -2.967  1.00  0.00     0.277 HD
ATOM     14  H31 UNL     1      46.295  -7.350  -2.327  1.00  0.00     0.277 HD
ENDBRANCH   1  11
BRANCH   1  15
HETATM   15  N4  UNL     1      44.571  -7.811  -4.898  1.00  0.00    -0.236 N 
HETATM   16  N5  UNL     1      43.958  -8.585  -5.773  1.00  0.00    -0.276 N 
HETATM   17  C3  UNL     1      44.479  -7.963  -6.843  1.00  0.00     0.168 A 
ATOM     18  H5  UNL     1      43.319  -9.373  -5.673  1.00  0.00     0.189 HD
HETATM   19  N6  UNL     1      44.808  -7.579  -8.086  1.00  0.00    -0.334 N 
HETATM   20  C5  UNL     1      45.126  -7.146  -5.921  1.00  0.00     0.171 A 
HETATM   21  C4  UNL     1      45.648  -6.541  -7.972  1.00  0.00     0.183 A 
ATOM     22  H6  UNL     1      44.480  -7.998  -8.956  1.00  0.00     0.168 HD
HETATM   23  N7  UNL     1      45.840  -6.278  -6.645  1.00  0.00    -0.334 N 
ATOM     24  H7  UNL     1      46.433  -5.538  -6.267  1.00  0.00     0.168 HD
ENDBRANCH   1  15
TORSDOF 5
ENDMDL
MODEL 4
REMARK VINA RESULT: -4.796625946      0.886      1.122
REMARK  5 active torsions:
REMARK  status: ('A' for Active; 'I' for Inactive)
REMARK    1  A    between atoms: N1_1  and  C1_5 
REMARK    2  A    between atoms: C1_5  and  N2_6 
REMARK    3  A    between atoms: C1_5  and  C2_10 
REMARK    4  A    between atoms: C2_10  and  N3_11 
REMARK    5  A    between atoms: C2_10  and  N4_15 
ROOT
HETATM    1  C2  UNL     1      44.473  -7.287  -3.829  1.00  0.00     0.363 C 
ENDROOT
BRANCH   1   2
HETATM    2  C1  UNL     1      44.089  -5.928  -3.347  1.00  0.00     0.429 C 
BRANCH   2   3
HETATM    3  N1  UNL     1      45.258  -5.057  -3.516  1.00  0.00    -0.046 N 
ATOM      4  H13 UNL     1      44.998  -4.073  -3.578  1.00  0.00     0.276 HD
ATOM      5  H12 UNL     1      45.826  -5.006  -2.670  1.00  0.00     0.276 HD
ATOM      6  H11 UNL     1      45.800  -5.363  -4.325  1.00  0.00     0.276 HD
ENDBRANCH   2   3
BRANCH   2   7
HETATM    7  N2  UNL     1      43.689  -5.934  -1.974  1.00  0.00    -0.046 N 
ATOM      8  H23 UNL     1      43.006  -6.665  -1.775  1.00  0.00     0.276 HD
ATOM      9  H22 UNL     1      44.434  -6.258  -1.357  1.00  0.00     0.276 HD
ATOM     10  H21 UNL     1      43.349  -5.009  -1.711  1.00  0.00     0.276 HD
ENDBRANCH   2   7
ENDBRANCH   1   2
BRANCH   1  11
HETATM   11  N3  UNL     1      45.840  -7.540  -3.422  1.00  0.00    -0.053 N 
ATOM     12  H33 UNL     1      46.437  -7.821  -4.199  1.00  0.00     0.277 HD
ATOM     13  H32 UNL     1      46.339  -6.689  -3.166  1.00  0.00     0.277 HD
ATOM     14  H31 UNL     1      45.825  -8.228  -2.669  1.00  0.00     0.277 HD
ENDBRANCH   1  11
BRANCH   1  15
HETATM   15  N4  UNL     1      44.400  -7.332  -5.279  1.00  0.00    -0.236 N 
HETATM   16  N5  UNL     1      43.730  -6.729  -6.243  1.00  0.00    -0.276 N 
HETATM   17  C3  UNL     1      44.326  -7.419  -7.228  1.00  0.00     0.168 A 
ATOM     18  H5  UNL     1      43.016  -6.001  -6.240  1.00  0.00     0.189 HD
HETATM   19  N6  UNL     1      44.714  -7.911  -8.415  1.00  0.00    -0.334 N 
HETATM   20  C5  UNL     1      45.033  -8.055  -6.212  1.00  0.00     0.171 A 
HETATM   21  C4  UNL     1      45.646  -8.843  -8.174  1.00  0.00     0.183 A 
ATOM     22  H6  UNL     1      44.364  -7.628  -9.330  1.00  0.00     0.168 HD
HETATM   23  N7  UNL     1      45.840  -8.928  -6.824  1.00  0.00    -0.334 N 
ATOM     24  H7  UNL     1      46.495  -9.557  -6.358  1.00  0.00     0.168 HD
ENDBRANCH   1  15
TORSDOF 5
ENDMDL
MODEL 5
REMARK VINA RESULT: -4.743338295      1.141      4.502
REMARK  5 active torsions:
REMARK  status: ('A' for Active; 'I' for Inactive)
REMARK    1  A    between atoms: N1_1  and  C1_5 
REMARK    2  A    between atoms: C1_5  and  N2_6 
REMARK    3  A    between atoms: C1_5  and  C2_10 
REMARK    4  A    between atoms: C2_10  and  N3_11 
REMARK    5  A    between atoms: C2_10  and  N4_15 
ROOT
HETATM    1  C2  UNL     1      45.256  -7.260  -6.255  1.00  0.00     0.363 C 
ENDROOT
BRANCH   1   2
HETATM    2  C1  UNL     1      44.157  -7.095  -7.250  1.00  0.00     0.429 C 
BRANCH   2   3
HETATM    3  N1  UNL     1      44.681  -7.513  -8.556  1.00  0.00    -0.046 N 
ATOM      4  H13 UNL     1      44.874  -8.514  -8.590  1.00  0.00     0.276 HD
ATOM      5  H12 UNL     1      43.970  -7.475  -9.286  1.00  0.00     0.276 HD
ATOM      6  H11 UNL     1      45.503  -6.955  -8.790  1.00  0.00     0.276 HD
ENDBRANCH   2   3
BRANCH   2   7
HETATM    7  N2  UNL     1      43.695  -5.743  -7.328  1.00  0.00    -0.046 N 
ATOM      8  H23 UNL     1      43.808  -5.247  -6.443  1.00  0.00     0.276 HD
ATOM      9  H22 UNL     1      44.305  -5.161  -7.902  1.00  0.00     0.276 HD
ATOM     10  H21 UNL     1      42.730  -5.728  -7.657  1.00  0.00     0.276 HD
ENDBRANCH   2   7
ENDBRANCH   1   2
BRANCH   1  11
HETATM   11  N3  UNL     1      45.835  -8.576  -6.438  1.00  0.00    -0.053 N 
ATOM     12  H33 UNL     1      45.483  -9.049  -7.269  1.00  0.00     0.277 HD
ATOM     13  H32 UNL     1      46.818  -8.539  -6.708  1.00  0.00     0.277 HD
ATOM     14  H31 UNL     1      45.682  -9.112  -5.584  1.00  0.00     0.277 HD
ENDBRANCH   1  11
BRANCH   1  15
HETATM   15  N4  UNL     1      44.718  -7.168  -4.910  1.00  0.00    -0.236 N 
HETATM   16  N5  UNL     1      44.913  -6.439  -3.827  1.00  0.00    -0.276 N 
HETATM   17  C3  UNL     1      43.972  -7.071  -3.107  1.00  0.00     0.168 A 
ATOM     18  H5  UNL     1      45.550  -5.672  -3.614  1.00  0.00     0.189 HD
HETATM   19  N6  UNL     1      43.134  -7.475  -2.141  1.00  0.00    -0.334 N 
HETATM   20  C5  UNL     1      43.766  -7.841  -4.248  1.00  0.00     0.171 A 
HETATM   21  C4  UNL     1      42.404  -8.481  -2.642  1.00  0.00     0.183 A 
ATOM     22  H6  UNL     1      43.064  -7.089  -1.200  1.00  0.00     0.168 HD
HETATM   23  N7  UNL     1      42.793  -8.702  -3.933  1.00  0.00    -0.334 N 
ATOM     24  H7  UNL     1      42.404  -9.410  -4.557  1.00  0.00     0.168 HD
ENDBRANCH   1  15
TORSDOF 5
ENDMDL
