MODEL 1
REMARK VINA RESULT: -4.858216702      0.000      0.000
REMARK  4 active torsions:
REMARK  status: ('A' for Active; 'I' for Inactive)
REMARK    1  A    between atoms: N1_2  and  N2_3 
REMARK    2  A    between atoms: N2_3  and  C2_5 
REMARK    3  A    between atoms: C5_10  and  N4_11 
REMARK    4  A    between atoms: N4_11  and  N5_13 
ROOT
HETATM    1  C2  UNL     1      44.936  -7.112  -4.402  1.00  0.00     0.133 A 
HETATM    2  C3  UNL     1      45.124  -6.323  -3.275  1.00  0.00     0.067 A 
HETATM    3  C4  UNL     1      44.243  -6.511  -2.234  1.00  0.00     0.110 A 
HETATM    4  N3  UNL     1      43.257  -7.420  -2.334  1.00  0.00    -0.200 N 
ATOM      5  H3  UNL     1      42.619  -7.536  -1.547  1.00  0.00     0.183 HD
HETATM    6  C5  UNL     1      43.075  -8.182  -3.424  1.00  0.00     0.697 A 
HETATM    7  N6  UNL     1      43.920  -8.025  -4.459  1.00  0.00    -0.174 N 
ATOM      8  H6  UNL     1      43.800  -8.594  -5.296  1.00  0.00     0.186 HD
ENDROOT
BRANCH   6   9
HETATM    9  N4  UNL     1      42.090  -9.036  -3.446  1.00  0.00    -0.138 N 
ATOM     10  H4  UNL     1      41.273  -8.843  -2.866  1.00  0.00     0.205 HD
BRANCH   9  11
HETATM   11  N5  UNL     1      42.090 -10.186  -4.210  1.00  0.00    -0.331 N 
ATOM     12  H52 UNL     1      42.997 -10.606  -4.418  1.00  0.00     0.177 HD
ATOM     13  H51 UNL     1      41.243 -10.628  -4.568  1.00  0.00     0.177 HD
ENDBRANCH   9  11
ENDBRANCH   6   9
BRANCH   1  14
HETATM   14  N2  UNL     1      45.838  -6.922  -5.474  1.00  0.00    -0.289 N 
ATOM     15  H2  UNL     1      46.503  -7.662  -5.702  1.00  0.00     0.184 HD
BRANCH  14  16
HETATM   16  N1  UNL     1      45.840  -5.759  -6.219  1.00  0.00    -0.144 NA
HETATM   17  C1  UNL     1      44.670  -5.613  -7.058  1.00  0.00     0.159 C 
ENDBRANCH  14  16
ENDBRANCH   1  14
TORSDOF 4
ENDMDL
MODEL 2
REMARK VINA RESULT: -4.835365287      8.554      9.347
REMARK  4 active torsions:
REMARK  status: ('A' for Active; 'I' for Inactive)
REMARK    1  A    between atoms: N1_2  and  N2_3 
REMARK    2  A    between atoms: N2_3  and  C2_5 
REMARK    3  A    between atoms: C5_10  and  N4_11 
REMARK    4  A    between atoms: N4_11  and  N5_13 
ROOT
HETATM    1  C2  UNL     1      37.235  -3.744  -9.502  1.00  0.00     0.133 A 
HETATM    2  C3  UNL     1      38.524  -4.258  -9.439  1.00  0.00     0.067 A 
HETATM    3  C4  UNL     1      39.109  -4.310  -8.195  1.00  0.00     0.110 A 
HETATM    4  N3  UNL     1      38.441  -3.874  -7.111  1.00  0.00    -0.200 N 
ATOM      5  H3  UNL     1      38.901  -3.923  -6.202  1.00  0.00     0.183 HD
HETATM    6  C5  UNL     1      37.196  -3.377  -7.172  1.00  0.00     0.697 A 
HETATM    7  N6  UNL     1      36.594  -3.314  -8.374  1.00  0.00    -0.174 N 
ATOM      8  H6  UNL     1      35.649  -2.940  -8.443  1.00  0.00     0.186 HD
ENDROOT
BRANCH   6   9
HETATM    9  N4  UNL     1      36.620  -2.969  -6.077  1.00  0.00    -0.138 N 
ATOM     10  H4  UNL     1      35.795  -3.472  -5.751  1.00  0.00     0.205 HD
BRANCH   9  11
HETATM   11  N5  UNL     1      37.062  -1.893  -5.333  1.00  0.00    -0.331 N 
ATOM     12  H52 UNL     1      36.777  -0.964  -5.644  1.00  0.00     0.177 HD
ATOM     13  H51 UNL     1      37.650  -1.981  -4.505  1.00  0.00     0.177 HD
ENDBRANCH   9  11
ENDBRANCH   6   9
BRANCH   1  14
HETATM   14  N2  UNL     1      36.630  -3.689 -10.779  1.00  0.00    -0.289 N 
ATOM     15  H2  UNL     1      35.612  -3.678 -10.848  1.00  0.00     0.184 HD
BRANCH  14  16
HETATM   16  N1  UNL     1      37.386  -3.650 -11.935  1.00  0.00    -0.144 NA
HETATM   17  C1  UNL     1      37.194  -4.805 -12.786  1.00  0.00     0.159 C 
ENDBRANCH  14  16
ENDBRANCH   1  14
TORSDOF 4
ENDMDL
MODEL 3
REMARK VINA RESULT: -4.779482569      1.141      1.344
REMARK  4 active torsions:
REMARK  status: ('A' for Active; 'I' for Inactive)
REMARK    1  A    between atoms: N1_2  and  N2_3 
REMARK    2  A    between atoms: N2_3  and  C2_5 
REMARK    3  A    between atoms: C5_10  and  N4_11 
REMARK    4  A    between atoms: N4_11  and  N5_13 
ROOT
HETATM    1  C2  UNL     1      45.180  -7.066  -4.303  1.00  0.00     0.133 A 
HETATM    2  C3  UNL     1      45.744  -6.077  -3.507  1.00  0.00     0.067 A 
HETATM    3  C4  UNL     1      45.098  -5.793  -2.324  1.00  0.00     0.110 A 
HETATM    4  N3  UNL     1      43.978  -6.456  -1.985  1.00  0.00    -0.200 N 
ATOM      5  H3  UNL     1      43.521  -6.223  -1.103  1.00  0.00     0.183 HD
HETATM    6  C5  UNL     1      43.434  -7.412  -2.755  1.00  0.00     0.697 A 
HETATM    7  N6  UNL     1      44.041  -7.715  -3.917  1.00  0.00    -0.174 N 
ATOM      8  H6  UNL     1      43.645  -8.437  -4.517  1.00  0.00     0.186 HD
ENDROOT
BRANCH   6   9
HETATM    9  N4  UNL     1      42.342  -8.003  -2.359  1.00  0.00    -0.138 N 
ATOM     10  H4  UNL     1      41.911  -7.685  -1.491  1.00  0.00     0.205 HD
BRANCH   9  11
HETATM   11  N5  UNL     1      41.736  -9.035  -3.048  1.00  0.00    -0.331 N 
ATOM     12  H52 UNL     1      41.216  -8.788  -3.891  1.00  0.00     0.177 HD
ATOM     13  H51 UNL     1      41.784 -10.012  -2.761  1.00  0.00     0.177 HD
ENDBRANCH   9  11
ENDBRANCH   6   9
BRANCH   1  14
HETATM   14  N2  UNL     1      45.840  -7.360  -5.518  1.00  0.00    -0.289 N 
ATOM     15  H2  UNL     1      46.770  -6.975  -5.687  1.00  0.00     0.184 HD
BRANCH  14  16
HETATM   16  N1  UNL     1      45.254  -8.157  -6.483  1.00  0.00    -0.144 NA
HETATM   17  C1  UNL     1      44.583  -7.402  -7.520  1.00  0.00     0.159 C 
ENDBRANCH  14  16
ENDBRANCH   1  14
TORSDOF 4
ENDMDL
MODEL 4
REMARK VINA RESULT: -4.708016082      2.236      2.725
REMARK  4 active torsions:
REMARK  status: ('A' for Active; 'I' for Inactive)
REMARK    1  A    between atoms: N1_2  and  N2_3 
REMARK    2  A    between atoms: N2_3  and  C2_5 
REMARK    3  A    between atoms: C5_10  and  N4_11 
REMARK    4  A    between atoms: N4_11  and  N5_13 
ROOT
HETATM    1  C2  UNL     1      44.364  -8.136  -5.472  1.00  0.00     0.133 A 
HETATM    2  C3  UNL     1      45.526  -7.386  -5.347  1.00  0.00     0.067 A 
HETATM    3  C4  UNL     1      45.713  -6.731  -4.150  1.00  0.00     0.110 A 
HETATM    4  N3  UNL     1      44.797  -6.830  -3.171  1.00  0.00    -0.200 N 
ATOM      5  H3  UNL     1      44.962  -6.332  -2.296  1.00  0.00     0.183 HD
HETATM    6  C5  UNL     1      43.674  -7.555  -3.292  1.00  0.00     0.697 A 
HETATM    7  N6  UNL     1      43.461  -8.209  -4.448  1.00  0.00    -0.174 N 
ATOM      8  H6  UNL     1      42.615  -8.766  -4.562  1.00  0.00     0.186 HD
ENDROOT
BRANCH   6   9
HETATM    9  N4  UNL     1      42.831  -7.595  -2.299  1.00  0.00    -0.138 N 
ATOM     10  H4  UNL     1      42.999  -6.982  -1.501  1.00  0.00     0.205 HD
BRANCH   9  11
HETATM   11  N5  UNL     1      41.724  -8.418  -2.266  1.00  0.00    -0.331 N 
ATOM     12  H52 UNL     1      41.884  -9.404  -2.056  1.00  0.00     0.177 HD
ATOM     13  H51 UNL     1      40.772  -8.094  -2.438  1.00  0.00     0.177 HD
ENDBRANCH   9  11
ENDBRANCH   6   9
BRANCH   1  14
HETATM   14  N2  UNL     1      44.168  -8.811  -6.699  1.00  0.00    -0.289 N 
ATOM     15  H2  UNL     1      43.370  -8.559  -7.283  1.00  0.00     0.184 HD
BRANCH  14  16
HETATM   16  N1  UNL     1      45.032  -9.801  -7.125  1.00  0.00    -0.144 NA
HETATM   17  C1  UNL     1      44.470 -10.649  -8.155  1.00  0.00     0.159 C 
ENDBRANCH  14  16
ENDBRANCH   1  14
TORSDOF 4
ENDMDL
MODEL 5
REMARK VINA RESULT: -4.621249387      9.115     10.386
REMARK  4 active torsions:
REMARK  status: ('A' for Active; 'I' for Inactive)
REMARK    1  A    between atoms: N1_2  and  N2_3 
REMARK    2  A    between atoms: N2_3  and  C2_5 
REMARK    3  A    between atoms: C5_10  and  N4_11 
REMARK    4  A    between atoms: N4_11  and  N5_13 
ROOT
HETATM    1  C2  UNL     1      37.990  -4.367 -10.332  1.00  0.00     0.133 A 
HETATM    2  C3  UNL     1      39.274  -4.847 -10.555  1.00  0.00     0.067 A 
HETATM    3  C4  UNL     1      39.587  -5.198 -11.849  1.00  0.00     0.110 A 
HETATM    4  N3  UNL     1      38.672  -5.072 -12.827  1.00  0.00    -0.200 N 
ATOM      5  H3  UNL     1      38.932  -5.341 -13.776  1.00  0.00     0.183 HD
HETATM    6  C5  UNL     1      37.432  -4.607 -12.611  1.00  0.00     0.697 A 
HETATM    7  N6  UNL     1      37.093  -4.254 -11.358  1.00  0.00    -0.174 N 
ATOM      8  H6  UNL     1      36.156  -3.899 -11.171  1.00  0.00     0.186 HD
ENDROOT
BRANCH   6   9
HETATM    9  N4  UNL     1      36.601  -4.523 -13.612  1.00  0.00    -0.138 N 
ATOM     10  H4  UNL     1      36.581  -3.655 -14.148  1.00  0.00     0.205 HD
BRANCH   9  11
HETATM   11  N5  UNL     1      35.746  -5.540 -13.987  1.00  0.00    -0.331 N 
ATOM     12  H52 UNL     1      34.993  -5.301 -14.632  1.00  0.00     0.177 HD
ATOM     13  H51 UNL     1      35.832  -6.501 -13.656  1.00  0.00     0.177 HD
ENDBRANCH   9  11
ENDBRANCH   6   9
BRANCH   1  14
HETATM   14  N2  UNL     1      37.664  -4.006  -9.004  1.00  0.00    -0.289 N 
ATOM     15  H2  UNL     1      37.186  -3.121  -8.831  1.00  0.00     0.184 HD
BRANCH  14  16
HETATM   16  N1  UNL     1      37.978  -4.823  -7.936  1.00  0.00    -0.144 NA
HETATM   17  C1  UNL     1      37.627  -4.252  -6.653  1.00  0.00     0.159 C 
ENDBRANCH  14  16
ENDBRANCH   1  14
TORSDOF 4
ENDMDL
