MODEL 1
REMARK VINA RESULT: -9.453293431      0.000      0.000
REMARK  7 active torsions:
REMARK  status: ('A' for Active; 'I' for Inactive)
REMARK    1  A    between atoms: N1_1  and  C1_4 
REMARK    2  A    between atoms: C4_7  and  C5_8 
REMARK    3  A    between atoms: C8_11  and  C9_12 
REMARK    4  A    between atoms: C9_12  and  C10_13 
REMARK    5  A    between atoms: C12_19  and  N4_20 
REMARK    6  A    between atoms: N4_20  and  S1_22 
REMARK    7  A    between atoms: S1_22  and  C13_25 
ROOT
HETATM    1  C10 UNL     1      48.489 -39.735  46.616  1.00  0.00     0.058 A 
HETATM    2  N2  UNL     1      49.416 -40.464  45.945  1.00  0.00    -0.303 N 
ATOM      3  H2  UNL     1      49.708 -40.285  44.985  1.00  0.00     0.186 HD
HETATM    4  N3  UNL     1      49.886 -41.429  46.700  1.00  0.00    -0.309 N 
ATOM      5  H3  UNL     1      50.590 -42.115  46.430  1.00  0.00     0.186 HD
HETATM    6  C11 UNL     1      49.272 -41.350  47.892  1.00  0.00     0.139 A 
HETATM    7  C12 UNL     1      48.375 -40.277  47.865  1.00  0.00     0.083 A 
ENDROOT
BRANCH   1   8
HETATM    8  C9  UNL     1      47.727 -38.571  46.078  1.00  0.00     0.099 C 
BRANCH   8   9
HETATM    9  C8  UNL     1      48.582 -37.375  46.191  1.00  0.00    -0.052 A 
HETATM   10  C7  UNL     1      48.858 -36.693  47.349  1.00  0.00     0.008 A 
HETATM   11  C6  UNL     1      49.668 -35.568  47.361  1.00  0.00     0.013 A 
HETATM   12  C5  UNL     1      50.241 -35.077  46.208  1.00  0.00    -0.025 A 
HETATM   13  C23 UNL     1      49.963 -35.767  45.041  1.00  0.00     0.013 A 
HETATM   14  C22 UNL     1      49.158 -36.885  45.018  1.00  0.00     0.008 A 
BRANCH  12  15
HETATM   15  C4  UNL     1      51.086 -33.888  46.219  1.00  0.00    -0.010 A 
HETATM   16  C3  UNL     1      50.781 -32.761  46.950  1.00  0.00     0.017 A 
HETATM   17  C2  UNL     1      51.618 -31.667  46.933  1.00  0.00     0.049 A 
HETATM   18  C1  UNL     1      52.777 -31.677  46.185  1.00  0.00     0.098 A 
HETATM   19  N6  UNL     1      53.079 -32.776  45.470  1.00  0.00    -0.352 N 
HETATM   20  C24 UNL     1      52.257 -33.839  45.491  1.00  0.00     0.102 A 
ATOM     21  H6  UNL     1      53.932 -32.802  44.912  1.00  0.00     0.166 HD
BRANCH  18  22
HETATM   22  N1  UNL     1      53.587 -30.674  46.145  1.00  0.00    -0.385 N 
ATOM     23  H12 UNL     1      54.590 -30.854  46.184  1.00  0.00     0.157 HD
ATOM     24  H11 UNL     1      53.262 -29.709  46.079  1.00  0.00     0.157 HD
ENDBRANCH  18  22
ENDBRANCH  12  15
ENDBRANCH   8   9
ENDBRANCH   1   8
BRANCH   7  25
HETATM   25  N4  UNL     1      47.564 -39.865  48.952  1.00  0.00    -0.277 N 
ATOM     26  H4  UNL     1      46.553 -39.796  48.842  1.00  0.00     0.179 HD
BRANCH  25  27
HETATM   27  S1  UNL     1      48.302 -39.486  50.455  1.00  0.00     0.265 S 
HETATM   28  O1  UNL     1      47.980 -40.520  51.506  1.00  0.00    -0.200 OA
HETATM   29  O2  UNL     1      49.812 -39.388  50.286  1.00  0.00    -0.200 OA
BRANCH  27  30
HETATM   30  C13 UNL     1      47.758 -37.908  50.984  1.00  0.00     0.107 A 
HETATM   31  C14 UNL     1      46.520 -37.383  50.693  1.00  0.00     0.028 A 
HETATM   32  C15 UNL     1      46.186 -36.119  51.139  1.00  0.00     0.003 A 
HETATM   33  C16 UNL     1      47.033 -35.333  51.875  1.00  0.00     0.014 A 
HETATM   34  C17 UNL     1      48.282 -35.845  52.176  1.00  0.00    -0.008 A 
HETATM   35  C18 UNL     1      49.178 -35.083  52.920  1.00  0.00     0.015 A 
HETATM   36  C21 UNL     1      48.630 -37.103  51.738  1.00  0.00     0.066 A 
HETATM   37  C19 UNL     1      50.403 -35.640  53.190  1.00  0.00     0.018 A 
HETATM   38  C20 UNL     1      50.709 -36.901  52.733  1.00  0.00     0.088 A 
HETATM   39  N5  UNL     1      49.839 -37.633  52.014  1.00  0.00    -0.364 N 
ATOM     40  H5  UNL     1      50.088 -38.565  51.686  1.00  0.00     0.165 HD
ENDBRANCH  27  30
ENDBRANCH  25  27
ENDBRANCH   7  25
TORSDOF 7
ENDMDL
MODEL 2
REMARK VINA RESULT: -9.280512147      0.969      1.881
REMARK  7 active torsions:
REMARK  status: ('A' for Active; 'I' for Inactive)
REMARK    1  A    between atoms: N1_1  and  C1_4 
REMARK    2  A    between atoms: C4_7  and  C5_8 
REMARK    3  A    between atoms: C8_11  and  C9_12 
REMARK    4  A    between atoms: C9_12  and  C10_13 
REMARK    5  A    between atoms: C12_19  and  N4_20 
REMARK    6  A    between atoms: N4_20  and  S1_22 
REMARK    7  A    between atoms: S1_22  and  C13_25 
ROOT
HETATM    1  C10 UNL     1      48.764 -39.464  46.167  1.00  0.00     0.058 A 
HETATM    2  N2  UNL     1      49.654 -40.320  45.605  1.00  0.00    -0.303 N 
ATOM      3  H2  UNL     1      49.971 -40.272  44.637  1.00  0.00     0.186 HD
HETATM    4  N3  UNL     1      50.052 -41.217  46.475  1.00  0.00    -0.309 N 
ATOM      5  H3  UNL     1      50.716 -41.971  46.301  1.00  0.00     0.186 HD
HETATM    6  C11 UNL     1      49.426 -40.964  47.637  1.00  0.00     0.139 A 
HETATM    7  C12 UNL     1      48.598 -39.850  47.467  1.00  0.00     0.083 A 
ENDROOT
BRANCH   1   8
HETATM    8  C9  UNL     1      48.084 -38.326  45.482  1.00  0.00     0.099 C 
BRANCH   8   9
HETATM    9  C8  UNL     1      48.894 -37.115  45.697  1.00  0.00    -0.052 A 
HETATM   10  C7  UNL     1      48.995 -36.414  46.873  1.00  0.00     0.008 A 
HETATM   11  C6  UNL     1      49.777 -35.275  46.983  1.00  0.00     0.013 A 
HETATM   12  C5  UNL     1      50.497 -34.786  45.914  1.00  0.00    -0.025 A 
HETATM   13  C23 UNL     1      50.396 -35.494  44.729  1.00  0.00     0.013 A 
HETATM   14  C22 UNL     1      49.621 -36.627  44.610  1.00  0.00     0.008 A 
BRANCH  12  15
HETATM   15  C4  UNL     1      51.312 -33.582  46.027  1.00  0.00    -0.010 A 
HETATM   16  C3  UNL     1      51.007 -32.551  46.889  1.00  0.00     0.017 A 
HETATM   17  C2  UNL     1      51.816 -31.438  46.964  1.00  0.00     0.049 A 
HETATM   18  C1  UNL     1      52.946 -31.333  46.179  1.00  0.00     0.098 A 
HETATM   19  N6  UNL     1      53.247 -32.338  45.337  1.00  0.00    -0.352 N 
HETATM   20  C24 UNL     1      52.453 -33.420  45.269  1.00  0.00     0.102 A 
ATOM     21  H6  UNL     1      54.079 -32.278  44.749  1.00  0.00     0.166 HD
BRANCH  18  22
HETATM   22  N1  UNL     1      53.728 -30.309  46.222  1.00  0.00    -0.385 N 
ATOM     23  H12 UNL     1      53.749 -29.746  47.072  1.00  0.00     0.157 HD
ATOM     24  H11 UNL     1      54.324 -30.040  45.439  1.00  0.00     0.157 HD
ENDBRANCH  18  22
ENDBRANCH  12  15
ENDBRANCH   8   9
ENDBRANCH   1   8
BRANCH   7  25
HETATM   25  N4  UNL     1      47.798 -39.267  48.481  1.00  0.00    -0.277 N 
ATOM     26  H4  UNL     1      47.111 -38.552  48.247  1.00  0.00     0.179 HD
BRANCH  25  27
HETATM   27  S1  UNL     1      47.999 -39.778  50.108  1.00  0.00     0.265 S 
HETATM   28  O1  UNL     1      46.684 -40.192  50.723  1.00  0.00    -0.200 OA
HETATM   29  O2  UNL     1      48.977 -40.943  50.173  1.00  0.00    -0.200 OA
BRANCH  27  30
HETATM   30  C13 UNL     1      48.710 -38.478  51.039  1.00  0.00     0.107 A 
HETATM   31  C14 UNL     1      49.999 -38.490  51.519  1.00  0.00     0.028 A 
HETATM   32  C15 UNL     1      50.468 -37.423  52.262  1.00  0.00     0.003 A 
HETATM   33  C16 UNL     1      49.709 -36.323  52.558  1.00  0.00     0.014 A 
HETATM   34  C17 UNL     1      48.409 -36.294  52.084  1.00  0.00    -0.008 A 
HETATM   35  C18 UNL     1      47.599 -35.197  52.360  1.00  0.00     0.015 A 
HETATM   36  C21 UNL     1      47.928 -37.349  51.343  1.00  0.00     0.066 A 
HETATM   37  C19 UNL     1      46.319 -35.221  51.865  1.00  0.00     0.018 A 
HETATM   38  C20 UNL     1      45.880 -36.296  51.129  1.00  0.00     0.088 A 
HETATM   39  N5  UNL     1      46.667 -37.353  50.865  1.00  0.00    -0.364 N 
ATOM     40  H5  UNL     1      46.319 -38.140  50.317  1.00  0.00     0.165 HD
ENDBRANCH  27  30
ENDBRANCH  25  27
ENDBRANCH   7  25
TORSDOF 7
ENDMDL
MODEL 3
REMARK VINA RESULT: -8.891057486      2.607      3.378
REMARK  7 active torsions:
REMARK  status: ('A' for Active; 'I' for Inactive)
REMARK    1  A    between atoms: N1_1  and  C1_4 
REMARK    2  A    between atoms: C4_7  and  C5_8 
REMARK    3  A    between atoms: C8_11  and  C9_12 
REMARK    4  A    between atoms: C9_12  and  C10_13 
REMARK    5  A    between atoms: C12_19  and  N4_20 
REMARK    6  A    between atoms: N4_20  and  S1_22 
REMARK    7  A    between atoms: S1_22  and  C13_25 
ROOT
HETATM    1  C10 UNL     1      49.770 -38.677  47.197  1.00  0.00     0.058 A 
HETATM    2  N2  UNL     1      50.490 -39.276  46.216  1.00  0.00    -0.303 N 
ATOM      3  H2  UNL     1      51.335 -38.888  45.799  1.00  0.00     0.186 HD
HETATM    4  N3  UNL     1      49.952 -40.424  45.876  1.00  0.00    -0.309 N 
ATOM      5  H3  UNL     1      50.300 -41.065  45.164  1.00  0.00     0.186 HD
HETATM    6  C11 UNL     1      48.858 -40.602  46.636  1.00  0.00     0.139 A 
HETATM    7  C12 UNL     1      48.720 -39.501  47.488  1.00  0.00     0.083 A 
ENDROOT
BRANCH   1   8
HETATM    8  C9  UNL     1      50.066 -37.356  47.823  1.00  0.00     0.099 C 
BRANCH   8   9
HETATM    9  C8  UNL     1      49.562 -36.302  46.924  1.00  0.00    -0.052 A 
HETATM   10  C7  UNL     1      48.628 -36.472  45.933  1.00  0.00     0.008 A 
HETATM   11  C6  UNL     1      48.218 -35.423  45.125  1.00  0.00     0.013 A 
HETATM   12  C5  UNL     1      48.727 -34.151  45.278  1.00  0.00    -0.025 A 
HETATM   13  C23 UNL     1      49.668 -33.981  46.278  1.00  0.00     0.013 A 
HETATM   14  C22 UNL     1      50.083 -35.018  47.085  1.00  0.00     0.008 A 
BRANCH  12  15
HETATM   15  C4  UNL     1      48.303 -33.049  44.422  1.00  0.00    -0.010 A 
HETATM   16  C3  UNL     1      47.181 -33.111  43.624  1.00  0.00     0.017 A 
HETATM   17  C2  UNL     1      46.819 -32.037  42.841  1.00  0.00     0.049 A 
HETATM   18  C1  UNL     1      47.570 -30.880  42.838  1.00  0.00     0.098 A 
HETATM   19  N6  UNL     1      48.666 -30.815  43.616  1.00  0.00    -0.352 N 
HETATM   20  C24 UNL     1      49.013 -31.867  44.377  1.00  0.00     0.102 A 
ATOM     21  H6  UNL     1      49.233 -29.968  43.628  1.00  0.00     0.166 HD
BRANCH  18  22
HETATM   22  N1  UNL     1      47.262 -29.854  42.120  1.00  0.00    -0.385 N 
ATOM     23  H12 UNL     1      47.599 -29.812  41.159  1.00  0.00     0.157 HD
ATOM     24  H11 UNL     1      46.696 -29.084  42.477  1.00  0.00     0.157 HD
ENDBRANCH  18  22
ENDBRANCH  12  15
ENDBRANCH   8   9
ENDBRANCH   1   8
BRANCH   7  25
HETATM   25  N4  UNL     1      47.696 -39.344  48.456  1.00  0.00    -0.277 N 
ATOM     26  H4  UNL     1      46.803 -38.925  48.197  1.00  0.00     0.179 HD
BRANCH  25  27
HETATM   27  S1  UNL     1      47.976 -39.865  50.067  1.00  0.00     0.265 S 
HETATM   28  O1  UNL     1      46.697 -40.311  50.733  1.00  0.00    -0.200 OA
HETATM   29  O2  UNL     1      48.979 -41.010  50.080  1.00  0.00    -0.200 OA
BRANCH  27  30
HETATM   30  C13 UNL     1      48.699 -38.559  50.980  1.00  0.00     0.107 A 
HETATM   31  C14 UNL     1      49.995 -38.568  51.443  1.00  0.00     0.028 A 
HETATM   32  C15 UNL     1      50.473 -37.496  52.173  1.00  0.00     0.003 A 
HETATM   33  C16 UNL     1      49.718 -36.394  52.472  1.00  0.00     0.014 A 
HETATM   34  C17 UNL     1      48.412 -36.369  52.016  1.00  0.00    -0.008 A 
HETATM   35  C18 UNL     1      47.605 -35.270  52.296  1.00  0.00     0.015 A 
HETATM   36  C21 UNL     1      47.921 -37.429  51.288  1.00  0.00     0.066 A 
HETATM   37  C19 UNL     1      46.319 -35.298  51.819  1.00  0.00     0.018 A 
HETATM   38  C20 UNL     1      45.869 -36.378  51.095  1.00  0.00     0.088 A 
HETATM   39  N5  UNL     1      46.654 -37.436  50.827  1.00  0.00    -0.364 N 
ATOM     40  H5  UNL     1      46.298 -38.226  50.289  1.00  0.00     0.165 HD
ENDBRANCH  27  30
ENDBRANCH  25  27
ENDBRANCH   7  25
TORSDOF 7
ENDMDL
MODEL 4
REMARK VINA RESULT: -8.823931109      1.473      2.717
REMARK  7 active torsions:
REMARK  status: ('A' for Active; 'I' for Inactive)
REMARK    1  A    between atoms: N1_1  and  C1_4 
REMARK    2  A    between atoms: C4_7  and  C5_8 
REMARK    3  A    between atoms: C8_11  and  C9_12 
REMARK    4  A    between atoms: C9_12  and  C10_13 
REMARK    5  A    between atoms: C12_19  and  N4_20 
REMARK    6  A    between atoms: N4_20  and  S1_22 
REMARK    7  A    between atoms: S1_22  and  C13_25 
ROOT
HETATM    1  C10 UNL     1      49.189 -37.990  45.842  1.00  0.00     0.058 A 
HETATM    2  N2  UNL     1      49.696 -38.887  44.960  1.00  0.00    -0.303 N 
ATOM      3  H2  UNL     1      49.758 -38.738  43.954  1.00  0.00     0.186 HD
HETATM    4  N3  UNL     1      50.097 -39.973  45.579  1.00  0.00    -0.309 N 
ATOM      5  H3  UNL     1      50.514 -40.795  45.142  1.00  0.00     0.186 HD
HETATM    6  C11 UNL     1      49.860 -39.807  46.890  1.00  0.00     0.139 A 
HETATM    7  C12 UNL     1      49.280 -38.549  47.086  1.00  0.00     0.083 A 
ENDROOT
BRANCH   1   8
HETATM    8  C9  UNL     1      48.622 -36.651  45.507  1.00  0.00     0.099 C 
BRANCH   8   9
HETATM    9  C8  UNL     1      49.741 -35.702  45.377  1.00  0.00    -0.052 A 
HETATM   10  C7  UNL     1      50.510 -35.515  44.256  1.00  0.00     0.008 A 
HETATM   11  C6  UNL     1      51.553 -34.603  44.225  1.00  0.00     0.013 A 
HETATM   12  C5  UNL     1      51.872 -33.833  45.323  1.00  0.00    -0.025 A 
HETATM   13  C23 UNL     1      51.096 -34.021  46.453  1.00  0.00     0.013 A 
HETATM   14  C22 UNL     1      50.057 -34.926  46.493  1.00  0.00     0.008 A 
BRANCH  12  15
HETATM   15  C4  UNL     1      52.975 -32.879  45.294  1.00  0.00    -0.010 A 
HETATM   16  C3  UNL     1      53.449 -32.251  46.425  1.00  0.00     0.017 A 
HETATM   17  C2  UNL     1      54.502 -31.365  46.346  1.00  0.00     0.049 A 
HETATM   18  C1  UNL     1      55.101 -31.089  45.135  1.00  0.00     0.098 A 
HETATM   19  N6  UNL     1      54.641 -31.700  44.028  1.00  0.00    -0.352 N 
HETATM   20  C24 UNL     1      53.614 -32.563  44.113  1.00  0.00     0.102 A 
ATOM     21  H6  UNL     1      55.072 -31.509  43.124  1.00  0.00     0.166 HD
BRANCH  18  22
HETATM   22  N1  UNL     1      56.089 -30.267  45.020  1.00  0.00    -0.385 N 
ATOM     23  H12 UNL     1      57.016 -30.575  45.313  1.00  0.00     0.157 HD
ATOM     24  H11 UNL     1      55.977 -29.323  44.650  1.00  0.00     0.157 HD
ENDBRANCH  18  22
ENDBRANCH  12  15
ENDBRANCH   8   9
ENDBRANCH   1   8
BRANCH   7  25
HETATM   25  N4  UNL     1      48.913 -38.007  48.343  1.00  0.00    -0.277 N 
ATOM     26  H4  UNL     1      48.418 -37.118  48.395  1.00  0.00     0.179 HD
BRANCH  25  27
HETATM   27  S1  UNL     1      49.310 -38.865  49.776  1.00  0.00     0.265 S 
HETATM   28  O1  UNL     1      48.309 -39.956  50.063  1.00  0.00    -0.200 OA
HETATM   29  O2  UNL     1      50.700 -39.473  49.653  1.00  0.00    -0.200 OA
BRANCH  27  30
HETATM   30  C13 UNL     1      49.374 -37.745  51.120  1.00  0.00     0.107 A 
HETATM   31  C14 UNL     1      50.469 -37.584  51.937  1.00  0.00     0.028 A 
HETATM   32  C15 UNL     1      50.419 -36.686  52.987  1.00  0.00     0.003 A 
HETATM   33  C16 UNL     1      49.317 -35.926  53.273  1.00  0.00     0.014 A 
HETATM   34  C17 UNL     1      48.206 -36.075  52.462  1.00  0.00    -0.008 A 
HETATM   35  C18 UNL     1      47.062 -35.324  52.715  1.00  0.00     0.015 A 
HETATM   36  C21 UNL     1      48.240 -36.965  51.413  1.00  0.00     0.066 A 
HETATM   37  C19 UNL     1      45.990 -35.513  51.879  1.00  0.00     0.018 A 
HETATM   38  C20 UNL     1      46.068 -36.413  50.841  1.00  0.00     0.088 A 
HETATM   39  N5  UNL     1      47.176 -37.136  50.603  1.00  0.00    -0.364 N 
ATOM     40  H5  UNL     1      47.210 -37.797  49.827  1.00  0.00     0.165 HD
ENDBRANCH  27  30
ENDBRANCH  25  27
ENDBRANCH   7  25
TORSDOF 7
ENDMDL
MODEL 5
REMARK VINA RESULT: -8.779732182      3.175      7.830
REMARK  7 active torsions:
REMARK  status: ('A' for Active; 'I' for Inactive)
REMARK    1  A    between atoms: N1_1  and  C1_4 
REMARK    2  A    between atoms: C4_7  and  C5_8 
REMARK    3  A    between atoms: C8_11  and  C9_12 
REMARK    4  A    between atoms: C9_12  and  C10_13 
REMARK    5  A    between atoms: C12_19  and  N4_20 
REMARK    6  A    between atoms: N4_20  and  S1_22 
REMARK    7  A    between atoms: S1_22  and  C13_25 
ROOT
HETATM    1  C10 UNL     1      48.916 -39.281  46.565  1.00  0.00     0.058 A 
HETATM    2  N2  UNL     1      49.890 -38.564  45.949  1.00  0.00    -0.303 N 
ATOM      3  H2  UNL     1      50.225 -38.738  45.003  1.00  0.00     0.186 HD
HETATM    4  N3  UNL     1      50.340 -37.616  46.737  1.00  0.00    -0.309 N 
ATOM      5  H3  UNL     1      51.072 -36.943  46.511  1.00  0.00     0.186 HD
HETATM    6  C11 UNL     1      49.664 -37.693  47.895  1.00  0.00     0.139 A 
HETATM    7  C12 UNL     1      48.749 -38.747  47.812  1.00  0.00     0.083 A 
ENDROOT
BRANCH   1   8
HETATM    8  C9  UNL     1      48.184 -40.446  45.989  1.00  0.00     0.099 C 
BRANCH   8   9
HETATM    9  C8  UNL     1      48.288 -41.566  46.940  1.00  0.00    -0.052 A 
HETATM   10  C7  UNL     1      47.252 -42.106  47.662  1.00  0.00     0.008 A 
HETATM   11  C6  UNL     1      47.443 -43.157  48.544  1.00  0.00     0.013 A 
HETATM   12  C5  UNL     1      48.687 -43.718  48.742  1.00  0.00    -0.025 A 
HETATM   13  C23 UNL     1      49.730 -43.174  48.014  1.00  0.00     0.013 A 
HETATM   14  C22 UNL     1      49.550 -42.128  47.135  1.00  0.00     0.008 A 
BRANCH  12  15
HETATM   15  C4  UNL     1      48.891 -44.818  49.678  1.00  0.00    -0.010 A 
HETATM   16  C3  UNL     1      49.727 -45.880  49.412  1.00  0.00     0.017 A 
HETATM   17  C2  UNL     1      49.891 -46.890  50.335  1.00  0.00     0.049 A 
HETATM   18  C1  UNL     1      49.224 -46.859  51.542  1.00  0.00     0.098 A 
HETATM   19  N6  UNL     1      48.407 -45.824  51.805  1.00  0.00    -0.352 N 
HETATM   20  C24 UNL     1      48.251 -44.842  50.900  1.00  0.00     0.102 A 
ATOM     21  H6  UNL     1      47.906 -45.783  52.692  1.00  0.00     0.166 HD
BRANCH  18  22
HETATM   22  N1  UNL     1      49.353 -47.785  52.431  1.00  0.00    -0.385 N 
ATOM     23  H12 UNL     1      50.273 -47.940  52.843  1.00  0.00     0.157 HD
ATOM     24  H11 UNL     1      48.573 -48.367  52.735  1.00  0.00     0.157 HD
ENDBRANCH  18  22
ENDBRANCH  12  15
ENDBRANCH   8   9
ENDBRANCH   1   8
BRANCH   7  25
HETATM   25  N4  UNL     1      47.838 -39.119  48.832  1.00  0.00    -0.277 N 
ATOM     26  H4  UNL     1      46.833 -39.075  48.666  1.00  0.00     0.179 HD
BRANCH  25  27
HETATM   27  S1  UNL     1      48.444 -39.642  50.351  1.00  0.00     0.265 S 
HETATM   28  O1  UNL     1      47.407 -40.423  51.120  1.00  0.00    -0.200 OA
HETATM   29  O2  UNL     1      49.682 -40.505  50.151  1.00  0.00    -0.200 OA
BRANCH  27  30
HETATM   30  C13 UNL     1      48.953 -38.249  51.281  1.00  0.00     0.107 A 
HETATM   31  C14 UNL     1      50.200 -38.114  51.845  1.00  0.00     0.028 A 
HETATM   32  C15 UNL     1      50.506 -36.983  52.579  1.00  0.00     0.003 A 
HETATM   33  C16 UNL     1      49.619 -35.960  52.787  1.00  0.00     0.014 A 
HETATM   34  C17 UNL     1      48.360 -36.080  52.228  1.00  0.00    -0.008 A 
HETATM   35  C18 UNL     1      47.424 -35.066  52.412  1.00  0.00     0.015 A 
HETATM   36  C21 UNL     1      48.041 -37.200  51.494  1.00  0.00     0.066 A 
HETATM   37  C19 UNL     1      46.191 -35.237  51.836  1.00  0.00     0.018 A 
HETATM   38  C20 UNL     1      45.915 -36.373  51.109  1.00  0.00     0.088 A 
HETATM   39  N5  UNL     1      46.823 -37.349  50.935  1.00  0.00    -0.364 N 
ATOM     40  H5  UNL     1      46.595 -38.182  50.392  1.00  0.00     0.165 HD
ENDBRANCH  27  30
ENDBRANCH  25  27
ENDBRANCH   7  25
TORSDOF 7
ENDMDL
