MODEL 1
REMARK VINA RESULT: -7.800120923      0.000      0.000
REMARK  10 active torsions:
REMARK  status: ('A' for Active; 'I' for Inactive)
REMARK    1  A    between atoms: C2_2  and  C3_3 
REMARK    2  A    between atoms: C4_4  and  C5_5 
REMARK    3  A    between atoms: C5_5  and  C6_6 
REMARK    4  A    between atoms: C7_8  and  C9_10 
REMARK    5  A    between atoms: C9_10  and  C10_11 
REMARK    6  A    between atoms: C10_11  and  C12_13 
REMARK    7  A    between atoms: C13_14  and  O2_15 
REMARK    8  A    between atoms: C14_17  and  O3_18 
REMARK    9  A    between atoms: C19_24  and  O4_25 
REMARK   10  A    between atoms: C22_29  and  O5_30 
ROOT
HETATM    1  C12 UNL     1      49.498 -41.907  47.848  1.00  0.00     0.030 C 
HETATM    2  C13 UNL     1      49.476 -42.557  46.470  1.00  0.00     0.152 C 
HETATM    3  C14 UNL     1      49.744 -44.008  46.928  1.00  0.00     0.156 C 
HETATM    4  C15 UNL     1      48.703 -44.123  47.976  1.00  0.00    -0.004 C 
HETATM    5  C16 UNL     1      47.365 -44.163  47.311  1.00  0.00     0.019 C 
HETATM    6  C17 UNL     1      48.774 -45.285  48.887  1.00  0.00     0.004 C 
HETATM    7  C18 UNL     1      48.260 -46.572  48.210  1.00  0.00     0.038 C 
HETATM    8  C19 UNL     1      48.554 -47.667  49.249  1.00  0.00     0.129 C 
HETATM    9  C20 UNL     1      47.460 -47.562  50.252  1.00  0.00     0.012 C 
HETATM   10  C21 UNL     1      46.377 -48.576  49.974  1.00  0.00     0.021 C 
HETATM   11  C22 UNL     1      47.798 -47.485  51.697  1.00  0.00     0.129 C 
HETATM   12  C23 UNL     1      46.676 -46.441  51.826  1.00  0.00     0.038 C 
HETATM   13  C24 UNL     1      46.915 -46.168  50.331  1.00  0.00     0.005 C 
HETATM   14  C25 UNL     1      48.007 -45.095  50.140  1.00  0.00    -0.004 C 
HETATM   15  C26 UNL     1      47.397 -43.799  50.446  1.00  0.00     0.006 C 
HETATM   16  C27 UNL     1      47.680 -42.652  49.507  1.00  0.00     0.011 C 
HETATM   17  C28 UNL     1      48.955 -42.861  48.794  1.00  0.00    -0.027 C 
HETATM   18  C29 UNL     1      49.993 -43.098  49.884  1.00  0.00     0.016 C 
ENDROOT
BRANCH   1  19
HETATM   19  C10 UNL     1      49.196 -40.460  47.891  1.00  0.00    -0.008 C 
HETATM   20  C11 UNL     1      48.299 -40.050  46.735  1.00  0.00     0.010 C 
BRANCH  19  21
HETATM   21  C9  UNL     1      48.715 -39.865  49.142  1.00  0.00     0.045 C 
BRANCH  21  22
HETATM   22  C7  UNL     1      49.573 -38.764  49.681  1.00  0.00     0.084 A 
HETATM   23  C6  UNL     1      49.907 -38.586  51.049  1.00  0.00     0.160 A 
HETATM   24  O1  UNL     1      50.864 -39.154  50.181  1.00  0.00    -0.369 OA
HETATM   25  C8  UNL     1      49.745 -37.538  48.748  1.00  0.00     0.049 C 
BRANCH  23  26
HETATM   26  C5  UNL     1      50.219 -37.189  51.580  1.00  0.00     0.061 C 
BRANCH  26  27
HETATM   27  C4  UNL     1      49.298 -36.848  52.684  1.00  0.00    -0.028 C 
HETATM   28  C3  UNL     1      48.214 -36.141  52.578  1.00  0.00    -0.031 C 
BRANCH  28  29
HETATM   29  C2  UNL     1      47.723 -35.556  51.319  1.00  0.00     0.022 C 
HETATM   30  C1  UNL     1      46.623 -36.446  50.715  1.00  0.00     0.009 C 
ENDBRANCH  28  29
ENDBRANCH  26  27
ENDBRANCH  23  26
ENDBRANCH  21  22
ENDBRANCH  19  21
ENDBRANCH   1  19
BRANCH   2  31
HETATM   31  O2  UNL     1      50.589 -42.166  45.692  1.00  0.00    -0.393 OA
ATOM     32  H2  UNL     1      51.408 -42.429  46.096  1.00  0.00     0.210 HD
ENDBRANCH   2  31
BRANCH   3  33
HETATM   33  O3  UNL     1      49.496 -44.842  45.843  1.00  0.00    -0.392 OA
ATOM     34  H3  UNL     1      49.887 -44.439  45.077  1.00  0.00     0.210 HD
ENDBRANCH   3  33
BRANCH   8  35
HETATM   35  O4  UNL     1      49.784 -47.404  49.844  1.00  0.00    -0.395 OA
ATOM     36  H4  UNL     1      50.340 -48.170  49.753  1.00  0.00     0.210 HD
ENDBRANCH   8  35
BRANCH  11  37
HETATM   37  O5  UNL     1      47.436 -48.646  52.419  1.00  0.00    -0.395 OA
ATOM     38  H5  UNL     1      48.148 -49.268  52.511  1.00  0.00     0.210 HD
ENDBRANCH  11  37
TORSDOF 10
ENDMDL
MODEL 2
REMARK VINA RESULT: -7.427139300      2.227      7.688
REMARK  10 active torsions:
REMARK  status: ('A' for Active; 'I' for Inactive)
REMARK    1  A    between atoms: C2_2  and  C3_3 
REMARK    2  A    between atoms: C4_4  and  C5_5 
REMARK    3  A    between atoms: C5_5  and  C6_6 
REMARK    4  A    between atoms: C7_8  and  C9_10 
REMARK    5  A    between atoms: C9_10  and  C10_11 
REMARK    6  A    between atoms: C10_11  and  C12_13 
REMARK    7  A    between atoms: C13_14  and  O2_15 
REMARK    8  A    between atoms: C14_17  and  O3_18 
REMARK    9  A    between atoms: C19_24  and  O4_25 
REMARK   10  A    between atoms: C22_29  and  O5_30 
ROOT
HETATM    1  C12 UNL     1      49.205 -45.045  49.912  1.00  0.00     0.030 C 
HETATM    2  C13 UNL     1      48.359 -44.715  51.136  1.00  0.00     0.152 C 
HETATM    3  C14 UNL     1      48.937 -43.308  51.406  1.00  0.00     0.156 C 
HETATM    4  C15 UNL     1      48.795 -42.727  50.051  1.00  0.00    -0.004 C 
HETATM    5  C16 UNL     1      47.341 -42.508  49.781  1.00  0.00     0.019 C 
HETATM    6  C17 UNL     1      49.488 -41.451  49.777  1.00  0.00     0.004 C 
HETATM    7  C18 UNL     1      48.738 -40.251  50.389  1.00  0.00     0.038 C 
HETATM    8  C19 UNL     1      49.680 -39.066  50.128  1.00  0.00     0.129 C 
HETATM    9  C20 UNL     1      49.455 -38.689  48.706  1.00  0.00     0.012 C 
HETATM   10  C21 UNL     1      48.499 -37.527  48.602  1.00  0.00     0.021 C 
HETATM   11  C22 UNL     1      50.621 -38.538  47.797  1.00  0.00     0.129 C 
HETATM   12  C23 UNL     1      49.773 -39.230  46.717  1.00  0.00     0.038 C 
HETATM   13  C24 UNL     1      49.004 -39.862  47.890  1.00  0.00     0.005 C 
HETATM   14  C25 UNL     1      49.670 -41.182  48.331  1.00  0.00    -0.004 C 
HETATM   15  C26 UNL     1      49.314 -42.198  47.337  1.00  0.00     0.006 C 
HETATM   16  C27 UNL     1      48.880 -43.551  47.844  1.00  0.00     0.011 C 
HETATM   17  C28 UNL     1      49.433 -43.811  49.188  1.00  0.00    -0.027 C 
HETATM   18  C29 UNL     1      50.937 -43.605  49.052  1.00  0.00     0.016 C 
ENDROOT
BRANCH   1  19
HETATM   19  C10 UNL     1      48.915 -46.334  49.247  1.00  0.00    -0.008 C 
HETATM   20  C11 UNL     1      50.063 -47.314  49.423  1.00  0.00     0.010 C 
BRANCH  19  21
HETATM   21  C9  UNL     1      47.634 -47.000  49.502  1.00  0.00     0.045 C 
BRANCH  21  22
HETATM   22  C7  UNL     1      46.491 -46.491  48.683  1.00  0.00     0.084 A 
HETATM   23  C6  UNL     1      46.571 -46.114  47.317  1.00  0.00     0.160 A 
HETATM   24  O1  UNL     1      46.015 -47.368  47.646  1.00  0.00    -0.369 OA
HETATM   25  C8  UNL     1      45.278 -45.962  49.490  1.00  0.00     0.049 C 
BRANCH  23  26
HETATM   26  C5  UNL     1      45.607 -45.069  46.759  1.00  0.00     0.061 C 
BRANCH  26  27
HETATM   27  C4  UNL     1      46.092 -44.576  45.453  1.00  0.00    -0.028 C 
HETATM   28  C3  UNL     1      46.264 -43.331  45.128  1.00  0.00    -0.031 C 
BRANCH  28  29
HETATM   29  C2  UNL     1      45.998 -42.193  46.025  1.00  0.00     0.022 C 
HETATM   30  C1  UNL     1      46.415 -40.876  45.349  1.00  0.00     0.009 C 
ENDBRANCH  28  29
ENDBRANCH  26  27
ENDBRANCH  23  26
ENDBRANCH  21  22
ENDBRANCH  19  21
ENDBRANCH   1  19
BRANCH   2  31
HETATM   31  O2  UNL     1      48.712 -45.518  52.244  1.00  0.00    -0.393 OA
ATOM     32  H2  UNL     1      48.551 -45.070  53.066  1.00  0.00     0.210 HD
ENDBRANCH   2  31
BRANCH   3  33
HETATM   33  O3  UNL     1      48.110 -42.688  52.337  1.00  0.00    -0.392 OA
ATOM     34  H3  UNL     1      48.653 -42.111  52.862  1.00  0.00     0.210 HD
ENDBRANCH   3  33
BRANCH   8  35
HETATM   35  O4  UNL     1      50.994 -39.484  50.317  1.00  0.00    -0.395 OA
ATOM     36  H4  UNL     1      51.479 -38.790  50.748  1.00  0.00     0.210 HD
ENDBRANCH   8  35
BRANCH  11  37
HETATM   37  O5  UNL     1      50.860 -37.199  47.411  1.00  0.00    -0.395 OA
ATOM     38  H5  UNL     1      51.753 -37.043  47.127  1.00  0.00     0.210 HD
ENDBRANCH  11  37
TORSDOF 10
ENDMDL
MODEL 3
REMARK VINA RESULT: -7.327672235      2.727      7.906
REMARK  10 active torsions:
REMARK  status: ('A' for Active; 'I' for Inactive)
REMARK    1  A    between atoms: C2_2  and  C3_3 
REMARK    2  A    between atoms: C4_4  and  C5_5 
REMARK    3  A    between atoms: C5_5  and  C6_6 
REMARK    4  A    between atoms: C7_8  and  C9_10 
REMARK    5  A    between atoms: C9_10  and  C10_11 
REMARK    6  A    between atoms: C10_11  and  C12_13 
REMARK    7  A    between atoms: C13_14  and  O2_15 
REMARK    8  A    between atoms: C14_17  and  O3_18 
REMARK    9  A    between atoms: C19_24  and  O4_25 
REMARK   10  A    between atoms: C22_29  and  O5_30 
ROOT
HETATM    1  C12 UNL     1      48.998 -45.240  50.503  1.00  0.00     0.030 C 
HETATM    2  C13 UNL     1      48.140 -44.433  51.470  1.00  0.00     0.152 C 
HETATM    3  C14 UNL     1      48.718 -43.040  51.136  1.00  0.00     0.156 C 
HETATM    4  C15 UNL     1      48.592 -43.075  49.661  1.00  0.00    -0.004 C 
HETATM    5  C16 UNL     1      47.141 -42.991  49.309  1.00  0.00     0.019 C 
HETATM    6  C17 UNL     1      49.290 -42.027  48.888  1.00  0.00     0.004 C 
HETATM    7  C18 UNL     1      48.536 -40.683  48.938  1.00  0.00     0.038 C 
HETATM    8  C19 UNL     1      49.485 -39.711  48.217  1.00  0.00     0.129 C 
HETATM    9  C20 UNL     1      49.276 -39.961  46.764  1.00  0.00     0.012 C 
HETATM   10  C21 UNL     1      48.322 -38.949  46.177  1.00  0.00     0.021 C 
HETATM   11  C22 UNL     1      50.451 -40.199  45.888  1.00  0.00     0.129 C 
HETATM   12  C23 UNL     1      49.613 -41.280  45.185  1.00  0.00     0.038 C 
HETATM   13  C24 UNL     1      48.830 -41.368  46.506  1.00  0.00     0.005 C 
HETATM   14  C25 UNL     1      49.488 -42.383  47.463  1.00  0.00    -0.004 C 
HETATM   15  C26 UNL     1      49.141 -43.722  46.979  1.00  0.00     0.006 C 
HETATM   16  C27 UNL     1      48.698 -44.742  47.998  1.00  0.00     0.011 C 
HETATM   17  C28 UNL     1      49.236 -44.418  49.333  1.00  0.00    -0.027 C 
HETATM   18  C29 UNL     1      50.742 -44.284  49.140  1.00  0.00     0.016 C 
ENDROOT
BRANCH   1  19
HETATM   19  C10 UNL     1      48.712 -46.689  50.432  1.00  0.00    -0.008 C 
HETATM   20  C11 UNL     1      49.884 -47.507  50.948  1.00  0.00     0.010 C 
BRANCH  19  21
HETATM   21  C9  UNL     1      47.454 -47.199  50.984  1.00  0.00     0.045 C 
BRANCH  21  22
HETATM   22  C7  UNL     1      46.298 -47.173  50.035  1.00  0.00     0.084 A 
HETATM   23  C6  UNL     1      46.345 -47.600  48.682  1.00  0.00     0.160 A 
HETATM   24  O1  UNL     1      45.768 -48.453  49.647  1.00  0.00    -0.369 OA
HETATM   25  C8  UNL     1      45.126 -46.245  50.441  1.00  0.00     0.049 C 
BRANCH  23  26
HETATM   26  C5  UNL     1      45.389 -46.990  47.659  1.00  0.00     0.061 C 
BRANCH  26  27
HETATM   27  C4  UNL     1      46.127 -46.614  46.435  1.00  0.00    -0.028 C 
HETATM   28  C3  UNL     1      45.997 -45.500  45.782  1.00  0.00    -0.031 C 
BRANCH  28  29
HETATM   29  C2  UNL     1      45.076 -44.415  46.163  1.00  0.00     0.022 C 
HETATM   30  C1  UNL     1      45.680 -43.051  45.789  1.00  0.00     0.009 C 
ENDBRANCH  28  29
ENDBRANCH  26  27
ENDBRANCH  23  26
ENDBRANCH  21  22
ENDBRANCH  19  21
ENDBRANCH   1  19
BRANCH   2  31
HETATM   31  O2  UNL     1      48.479 -44.701  52.815  1.00  0.00    -0.393 OA
ATOM     32  H2  UNL     1      47.907 -44.241  53.419  1.00  0.00     0.210 HD
ENDBRANCH   2  31
BRANCH   3  33
HETATM   33  O3  UNL     1      47.883 -42.090  51.716  1.00  0.00    -0.392 OA
ATOM     34  H3  UNL     1      48.246 -41.233  51.522  1.00  0.00     0.210 HD
ENDBRANCH   3  33
BRANCH   8  35
HETATM   35  O4  UNL     1      50.795 -40.010  48.577  1.00  0.00    -0.395 OA
ATOM     36  H4  UNL     1      51.164 -39.267  49.041  1.00  0.00     0.210 HD
ENDBRANCH   8  35
BRANCH  11  37
HETATM   37  O5  UNL     1      50.697 -39.141  44.982  1.00  0.00    -0.395 OA
ATOM     38  H5  UNL     1      50.625 -39.402  44.072  1.00  0.00     0.210 HD
ENDBRANCH  11  37
TORSDOF 10
ENDMDL
MODEL 4
REMARK VINA RESULT: -7.239092101      2.351      8.180
REMARK  10 active torsions:
REMARK  status: ('A' for Active; 'I' for Inactive)
REMARK    1  A    between atoms: C2_2  and  C3_3 
REMARK    2  A    between atoms: C4_4  and  C5_5 
REMARK    3  A    between atoms: C5_5  and  C6_6 
REMARK    4  A    between atoms: C7_8  and  C9_10 
REMARK    5  A    between atoms: C9_10  and  C10_11 
REMARK    6  A    between atoms: C10_11  and  C12_13 
REMARK    7  A    between atoms: C13_14  and  O2_15 
REMARK    8  A    between atoms: C14_17  and  O3_18 
REMARK    9  A    between atoms: C19_24  and  O4_25 
REMARK   10  A    between atoms: C22_29  and  O5_30 
ROOT
HETATM    1  C12 UNL     1      48.585 -44.645  49.366  1.00  0.00     0.030 C 
HETATM    2  C13 UNL     1      48.115 -44.358  50.787  1.00  0.00     0.152 C 
HETATM    3  C14 UNL     1      48.952 -43.081  51.021  1.00  0.00     0.156 C 
HETATM    4  C15 UNL     1      48.585 -42.327  49.800  1.00  0.00    -0.004 C 
HETATM    5  C16 UNL     1      47.160 -41.890  49.925  1.00  0.00     0.019 C 
HETATM    6  C17 UNL     1      49.382 -41.128  49.470  1.00  0.00     0.004 C 
HETATM    7  C18 UNL     1      48.994 -39.923  50.352  1.00  0.00     0.038 C 
HETATM    8  C19 UNL     1      50.020 -38.847  49.963  1.00  0.00     0.129 C 
HETATM    9  C20 UNL     1      49.526 -38.276  48.680  1.00  0.00     0.012 C 
HETATM   10  C21 UNL     1      48.764 -36.996  48.920  1.00  0.00     0.021 C 
HETATM   11  C22 UNL     1      50.453 -38.169  47.524  1.00  0.00     0.129 C 
HETATM   12  C23 UNL     1      49.276 -38.610  46.637  1.00  0.00     0.038 C 
HETATM   13  C24 UNL     1      48.718 -39.273  47.907  1.00  0.00     0.005 C 
HETATM   14  C25 UNL     1      49.256 -40.712  48.053  1.00  0.00    -0.004 C 
HETATM   15  C26 UNL     1      48.523 -41.547  47.098  1.00  0.00     0.006 C 
HETATM   16  C27 UNL     1      48.016 -42.883  47.582  1.00  0.00     0.011 C 
HETATM   17  C28 UNL     1      48.824 -43.372  48.715  1.00  0.00    -0.027 C 
HETATM   18  C29 UNL     1      50.266 -43.348  48.224  1.00  0.00     0.016 C 
ENDROOT
BRANCH   1  19
HETATM   19  C10 UNL     1      47.950 -45.796  48.689  1.00  0.00    -0.008 C 
HETATM   20  C11 UNL     1      46.480 -45.907  49.056  1.00  0.00     0.010 C 
BRANCH  19  21
HETATM   21  C9  UNL     1      48.127 -45.964  47.243  1.00  0.00     0.045 C 
BRANCH  21  22
HETATM   22  C7  UNL     1      49.376 -46.684  46.846  1.00  0.00     0.084 A 
HETATM   23  C6  UNL     1      50.082 -47.605  47.664  1.00  0.00     0.160 A 
HETATM   24  O1  UNL     1      49.251 -48.102  46.638  1.00  0.00    -0.369 OA
HETATM   25  C8  UNL     1      50.148 -46.067  45.652  1.00  0.00     0.049 C 
BRANCH  23  26
HETATM   26  C5  UNL     1      51.585 -47.796  47.471  1.00  0.00     0.061 C 
BRANCH  26  27
HETATM   27  C4  UNL     1      52.329 -47.020  48.485  1.00  0.00    -0.028 C 
HETATM   28  C3  UNL     1      53.138 -46.034  48.244  1.00  0.00    -0.031 C 
BRANCH  28  29
HETATM   29  C2  UNL     1      53.447 -45.523  46.898  1.00  0.00     0.022 C 
HETATM   30  C1  UNL     1      54.922 -45.095  46.819  1.00  0.00     0.009 C 
ENDBRANCH  28  29
ENDBRANCH  26  27
ENDBRANCH  23  26
ENDBRANCH  21  22
ENDBRANCH  19  21
ENDBRANCH   1  19
BRANCH   2  31
HETATM   31  O2  UNL     1      48.591 -45.327  51.698  1.00  0.00    -0.393 OA
ATOM     32  H2  UNL     1      48.569 -45.007  52.593  1.00  0.00     0.210 HD
ENDBRANCH   2  31
BRANCH   3  33
HETATM   33  O3  UNL     1      48.475 -42.475  52.180  1.00  0.00    -0.392 OA
ATOM     34  H3  UNL     1      48.439 -41.539  52.019  1.00  0.00     0.210 HD
ENDBRANCH   3  33
BRANCH   8  35
HETATM   35  O4  UNL     1      51.260 -39.452  49.779  1.00  0.00    -0.395 OA
ATOM     36  H4  UNL     1      51.927 -38.778  49.733  1.00  0.00     0.210 HD
ENDBRANCH   8  35
BRANCH  11  37
HETATM   37  O5  UNL     1      50.798 -36.835  47.205  1.00  0.00    -0.395 OA
ATOM     38  H5  UNL     1      50.386 -36.520  46.410  1.00  0.00     0.210 HD
ENDBRANCH  11  37
TORSDOF 10
ENDMDL
MODEL 5
REMARK VINA RESULT: -7.206684620      2.585      4.340
REMARK  10 active torsions:
REMARK  status: ('A' for Active; 'I' for Inactive)
REMARK    1  A    between atoms: C2_2  and  C3_3 
REMARK    2  A    between atoms: C4_4  and  C5_5 
REMARK    3  A    between atoms: C5_5  and  C6_6 
REMARK    4  A    between atoms: C7_8  and  C9_10 
REMARK    5  A    between atoms: C9_10  and  C10_11 
REMARK    6  A    between atoms: C10_11  and  C12_13 
REMARK    7  A    between atoms: C13_14  and  O2_15 
REMARK    8  A    between atoms: C14_17  and  O3_18 
REMARK    9  A    between atoms: C19_24  and  O4_25 
REMARK   10  A    between atoms: C22_29  and  O5_30 
ROOT
HETATM    1  C12 UNL     1      47.923 -43.031  48.265  1.00  0.00     0.030 C 
HETATM    2  C13 UNL     1      48.100 -43.447  49.720  1.00  0.00     0.152 C 
HETATM    3  C14 UNL     1      48.566 -44.897  49.460  1.00  0.00     0.156 C 
HETATM    4  C15 UNL     1      49.644 -44.629  48.480  1.00  0.00    -0.004 C 
HETATM    5  C16 UNL     1      50.781 -43.975  49.196  1.00  0.00     0.019 C 
HETATM    6  C17 UNL     1      50.198 -45.781  47.739  1.00  0.00     0.004 C 
HETATM    7  C18 UNL     1      51.169 -46.605  48.608  1.00  0.00     0.038 C 
HETATM    8  C19 UNL     1      51.508 -47.815  47.722  1.00  0.00     0.129 C 
HETATM    9  C20 UNL     1      52.530 -47.323  46.758  1.00  0.00     0.012 C 
HETATM   10  C21 UNL     1      53.921 -47.686  47.217  1.00  0.00     0.021 C 
HETATM   11  C22 UNL     1      52.339 -47.565  45.305  1.00  0.00     0.129 C 
HETATM   12  C23 UNL     1      52.872 -46.141  45.075  1.00  0.00     0.038 C 
HETATM   13  C24 UNL     1      52.388 -45.853  46.506  1.00  0.00     0.005 C 
HETATM   14  C25 UNL     1      50.915 -45.392  46.502  1.00  0.00    -0.004 C 
HETATM   15  C26 UNL     1      50.899 -44.001  46.042  1.00  0.00     0.006 C 
HETATM   16  C27 UNL     1      50.035 -43.023  46.799  1.00  0.00     0.011 C 
HETATM   17  C28 UNL     1      48.930 -43.721  47.484  1.00  0.00    -0.027 C 
HETATM   18  C29 UNL     1      48.226 -44.525  46.398  1.00  0.00     0.016 C 
ENDROOT
BRANCH   1  19
HETATM   19  C10 UNL     1      47.539 -41.622  48.032  1.00  0.00    -0.008 C 
HETATM   20  C11 UNL     1      46.402 -41.520  47.029  1.00  0.00     0.010 C 
BRANCH  19  21
HETATM   21  C9  UNL     1      47.283 -40.749  49.182  1.00  0.00     0.045 C 
BRANCH  21  22
HETATM   22  C7  UNL     1      48.457 -39.934  49.622  1.00  0.00     0.084 A 
HETATM   23  C6  UNL     1      48.446 -39.000  50.690  1.00  0.00     0.160 A 
HETATM   24  O1  UNL     1      49.017 -40.271  50.904  1.00  0.00    -0.369 OA
HETATM   25  C8  UNL     1      49.605 -39.810  48.589  1.00  0.00     0.049 C 
BRANCH  23  26
HETATM   26  C5  UNL     1      49.411 -37.816  50.675  1.00  0.00     0.061 C 
BRANCH  26  27
HETATM   27  C4  UNL     1      49.378 -37.117  51.976  1.00  0.00    -0.028 C 
HETATM   28  C3  UNL     1      48.713 -36.033  52.239  1.00  0.00    -0.031 C 
BRANCH  28  29
HETATM   29  C2  UNL     1      47.872 -35.317  51.265  1.00  0.00     0.022 C 
HETATM   30  C1  UNL     1      46.399 -35.729  51.433  1.00  0.00     0.009 C 
ENDBRANCH  28  29
ENDBRANCH  26  27
ENDBRANCH  23  26
ENDBRANCH  21  22
ENDBRANCH  19  21
ENDBRANCH   1  19
BRANCH   2  31
HETATM   31  O2  UNL     1      46.860 -43.534  50.392  1.00  0.00    -0.393 OA
ATOM     32  H2  UNL     1      46.225 -44.033  49.890  1.00  0.00     0.210 HD
ENDBRANCH   2  31
BRANCH   3  33
HETATM   33  O3  UNL     1      49.056 -45.401  50.660  1.00  0.00    -0.392 OA
ATOM     34  H3  UNL     1      48.891 -46.337  50.666  1.00  0.00     0.210 HD
ENDBRANCH   3  33
BRANCH   8  35
HETATM   35  O4  UNL     1      50.358 -48.215  47.049  1.00  0.00    -0.395 OA
ATOM     36  H4  UNL     1      49.853 -48.787  47.615  1.00  0.00     0.210 HD
ENDBRANCH   8  35
BRANCH  11  37
HETATM   37  O5  UNL     1      53.257 -48.496  44.766  1.00  0.00    -0.395 OA
ATOM     38  H5  UNL     1      54.157 -48.193  44.790  1.00  0.00     0.210 HD
ENDBRANCH  11  37
TORSDOF 10
ENDMDL
