MODEL 1
REMARK VINA RESULT: -6.996248730      0.000      0.000
REMARK  9 active torsions:
REMARK  status: ('A' for Active; 'I' for Inactive)
REMARK    1  A    between atoms: C3_3  and  O1_4 
REMARK    2  A    between atoms: C9_11  and  O2_12 
REMARK    3  A    between atoms: C13_17  and  C14_18 
REMARK    4  A    between atoms: C14_18  and  C15_19 
REMARK    5  A    between atoms: C16_20  and  C17_21 
REMARK    6  A    between atoms: C17_21  and  O3_24 
REMARK    7  A    between atoms: C26_32  and  O4_33 
REMARK    8  A    between atoms: O4_33  and  C27_34 
REMARK    9  A    between atoms: C27_34  and  C28_35 
ROOT
HETATM    1  C1  UNL     1      47.755 -46.704  48.407  1.00  0.00     0.019 C 
HETATM    2  C2  UNL     1      48.553 -45.873  47.743  1.00  0.00    -0.031 C 
HETATM    3  C3  UNL     1      49.863 -46.312  47.267  1.00  0.00     0.157 C 
HETATM    4  C4  UNL     1      50.942 -45.292  47.261  1.00  0.00    -0.013 C 
HETATM    5  C5  UNL     1      51.759 -45.553  45.981  1.00  0.00     0.018 C 
HETATM    6  C6  UNL     1      51.945 -45.508  48.403  1.00  0.00     0.018 C 
HETATM    7  C7  UNL     1      50.475 -43.877  47.183  1.00  0.00     0.010 C 
HETATM    8  C8  UNL     1      50.287 -43.485  45.748  1.00  0.00     0.038 C 
HETATM    9  C9  UNL     1      49.734 -42.099  45.544  1.00  0.00     0.123 C 
HETATM   10  C10 UNL     1      49.757 -41.401  46.852  1.00  0.00     0.027 C 
HETATM   11  C11 UNL     1      49.361 -39.940  46.803  1.00  0.00    -0.007 C 
HETATM   12  C12 UNL     1      49.995 -39.301  45.584  1.00  0.00     0.011 C 
HETATM   13  C13 UNL     1      49.974 -39.308  48.018  1.00  0.00    -0.007 C 
HETATM   14  C20 UNL     1      49.784 -40.041  49.294  1.00  0.00     0.006 C 
HETATM   15  C21 UNL     1      49.791 -41.528  49.231  1.00  0.00     0.011 C 
HETATM   16  C22 UNL     1      49.055 -42.099  47.996  1.00  0.00    -0.027 C 
HETATM   17  C23 UNL     1      47.641 -41.604  48.192  1.00  0.00     0.016 C 
HETATM   18  C24 UNL     1      49.207 -43.580  47.993  1.00  0.00    -0.002 C 
HETATM   19  C25 UNL     1      49.429 -44.010  49.438  1.00  0.00     0.019 C 
HETATM   20  C26 UNL     1      48.146 -44.432  47.436  1.00  0.00     0.162 C 
ENDROOT
BRANCH  13  21
HETATM   21  C14 UNL     1      49.574 -37.865  48.213  1.00  0.00     0.031 C 
BRANCH  21  22
HETATM   22  C15 UNL     1      49.073 -37.642  49.603  1.00  0.00    -0.027 C 
HETATM   23  C16 UNL     1      48.665 -36.487  50.055  1.00  0.00     0.006 C 
BRANCH  23  24
HETATM   24  C17 UNL     1      48.177 -36.323  51.443  1.00  0.00     0.068 C 
HETATM   25  C18 UNL     1      49.046 -35.337  52.198  1.00  0.00     0.050 C 
HETATM   26  C19 UNL     1      46.761 -35.825  51.454  1.00  0.00     0.050 C 
BRANCH  24  27
HETATM   27  O3  UNL     1      48.298 -37.568  52.068  1.00  0.00    -0.387 OA
ATOM     28  H3  UNL     1      49.225 -37.717  52.214  1.00  0.00     0.211 HD
ENDBRANCH  24  27
ENDBRANCH  23  24
ENDBRANCH  21  22
ENDBRANCH  13  21
BRANCH   9  29
HETATM   29  O2  UNL     1      48.554 -42.058  44.843  1.00  0.00    -0.395 OA
ATOM     30  H2  UNL     1      48.276 -41.185  44.596  1.00  0.00     0.210 HD
ENDBRANCH   9  29
BRANCH  20  31
HETATM   31  O4  UNL     1      46.874 -44.334  47.911  1.00  0.00    -0.370 OA
BRANCH  31  32
HETATM   32  C27 UNL     1      45.931 -44.693  46.950  1.00  0.00     0.281 C 
BRANCH  32  33
HETATM   33  C28 UNL     1      46.018 -43.842  45.742  1.00  0.00     0.197 C 
HETATM   34  O5  UNL     1      45.594 -42.668  45.777  1.00  0.00    -0.646 OA
HETATM   35  O6  UNL     1      46.577 -44.388  44.596  1.00  0.00    -0.646 OA
ENDBRANCH  32  33
ENDBRANCH  31  32
ENDBRANCH  20  31
BRANCH   3  36
HETATM   36  O1  UNL     1      49.683 -46.921  46.017  1.00  0.00    -0.390 OA
ATOM     37  H1  UNL     1      50.541 -47.151  45.680  1.00  0.00     0.210 HD
ENDBRANCH   3  36
TORSDOF 9
ENDMDL
MODEL 2
REMARK VINA RESULT: -6.920977160      2.681      4.918
REMARK  9 active torsions:
REMARK  status: ('A' for Active; 'I' for Inactive)
REMARK    1  A    between atoms: C3_3  and  O1_4 
REMARK    2  A    between atoms: C9_11  and  O2_12 
REMARK    3  A    between atoms: C13_17  and  C14_18 
REMARK    4  A    between atoms: C14_18  and  C15_19 
REMARK    5  A    between atoms: C16_20  and  C17_21 
REMARK    6  A    between atoms: C17_21  and  O3_24 
REMARK    7  A    between atoms: C26_32  and  O4_33 
REMARK    8  A    between atoms: O4_33  and  C27_34 
REMARK    9  A    between atoms: C27_34  and  C28_35 
ROOT
HETATM    1  C1  UNL     1      48.150 -48.818  47.714  1.00  0.00     0.019 C 
HETATM    2  C2  UNL     1      47.643 -47.799  48.402  1.00  0.00    -0.031 C 
HETATM    3  C3  UNL     1      46.202 -47.687  48.622  1.00  0.00     0.157 C 
HETATM    4  C4  UNL     1      45.643 -46.312  48.662  1.00  0.00    -0.013 C 
HETATM    5  C5  UNL     1      44.564 -46.330  49.763  1.00  0.00     0.018 C 
HETATM    6  C6  UNL     1      44.874 -45.965  47.380  1.00  0.00     0.018 C 
HETATM    7  C7  UNL     1      46.615 -45.244  49.041  1.00  0.00     0.010 C 
HETATM    8  C8  UNL     1      46.669 -45.117  50.534  1.00  0.00     0.038 C 
HETATM    9  C9  UNL     1      47.682 -44.125  51.042  1.00  0.00     0.123 C 
HETATM   10  C10 UNL     1      48.189 -43.354  49.882  1.00  0.00     0.027 C 
HETATM   11  C11 UNL     1      49.120 -42.213  50.230  1.00  0.00    -0.007 C 
HETATM   12  C12 UNL     1      48.579 -41.493  51.448  1.00  0.00     0.011 C 
HETATM   13  C13 UNL     1      49.054 -41.261  49.072  1.00  0.00    -0.007 C 
HETATM   14  C20 UNL     1      49.172 -41.871  47.725  1.00  0.00     0.006 C 
HETATM   15  C21 UNL     1      48.557 -43.212  47.531  1.00  0.00     0.011 C 
HETATM   16  C22 UNL     1      48.754 -44.164  48.735  1.00  0.00    -0.027 C 
HETATM   17  C23 UNL     1      50.258 -44.299  48.812  1.00  0.00     0.016 C 
HETATM   18  C24 UNL     1      48.023 -45.433  48.465  1.00  0.00    -0.002 C 
HETATM   19  C25 UNL     1      47.925 -45.579  46.951  1.00  0.00     0.019 C 
HETATM   20  C26 UNL     1      48.528 -46.706  49.000  1.00  0.00     0.162 C 
ENDROOT
BRANCH  13  21
HETATM   21  C14 UNL     1      50.028 -40.112  49.181  1.00  0.00     0.031 C 
BRANCH  21  22
HETATM   22  C15 UNL     1      49.302 -38.806  49.190  1.00  0.00    -0.027 C 
HETATM   23  C16 UNL     1      49.008 -38.142  50.274  1.00  0.00     0.006 C 
BRANCH  23  24
HETATM   24  C17 UNL     1      48.286 -36.850  50.224  1.00  0.00     0.068 C 
HETATM   25  C18 UNL     1      46.848 -37.028  50.669  1.00  0.00     0.050 C 
HETATM   26  C19 UNL     1      48.945 -35.838  51.115  1.00  0.00     0.050 C 
BRANCH  24  27
HETATM   27  O3  UNL     1      48.275 -36.440  48.887  1.00  0.00    -0.387 OA
ATOM     28  H3  UNL     1      48.805 -37.061  48.401  1.00  0.00     0.211 HD
ENDBRANCH  24  27
ENDBRANCH  23  24
ENDBRANCH  21  22
ENDBRANCH  13  21
BRANCH   9  29
HETATM   29  O2  UNL     1      48.624 -44.660  51.886  1.00  0.00    -0.395 OA
ATOM     30  H2  UNL     1      48.788 -44.144  52.666  1.00  0.00     0.210 HD
ENDBRANCH   9  29
BRANCH  20  31
HETATM   31  O4  UNL     1      49.797 -47.109  48.719  1.00  0.00    -0.370 OA
BRANCH  31  32
HETATM   32  C27 UNL     1      50.319 -47.922  49.722  1.00  0.00     0.281 C 
BRANCH  32  33
HETATM   33  C28 UNL     1      51.776 -47.725  49.893  1.00  0.00     0.197 C 
HETATM   34  O5  UNL     1      52.443 -47.193  48.981  1.00  0.00    -0.646 OA
HETATM   35  O6  UNL     1      52.358 -48.144  51.080  1.00  0.00    -0.646 OA
ENDBRANCH  32  33
ENDBRANCH  31  32
ENDBRANCH  20  31
BRANCH   3  36
HETATM   36  O1  UNL     1      45.883 -48.438  49.762  1.00  0.00    -0.390 OA
ATOM     37  H1  UNL     1      45.039 -48.141  50.079  1.00  0.00     0.210 HD
ENDBRANCH   3  36
TORSDOF 9
ENDMDL
MODEL 3
REMARK VINA RESULT: -6.684044185      3.093      5.752
REMARK  9 active torsions:
REMARK  status: ('A' for Active; 'I' for Inactive)
REMARK    1  A    between atoms: C3_3  and  O1_4 
REMARK    2  A    between atoms: C9_11  and  O2_12 
REMARK    3  A    between atoms: C13_17  and  C14_18 
REMARK    4  A    between atoms: C14_18  and  C15_19 
REMARK    5  A    between atoms: C16_20  and  C17_21 
REMARK    6  A    between atoms: C17_21  and  O3_24 
REMARK    7  A    between atoms: C26_32  and  O4_33 
REMARK    8  A    between atoms: O4_33  and  C27_34 
REMARK    9  A    between atoms: C27_34  and  C28_35 
ROOT
HETATM    1  C1  UNL     1      50.282 -48.349  49.228  1.00  0.00     0.019 C 
HETATM    2  C2  UNL     1      49.592 -47.307  49.681  1.00  0.00    -0.031 C 
HETATM    3  C3  UNL     1      48.602 -47.469  50.744  1.00  0.00     0.157 C 
HETATM    4  C4  UNL     1      47.408 -46.589  50.679  1.00  0.00    -0.013 C 
HETATM    5  C5  UNL     1      47.096 -46.196  52.136  1.00  0.00     0.018 C 
HETATM    6  C6  UNL     1      46.158 -47.348  50.213  1.00  0.00     0.018 C 
HETATM    7  C7  UNL     1      47.602 -45.313  49.929  1.00  0.00     0.010 C 
HETATM    8  C8  UNL     1      48.153 -44.266  50.850  1.00  0.00     0.038 C 
HETATM    9  C9  UNL     1      48.472 -42.952  50.186  1.00  0.00     0.123 C 
HETATM   10  C10 UNL     1      47.912 -42.986  48.814  1.00  0.00     0.027 C 
HETATM   11  C11 UNL     1      48.023 -41.685  48.046  1.00  0.00    -0.007 C 
HETATM   12  C12 UNL     1      47.694 -40.537  48.978  1.00  0.00     0.011 C 
HETATM   13  C13 UNL     1      46.955 -41.737  46.994  1.00  0.00    -0.007 C 
HETATM   14  C20 UNL     1      46.870 -43.000  46.220  1.00  0.00     0.006 C 
HETATM   15  C21 UNL     1      47.160 -44.264  46.949  1.00  0.00     0.011 C 
HETATM   16  C22 UNL     1      48.339 -44.149  47.945  1.00  0.00    -0.027 C 
HETATM   17  C23 UNL     1      49.503 -43.798  47.046  1.00  0.00     0.016 C 
HETATM   18  C24 UNL     1      48.475 -45.439  48.675  1.00  0.00    -0.002 C 
HETATM   19  C25 UNL     1      47.898 -46.525  47.775  1.00  0.00     0.019 C 
HETATM   20  C26 UNL     1      49.797 -45.897  49.128  1.00  0.00     0.162 C 
ENDROOT
BRANCH  13  21
HETATM   21  C14 UNL     1      46.996 -40.572  46.036  1.00  0.00     0.031 C 
BRANCH  21  22
HETATM   22  C15 UNL     1      48.129 -40.724  45.072  1.00  0.00    -0.027 C 
HETATM   23  C16 UNL     1      49.095 -39.856  44.939  1.00  0.00     0.006 C 
BRANCH  23  24
HETATM   24  C17 UNL     1      50.194 -40.059  43.968  1.00  0.00     0.068 C 
HETATM   25  C18 UNL     1      49.799 -41.086  42.926  1.00  0.00     0.050 C 
HETATM   26  C19 UNL     1      50.533 -38.772  43.272  1.00  0.00     0.050 C 
BRANCH  24  27
HETATM   27  O3  UNL     1      51.283 -40.568  44.683  1.00  0.00    -0.387 OA
ATOM     28  H3  UNL     1      52.063 -40.374  44.177  1.00  0.00     0.211 HD
ENDBRANCH  24  27
ENDBRANCH  23  24
ENDBRANCH  21  22
ENDBRANCH  13  21
BRANCH   9  29
HETATM   29  O2  UNL     1      49.783 -42.560  50.308  1.00  0.00    -0.395 OA
ATOM     30  H2  UNL     1      50.205 -42.345  49.485  1.00  0.00     0.210 HD
ENDBRANCH   9  29
BRANCH  20  31
HETATM   31  O4  UNL     1      50.815 -46.031  48.235  1.00  0.00    -0.370 OA
BRANCH  31  32
HETATM   32  C27 UNL     1      51.991 -45.443  48.695  1.00  0.00     0.281 C 
BRANCH  32  33
HETATM   33  C28 UNL     1      53.073 -45.505  47.688  1.00  0.00     0.197 C 
HETATM   34  O5  UNL     1      52.875 -45.068  46.534  1.00  0.00    -0.646 OA
HETATM   35  O6  UNL     1      54.289 -46.057  48.066  1.00  0.00    -0.646 OA
ENDBRANCH  32  33
ENDBRANCH  31  32
ENDBRANCH  20  31
BRANCH   3  36
HETATM   36  O1  UNL     1      49.274 -47.385  51.972  1.00  0.00    -0.390 OA
ATOM     37  H1  UNL     1      50.087 -47.870  51.892  1.00  0.00     0.210 HD
ENDBRANCH   3  36
TORSDOF 9
ENDMDL
MODEL 4
REMARK VINA RESULT: -6.594505343      7.052     11.482
REMARK  9 active torsions:
REMARK  status: ('A' for Active; 'I' for Inactive)
REMARK    1  A    between atoms: C3_3  and  O1_4 
REMARK    2  A    between atoms: C9_11  and  O2_12 
REMARK    3  A    between atoms: C13_17  and  C14_18 
REMARK    4  A    between atoms: C14_18  and  C15_19 
REMARK    5  A    between atoms: C16_20  and  C17_21 
REMARK    6  A    between atoms: C17_21  and  O3_24 
REMARK    7  A    between atoms: C26_32  and  O4_33 
REMARK    8  A    between atoms: O4_33  and  C27_34 
REMARK    9  A    between atoms: C27_34  and  C28_35 
ROOT
HETATM    1  C1  UNL     1      52.381 -29.465  45.566  1.00  0.00     0.019 C 
HETATM    2  C2  UNL     1      51.909 -30.316  44.660  1.00  0.00    -0.031 C 
HETATM    3  C3  UNL     1      51.101 -29.842  43.537  1.00  0.00     0.157 C 
HETATM    4  C4  UNL     1      50.029 -30.752  43.061  1.00  0.00    -0.013 C 
HETATM    5  C5  UNL     1      50.018 -30.621  41.526  1.00  0.00     0.018 C 
HETATM    6  C6  UNL     1      48.635 -30.277  43.494  1.00  0.00     0.018 C 
HETATM    7  C7  UNL     1      50.247 -32.198  43.360  1.00  0.00     0.010 C 
HETATM    8  C8  UNL     1      51.068 -32.821  42.271  1.00  0.00     0.038 C 
HETATM    9  C9  UNL     1      51.427 -34.265  42.504  1.00  0.00     0.123 C 
HETATM   10  C10 UNL     1      50.644 -34.749  43.665  1.00  0.00     0.027 C 
HETATM   11  C11 UNL     1      50.779 -36.229  43.956  1.00  0.00    -0.007 C 
HETATM   12  C12 UNL     1      50.755 -36.989  42.646  1.00  0.00     0.011 C 
HETATM   13  C13 UNL     1      49.550 -36.610  44.726  1.00  0.00    -0.007 C 
HETATM   14  C20 UNL     1      49.183 -35.710  45.847  1.00  0.00     0.006 C 
HETATM   15  C21 UNL     1      49.437 -34.255  45.660  1.00  0.00     0.011 C 
HETATM   16  C22 UNL     1      50.772 -33.947  44.942  1.00  0.00    -0.027 C 
HETATM   17  C23 UNL     1      51.801 -34.528  45.885  1.00  0.00     0.016 C 
HETATM   18  C24 UNL     1      50.873 -32.477  44.732  1.00  0.00    -0.002 C 
HETATM   19  C25 UNL     1      50.024 -31.812  45.809  1.00  0.00     0.019 C 
HETATM   20  C26 UNL     1      52.187 -31.816  44.735  1.00  0.00     0.162 C 
ENDROOT
BRANCH  13  21
HETATM   21  C14 UNL     1      49.570 -38.036  45.224  1.00  0.00     0.031 C 
BRANCH  21  22
HETATM   22  C15 UNL     1      49.485 -38.072  46.716  1.00  0.00    -0.027 C 
HETATM   23  C16 UNL     1      49.939 -39.052  47.449  1.00  0.00     0.006 C 
BRANCH  23  24
HETATM   24  C17 UNL     1      49.829 -39.036  48.925  1.00  0.00     0.068 C 
HETATM   25  C18 UNL     1      49.598 -37.623  49.425  1.00  0.00     0.050 C 
HETATM   26  C19 UNL     1      48.691 -39.901  49.383  1.00  0.00     0.050 C 
BRANCH  24  27
HETATM   27  O3  UNL     1      51.057 -39.476  49.432  1.00  0.00    -0.387 OA
ATOM     28  H3  UNL     1      50.890 -40.287  49.897  1.00  0.00     0.211 HD
ENDBRANCH  24  27
ENDBRANCH  23  24
ENDBRANCH  21  22
ENDBRANCH  13  21
BRANCH   9  29
HETATM   29  O2  UNL     1      52.778 -34.516  42.524  1.00  0.00    -0.395 OA
ATOM     30  H2  UNL     1      53.069 -35.029  43.268  1.00  0.00     0.210 HD
ENDBRANCH   9  29
BRANCH  20  31
HETATM   31  O4  UNL     1      53.015 -31.951  45.806  1.00  0.00    -0.370 OA
BRANCH  31  32
HETATM   32  C27 UNL     1      54.303 -32.320  45.425  1.00  0.00     0.281 C 
BRANCH  32  33
HETATM   33  C28 UNL     1      55.338 -31.544  46.144  1.00  0.00     0.197 C 
HETATM   34  O5  UNL     1      55.821 -31.988  47.207  1.00  0.00    -0.646 OA
HETATM   35  O6  UNL     1      55.741 -30.332  45.603  1.00  0.00    -0.646 OA
ENDBRANCH  32  33
ENDBRANCH  31  32
ENDBRANCH  20  31
BRANCH   3  36
HETATM   36  O1  UNL     1      51.977 -29.450  42.515  1.00  0.00    -0.390 OA
ATOM     37  H1  UNL     1      51.645 -28.642  42.142  1.00  0.00     0.210 HD
ENDBRANCH   3  36
TORSDOF 9
ENDMDL
MODEL 5
REMARK VINA RESULT: -6.515188274      2.494      7.673
REMARK  9 active torsions:
REMARK  status: ('A' for Active; 'I' for Inactive)
REMARK    1  A    between atoms: C3_3  and  O1_4 
REMARK    2  A    between atoms: C9_11  and  O2_12 
REMARK    3  A    between atoms: C13_17  and  C14_18 
REMARK    4  A    between atoms: C14_18  and  C15_19 
REMARK    5  A    between atoms: C16_20  and  C17_21 
REMARK    6  A    between atoms: C17_21  and  O3_24 
REMARK    7  A    between atoms: C26_32  and  O4_33 
REMARK    8  A    between atoms: O4_33  and  C27_34 
REMARK    9  A    between atoms: C27_34  and  C28_35 
ROOT
HETATM    1  C1  UNL     1      46.783 -40.841  46.496  1.00  0.00     0.019 C 
HETATM    2  C2  UNL     1      47.360 -41.427  47.540  1.00  0.00    -0.031 C 
HETATM    3  C3  UNL     1      47.741 -40.652  48.720  1.00  0.00     0.157 C 
HETATM    4  C4  UNL     1      48.966 -41.092  49.435  1.00  0.00    -0.013 C 
HETATM    5  C5  UNL     1      48.663 -40.910  50.935  1.00  0.00     0.018 C 
HETATM    6  C6  UNL     1      50.155 -40.159  49.170  1.00  0.00     0.018 C 
HETATM    7  C7  UNL     1      49.326 -42.528  49.248  1.00  0.00     0.010 C 
HETATM    8  C8  UNL     1      48.601 -43.367  50.258  1.00  0.00     0.038 C 
HETATM    9  C9  UNL     1      48.820 -44.850  50.115  1.00  0.00     0.123 C 
HETATM   10  C10 UNL     1      49.913 -45.058  49.135  1.00  0.00     0.027 C 
HETATM   11  C11 UNL     1      50.359 -46.496  48.972  1.00  0.00    -0.007 C 
HETATM   12  C12 UNL     1      50.423 -47.147  50.338  1.00  0.00     0.011 C 
HETATM   13  C13 UNL     1      51.758 -46.432  48.433  1.00  0.00    -0.007 C 
HETATM   14  C20 UNL     1      51.973 -45.502  47.298  1.00  0.00     0.006 C 
HETATM   15  C21 UNL     1      51.194 -44.233  47.303  1.00  0.00     0.011 C 
HETATM   16  C22 UNL     1      49.733 -44.405  47.782  1.00  0.00    -0.027 C 
HETATM   17  C23 UNL     1      49.155 -45.355  46.758  1.00  0.00     0.016 C 
HETATM   18  C24 UNL     1      49.086 -43.065  47.832  1.00  0.00    -0.002 C 
HETATM   19  C25 UNL     1      49.820 -42.177  46.834  1.00  0.00     0.019 C 
HETATM   20  C26 UNL     1      47.646 -42.928  47.570  1.00  0.00     0.162 C 
ENDROOT
BRANCH  13  21
HETATM   21  C14 UNL     1      52.328 -47.785  48.078  1.00  0.00     0.031 C 
BRANCH  21  22
HETATM   22  C15 UNL     1      53.126 -47.703  46.816  1.00  0.00    -0.027 C 
HETATM   23  C16 UNL     1      54.431 -47.693  46.778  1.00  0.00     0.006 C 
BRANCH  23  24
HETATM   24  C17 UNL     1      55.171 -47.612  45.498  1.00  0.00     0.068 C 
HETATM   25  C18 UNL     1      54.833 -48.796  44.613  1.00  0.00     0.050 C 
HETATM   26  C19 UNL     1      54.827 -46.348  44.764  1.00  0.00     0.050 C 
BRANCH  24  27
HETATM   27  O3  UNL     1      56.533 -47.682  45.808  1.00  0.00    -0.387 OA
ATOM     28  H3  UNL     1      56.915 -48.337  45.235  1.00  0.00     0.211 HD
ENDBRANCH  24  27
ENDBRANCH  23  24
ENDBRANCH  21  22
ENDBRANCH  13  21
BRANCH   9  29
HETATM   29  O2  UNL     1      47.670 -45.575  49.919  1.00  0.00    -0.395 OA
ATOM     30  H2  UNL     1      47.616 -46.370  50.436  1.00  0.00     0.210 HD
ENDBRANCH   9  29
BRANCH  20  31
HETATM   31  O4  UNL     1      47.117 -43.394  46.406  1.00  0.00    -0.370 OA
BRANCH  31  32
HETATM   32  C27 UNL     1      46.045 -44.256  46.629  1.00  0.00     0.281 C 
BRANCH  32  33
HETATM   33  C28 UNL     1      44.893 -43.944  45.755  1.00  0.00     0.197 C 
HETATM   34  O5  UNL     1      45.077 -43.360  44.666  1.00  0.00    -0.646 OA
HETATM   35  O6  UNL     1      43.627 -44.318  46.183  1.00  0.00    -0.646 OA
ENDBRANCH  32  33
ENDBRANCH  31  32
ENDBRANCH  20  31
BRANCH   3  36
HETATM   36  O1  UNL     1      46.621 -40.568  49.558  1.00  0.00    -0.390 OA
ATOM     37  H1  UNL     1      46.933 -40.500  50.453  1.00  0.00     0.210 HD
ENDBRANCH   3  36
TORSDOF 9
ENDMDL
