MODEL 1
REMARK VINA RESULT: -8.362618323      0.000      0.000
REMARK  9 active torsions:
REMARK  status: ('A' for Active; 'I' for Inactive)
REMARK    1  A    between atoms: C2_2  and  O1_3 
REMARK    2  A    between atoms: O1_3  and  C3_4 
REMARK    3  A    between atoms: C3_4  and  C4_5 
REMARK    4  A    between atoms: C4_5  and  C5_6 
REMARK    5  A    between atoms: C5_6  and  C6_7 
REMARK    6  A    between atoms: C8_9  and  O2_10 
REMARK    7  A    between atoms: C12_15  and  O3_16 
REMARK    8  A    between atoms: C20_25  and  O4_26 
REMARK    9  A    between atoms: C27_34  and  O5_35 
ROOT
HETATM    1  C6  UNL     1      48.322 -40.666  49.233  1.00  0.00    -0.005 C 
HETATM    2  C7  UNL     1      49.838 -40.547  48.829  1.00  0.00     0.019 C 
HETATM    3  C8  UNL     1      47.645 -40.524  47.883  1.00  0.00     0.150 C 
HETATM    4  C9  UNL     1      47.801 -41.887  47.313  1.00  0.00     0.009 C 
HETATM    5  C10 UNL     1      48.052 -42.752  48.256  1.00  0.00    -0.062 C 
HETATM    6  C11 UNL     1      48.094 -42.066  49.563  1.00  0.00     0.055 C 
HETATM    7  C12 UNL     1      49.200 -42.730  50.349  1.00  0.00     0.128 C 
HETATM    8  C13 UNL     1      48.960 -44.182  50.565  1.00  0.00     0.043 C 
HETATM    9  C14 UNL     1      48.263 -44.927  49.484  1.00  0.00    -0.020 C 
HETATM   10  C15 UNL     1      47.044 -45.601  49.967  1.00  0.00     0.017 C 
HETATM   11  C16 UNL     1      47.316 -47.106  50.057  1.00  0.00     0.005 C 
HETATM   12  C17 UNL     1      46.696 -47.813  51.168  1.00  0.00    -0.017 C 
HETATM   13  C18 UNL     1      45.970 -46.912  52.181  1.00  0.00     0.018 C 
HETATM   14  C19 UNL     1      45.524 -48.641  50.585  1.00  0.00     0.018 C 
HETATM   15  C20 UNL     1      47.513 -48.783  51.944  1.00  0.00     0.126 C 
HETATM   16  C21 UNL     1      48.985 -48.572  51.952  1.00  0.00     0.033 C 
HETATM   17  C22 UNL     1      49.373 -47.215  51.332  1.00  0.00     0.012 C 
HETATM   18  C23 UNL     1      48.853 -47.236  49.964  1.00  0.00    -0.035 C 
HETATM   19  C24 UNL     1      49.195 -48.555  49.251  1.00  0.00     0.016 C 
HETATM   20  C25 UNL     1      49.055 -46.175  49.028  1.00  0.00     0.006 C 
HETATM   21  C26 UNL     1      50.279 -45.593  48.584  1.00  0.00     0.039 C 
HETATM   22  C27 UNL     1      49.708 -44.459  47.703  1.00  0.00     0.131 C 
HETATM   23  C28 UNL     1      48.274 -44.257  48.163  1.00  0.00     0.014 C 
HETATM   24  C29 UNL     1      47.362 -44.834  47.137  1.00  0.00     0.023 C 
ENDROOT
BRANCH   1  25
HETATM   25  C5  UNL     1      48.017 -39.595  50.142  1.00  0.00     0.015 C 
BRANCH  25  26
HETATM   26  C4  UNL     1      48.868 -38.527  50.602  1.00  0.00     0.027 C 
BRANCH  26  27
HETATM   27  C3  UNL     1      48.309 -37.417  51.433  1.00  0.00     0.167 C 
BRANCH  27  28
HETATM   28  O1  UNL     1      47.023 -37.017  51.055  1.00  0.00    -0.391 OA
BRANCH  28  29
HETATM   29  C2  UNL     1      46.814 -35.707  51.436  1.00  0.00     0.163 C 
HETATM   30  C1  UNL     1      47.941 -35.324  52.399  1.00  0.00     0.033 C 
ENDBRANCH  28  29
ENDBRANCH  27  28
ENDBRANCH  26  27
ENDBRANCH  25  26
ENDBRANCH   1  25
BRANCH   3  31
HETATM   31  O2  UNL     1      48.390 -39.676  47.041  1.00  0.00    -0.391 OA
ATOM     32  H2  UNL     1      48.775 -40.167  46.325  1.00  0.00     0.210 HD
ENDBRANCH   3  31
BRANCH   7  33
HETATM   33  O3  UNL     1      49.326 -42.130  51.630  1.00  0.00    -0.395 OA
ATOM     34  H3  UNL     1      50.164 -41.691  51.709  1.00  0.00     0.210 HD
ENDBRANCH   7  33
BRANCH  22  35
HETATM   35  O5  UNL     1      49.777 -44.908  46.380  1.00  0.00    -0.394 OA
ATOM     36  H5  UNL     1      50.243 -44.240  45.890  1.00  0.00     0.210 HD
ENDBRANCH  22  35
BRANCH  15  37
HETATM   37  O4  UNL     1      47.091 -48.818  53.291  1.00  0.00    -0.395 OA
ATOM     38  H4  UNL     1      47.286 -49.663  53.679  1.00  0.00     0.210 HD
ENDBRANCH  15  37
TORSDOF 9
ENDMDL
MODEL 2
REMARK VINA RESULT: -7.768381223      2.546      5.055
REMARK  9 active torsions:
REMARK  status: ('A' for Active; 'I' for Inactive)
REMARK    1  A    between atoms: C2_2  and  O1_3 
REMARK    2  A    between atoms: O1_3  and  C3_4 
REMARK    3  A    between atoms: C3_4  and  C4_5 
REMARK    4  A    between atoms: C4_5  and  C5_6 
REMARK    5  A    between atoms: C5_6  and  C6_7 
REMARK    6  A    between atoms: C8_9  and  O2_10 
REMARK    7  A    between atoms: C12_15  and  O3_16 
REMARK    8  A    between atoms: C20_25  and  O4_26 
REMARK    9  A    between atoms: C27_34  and  O5_35 
ROOT
HETATM    1  C6  UNL     1      49.263 -40.987  49.550  1.00  0.00    -0.005 C 
HETATM    2  C7  UNL     1      47.778 -40.927  49.031  1.00  0.00     0.019 C 
HETATM    3  C8  UNL     1      49.064 -41.533  50.951  1.00  0.00     0.150 C 
HETATM    4  C9  UNL     1      48.889 -42.986  50.697  1.00  0.00     0.009 C 
HETATM    5  C10 UNL     1      49.356 -43.304  49.522  1.00  0.00    -0.062 C 
HETATM    6  C11 UNL     1      49.895 -42.101  48.857  1.00  0.00     0.055 C 
HETATM    7  C12 UNL     1      49.537 -42.235  47.394  1.00  0.00     0.128 C 
HETATM    8  C13 UNL     1      50.127 -43.447  46.767  1.00  0.00     0.043 C 
HETATM    9  C14 UNL     1      50.259 -44.660  47.616  1.00  0.00    -0.020 C 
HETATM   10  C15 UNL     1      51.648 -45.150  47.678  1.00  0.00     0.017 C 
HETATM   11  C16 UNL     1      51.761 -46.420  46.829  1.00  0.00     0.005 C 
HETATM   12  C17 UNL     1      53.003 -46.602  46.092  1.00  0.00    -0.017 C 
HETATM   13  C18 UNL     1      53.973 -45.410  46.159  1.00  0.00     0.018 C 
HETATM   14  C19 UNL     1      53.809 -47.706  46.820  1.00  0.00     0.018 C 
HETATM   15  C20 UNL     1      52.936 -47.038  44.672  1.00  0.00     0.126 C 
HETATM   16  C21 UNL     1      51.692 -46.714  43.925  1.00  0.00     0.033 C 
HETATM   17  C22 UNL     1      50.780 -45.755  44.716  1.00  0.00     0.012 C 
HETATM   18  C23 UNL     1      50.474 -46.438  45.973  1.00  0.00    -0.035 C 
HETATM   19  C24 UNL     1      50.061 -47.900  45.734  1.00  0.00     0.016 C 
HETATM   20  C25 UNL     1      49.602 -45.903  46.970  1.00  0.00     0.006 C 
HETATM   21  C26 UNL     1      48.247 -45.475  46.840  1.00  0.00     0.039 C 
HETATM   22  C27 UNL     1      48.025 -44.919  48.263  1.00  0.00     0.131 C 
HETATM   23  C28 UNL     1      49.411 -44.662  48.831  1.00  0.00     0.014 C 
HETATM   24  C29 UNL     1      49.716 -45.720  49.833  1.00  0.00     0.023 C 
ENDROOT
BRANCH   1  25
HETATM   25  C5  UNL     1      49.798 -39.654  49.525  1.00  0.00     0.015 C 
BRANCH  25  26
HETATM   26  C4  UNL     1      50.205 -38.819  50.626  1.00  0.00     0.027 C 
BRANCH  26  27
HETATM   27  C3  UNL     1      49.308 -37.733  51.128  1.00  0.00     0.167 C 
BRANCH  27  28
HETATM   28  O1  UNL     1      47.952 -38.077  51.138  1.00  0.00    -0.391 OA
BRANCH  28  29
HETATM   29  C2  UNL     1      47.193 -36.977  50.795  1.00  0.00     0.163 C 
HETATM   30  C1  UNL     1      47.651 -35.810  51.675  1.00  0.00     0.033 C 
ENDBRANCH  28  29
ENDBRANCH  27  28
ENDBRANCH  26  27
ENDBRANCH  25  26
ENDBRANCH   1  25
BRANCH   3  31
HETATM   31  O2  UNL     1      47.837 -41.093  51.486  1.00  0.00    -0.391 OA
ATOM     32  H2  UNL     1      47.902 -40.190  51.775  1.00  0.00     0.210 HD
ENDBRANCH   3  31
BRANCH   7  33
HETATM   33  O3  UNL     1      50.010 -41.112  46.665  1.00  0.00    -0.395 OA
ATOM     34  H3  UNL     1      49.577 -41.059  45.821  1.00  0.00     0.210 HD
ENDBRANCH   7  33
BRANCH  22  35
HETATM   35  O5  UNL     1      47.341 -45.910  48.977  1.00  0.00    -0.394 OA
ATOM     36  H5  UNL     1      47.251 -46.653  48.392  1.00  0.00     0.210 HD
ENDBRANCH  22  35
BRANCH  15  37
HETATM   37  O4  UNL     1      54.014 -46.498  43.939  1.00  0.00    -0.395 OA
ATOM     38  H4  UNL     1      54.707 -46.215  44.525  1.00  0.00     0.210 HD
ENDBRANCH  15  37
TORSDOF 9
ENDMDL
MODEL 3
REMARK VINA RESULT: -7.752426418      1.215      1.494
REMARK  9 active torsions:
REMARK  status: ('A' for Active; 'I' for Inactive)
REMARK    1  A    between atoms: C2_2  and  O1_3 
REMARK    2  A    between atoms: O1_3  and  C3_4 
REMARK    3  A    between atoms: C3_4  and  C4_5 
REMARK    4  A    between atoms: C4_5  and  C5_6 
REMARK    5  A    between atoms: C5_6  and  C6_7 
REMARK    6  A    between atoms: C8_9  and  O2_10 
REMARK    7  A    between atoms: C12_15  and  O3_16 
REMARK    8  A    between atoms: C20_25  and  O4_26 
REMARK    9  A    between atoms: C27_34  and  O5_35 
ROOT
HETATM    1  C6  UNL     1      48.399 -40.708  49.217  1.00  0.00    -0.005 C 
HETATM    2  C7  UNL     1      49.920 -40.608  48.826  1.00  0.00     0.019 C 
HETATM    3  C8  UNL     1      47.736 -40.568  47.860  1.00  0.00     0.150 C 
HETATM    4  C9  UNL     1      47.881 -41.936  47.301  1.00  0.00     0.009 C 
HETATM    5  C10 UNL     1      48.115 -42.797  48.252  1.00  0.00    -0.062 C 
HETATM    6  C11 UNL     1      48.153 -42.103  49.554  1.00  0.00     0.055 C 
HETATM    7  C12 UNL     1      49.245 -42.774  50.355  1.00  0.00     0.128 C 
HETATM    8  C13 UNL     1      48.988 -44.221  50.579  1.00  0.00     0.043 C 
HETATM    9  C14 UNL     1      48.292 -44.966  49.496  1.00  0.00    -0.020 C 
HETATM   10  C15 UNL     1      47.061 -45.623  49.973  1.00  0.00     0.017 C 
HETATM   11  C16 UNL     1      47.316 -47.130  50.076  1.00  0.00     0.005 C 
HETATM   12  C17 UNL     1      46.679 -47.823  51.187  1.00  0.00    -0.017 C 
HETATM   13  C18 UNL     1      45.954 -46.908  52.187  1.00  0.00     0.018 C 
HETATM   14  C19 UNL     1      45.503 -48.643  50.599  1.00  0.00     0.018 C 
HETATM   15  C20 UNL     1      47.478 -48.797  51.976  1.00  0.00     0.126 C 
HETATM   16  C21 UNL     1      48.953 -48.602  51.995  1.00  0.00     0.033 C 
HETATM   17  C22 UNL     1      49.361 -47.253  51.369  1.00  0.00     0.012 C 
HETATM   18  C23 UNL     1      48.853 -47.278  49.998  1.00  0.00    -0.035 C 
HETATM   19  C24 UNL     1      49.186 -48.605  49.296  1.00  0.00     0.016 C 
HETATM   20  C25 UNL     1      49.073 -46.226  49.056  1.00  0.00     0.006 C 
HETATM   21  C26 UNL     1      50.308 -45.660  48.618  1.00  0.00     0.039 C 
HETATM   22  C27 UNL     1      49.757 -44.526  47.726  1.00  0.00     0.131 C 
HETATM   23  C28 UNL     1      48.321 -44.305  48.171  1.00  0.00     0.014 C 
HETATM   24  C29 UNL     1      47.412 -44.879  47.141  1.00  0.00     0.023 C 
ENDROOT
BRANCH   1  25
HETATM   25  C5  UNL     1      48.099 -39.628  50.116  1.00  0.00     0.015 C 
BRANCH  25  26
HETATM   26  C4  UNL     1      48.896 -38.474  50.446  1.00  0.00     0.027 C 
BRANCH  26  27
HETATM   27  C3  UNL     1      48.791 -37.222  49.635  1.00  0.00     0.167 C 
BRANCH  27  28
HETATM   28  O1  UNL     1      49.499 -37.266  48.430  1.00  0.00    -0.391 OA
BRANCH  28  29
HETATM   29  C2  UNL     1      48.939 -36.380  47.531  1.00  0.00     0.163 C 
HETATM   30  C1  UNL     1      50.043 -35.954  46.559  1.00  0.00     0.033 C 
ENDBRANCH  28  29
ENDBRANCH  27  28
ENDBRANCH  26  27
ENDBRANCH  25  26
ENDBRANCH   1  25
BRANCH   3  31
HETATM   31  O2  UNL     1      48.497 -39.733  47.019  1.00  0.00    -0.391 OA
ATOM     32  H2  UNL     1      48.308 -38.818  47.195  1.00  0.00     0.210 HD
ENDBRANCH   3  31
BRANCH   7  33
HETATM   33  O3  UNL     1      49.366 -42.167  51.633  1.00  0.00    -0.395 OA
ATOM     34  H3  UNL     1      49.618 -42.811  52.284  1.00  0.00     0.210 HD
ENDBRANCH   7  33
BRANCH  22  35
HETATM   35  O5  UNL     1      49.832 -44.985  46.405  1.00  0.00    -0.394 OA
ATOM     36  H5  UNL     1      50.476 -44.441  45.966  1.00  0.00     0.210 HD
ENDBRANCH  22  35
BRANCH  15  37
HETATM   37  O4  UNL     1      47.044 -48.818  53.319  1.00  0.00    -0.395 OA
ATOM     38  H4  UNL     1      46.123 -48.591  53.374  1.00  0.00     0.210 HD
ENDBRANCH  15  37
TORSDOF 9
ENDMDL
MODEL 4
REMARK VINA RESULT: -7.431033187      3.041      5.649
REMARK  9 active torsions:
REMARK  status: ('A' for Active; 'I' for Inactive)
REMARK    1  A    between atoms: C2_2  and  O1_3 
REMARK    2  A    between atoms: O1_3  and  C3_4 
REMARK    3  A    between atoms: C3_4  and  C4_5 
REMARK    4  A    between atoms: C4_5  and  C5_6 
REMARK    5  A    between atoms: C5_6  and  C6_7 
REMARK    6  A    between atoms: C8_9  and  O2_10 
REMARK    7  A    between atoms: C12_15  and  O3_16 
REMARK    8  A    between atoms: C20_25  and  O4_26 
REMARK    9  A    between atoms: C27_34  and  O5_35 
ROOT
HETATM    1  C6  UNL     1      49.111 -42.229  49.603  1.00  0.00    -0.005 C 
HETATM    2  C7  UNL     1      47.702 -42.365  48.918  1.00  0.00     0.019 C 
HETATM    3  C8  UNL     1      48.892 -43.010  50.885  1.00  0.00     0.150 C 
HETATM    4  C9  UNL     1      49.038 -44.414  50.422  1.00  0.00     0.009 C 
HETATM    5  C10 UNL     1      49.670 -44.456  49.282  1.00  0.00    -0.062 C 
HETATM    6  C11 UNL     1      50.017 -43.087  48.853  1.00  0.00     0.055 C 
HETATM    7  C12 UNL     1      49.836 -43.058  47.353  1.00  0.00     0.128 C 
HETATM    8  C13 UNL     1      50.714 -44.030  46.649  1.00  0.00     0.043 C 
HETATM    9  C14 UNL     1      51.005 -45.314  47.341  1.00  0.00    -0.020 C 
HETATM   10  C15 UNL     1      52.452 -45.542  47.509  1.00  0.00     0.017 C 
HETATM   11  C16 UNL     1      52.898 -46.624  46.520  1.00  0.00     0.005 C 
HETATM   12  C17 UNL     1      54.216 -46.458  45.925  1.00  0.00    -0.017 C 
HETATM   13  C18 UNL     1      54.916 -45.132  46.269  1.00  0.00     0.018 C 
HETATM   14  C19 UNL     1      55.153 -47.493  46.596  1.00  0.00     0.018 C 
HETATM   15  C20 UNL     1      54.374 -46.675  44.463  1.00  0.00     0.126 C 
HETATM   16  C21 UNL     1      53.168 -46.476  43.617  1.00  0.00     0.033 C 
HETATM   17  C22 UNL     1      52.011 -45.835  44.409  1.00  0.00     0.012 C 
HETATM   18  C23 UNL     1      51.729 -46.748  45.516  1.00  0.00    -0.035 C 
HETATM   19  C24 UNL     1      51.643 -48.207  45.038  1.00  0.00     0.016 C 
HETATM   20  C25 UNL     1      50.676 -46.542  46.460  1.00  0.00     0.006 C 
HETATM   21  C26 UNL     1      49.281 -46.358  46.220  1.00  0.00     0.039 C 
HETATM   22  C27 UNL     1      48.817 -46.077  47.666  1.00  0.00     0.131 C 
HETATM   23  C28 UNL     1      50.062 -45.659  48.430  1.00  0.00     0.014 C 
HETATM   24  C29 UNL     1      50.476 -46.783  49.314  1.00  0.00     0.023 C 
ENDROOT
BRANCH   1  25
HETATM   25  C5  UNL     1      49.368 -40.832  49.821  1.00  0.00     0.015 C 
BRANCH  25  26
HETATM   26  C4  UNL     1      48.472 -39.713  49.680  1.00  0.00     0.027 C 
BRANCH  26  27
HETATM   27  C3  UNL     1      48.480 -38.602  50.681  1.00  0.00     0.167 C 
BRANCH  27  28
HETATM   28  O1  UNL     1      47.280 -37.886  50.744  1.00  0.00    -0.391 OA
BRANCH  28  29
HETATM   29  C2  UNL     1      47.519 -36.555  50.466  1.00  0.00     0.163 C 
HETATM   30  C1  UNL     1      46.548 -35.728  51.313  1.00  0.00     0.033 C 
ENDBRANCH  28  29
ENDBRANCH  27  28
ENDBRANCH  26  27
ENDBRANCH  25  26
ENDBRANCH   1  25
BRANCH   3  31
HETATM   31  O2  UNL     1      47.557 -42.892  51.317  1.00  0.00    -0.391 OA
ATOM     32  H2  UNL     1      47.469 -43.181  52.218  1.00  0.00     0.210 HD
ENDBRANCH   3  31
BRANCH   7  33
HETATM   33  O3  UNL     1      50.141 -41.770  46.842  1.00  0.00    -0.395 OA
ATOM     34  H3  UNL     1      50.565 -41.841  45.995  1.00  0.00     0.210 HD
ENDBRANCH   7  33
BRANCH  22  35
HETATM   35  O5  UNL     1      48.280 -47.274  48.153  1.00  0.00    -0.394 OA
ATOM     36  H5  UNL     1      48.275 -47.203  49.101  1.00  0.00     0.210 HD
ENDBRANCH  22  35
BRANCH  15  37
HETATM   37  O4  UNL     1      55.387 -45.839  43.946  1.00  0.00    -0.395 OA
ATOM     38  H4  UNL     1      56.168 -46.345  43.752  1.00  0.00     0.210 HD
ENDBRANCH  15  37
TORSDOF 9
ENDMDL
MODEL 5
REMARK VINA RESULT: -7.161874771      1.311      1.460
REMARK  9 active torsions:
REMARK  status: ('A' for Active; 'I' for Inactive)
REMARK    1  A    between atoms: C2_2  and  O1_3 
REMARK    2  A    between atoms: O1_3  and  C3_4 
REMARK    3  A    between atoms: C3_4  and  C4_5 
REMARK    4  A    between atoms: C4_5  and  C5_6 
REMARK    5  A    between atoms: C5_6  and  C6_7 
REMARK    6  A    between atoms: C8_9  and  O2_10 
REMARK    7  A    between atoms: C12_15  and  O3_16 
REMARK    8  A    between atoms: C20_25  and  O4_26 
REMARK    9  A    between atoms: C27_34  and  O5_35 
ROOT
HETATM    1  C6  UNL     1      48.646 -40.253  49.299  1.00  0.00    -0.005 C 
HETATM    2  C7  UNL     1      50.144 -40.291  49.780  1.00  0.00     0.019 C 
HETATM    3  C8  UNL     1      48.816 -39.933  47.826  1.00  0.00     0.150 C 
HETATM    4  C9  UNL     1      49.167 -41.261  47.259  1.00  0.00     0.009 C 
HETATM    5  C10 UNL     1      48.812 -42.215  48.074  1.00  0.00    -0.062 C 
HETATM    6  C11 UNL     1      48.186 -41.635  49.278  1.00  0.00     0.055 C 
HETATM    7  C12 UNL     1      48.647 -42.484  50.441  1.00  0.00     0.128 C 
HETATM    8  C13 UNL     1      48.236 -43.907  50.312  1.00  0.00     0.043 C 
HETATM    9  C14 UNL     1      48.187 -44.482  48.941  1.00  0.00    -0.020 C 
HETATM   10  C15 UNL     1      46.860 -45.035  48.615  1.00  0.00     0.017 C 
HETATM   11  C16 UNL     1      46.943 -46.564  48.645  1.00  0.00     0.005 C 
HETATM   12  C17 UNL     1      45.777 -47.269  49.159  1.00  0.00    -0.017 C 
HETATM   13  C18 UNL     1      44.678 -46.361  49.738  1.00  0.00     0.018 C 
HETATM   14  C19 UNL     1      45.055 -47.904  47.945  1.00  0.00     0.018 C 
HETATM   15  C20 UNL     1      45.981 -48.385  50.121  1.00  0.00     0.126 C 
HETATM   16  C21 UNL     1      47.226 -48.356  50.934  1.00  0.00     0.033 C 
HETATM   17  C22 UNL     1      47.974 -47.015  50.791  1.00  0.00     0.012 C 
HETATM   18  C23 UNL     1      48.275 -46.874  49.366  1.00  0.00    -0.035 C 
HETATM   19  C24 UNL     1      48.862 -48.170  48.782  1.00  0.00     0.016 C 
HETATM   20  C25 UNL     1      49.017 -45.782  48.821  1.00  0.00     0.006 C 
HETATM   21  C26 UNL     1      50.322 -45.322  49.171  1.00  0.00     0.039 C 
HETATM   22  C27 UNL     1      50.391 -44.067  48.273  1.00  0.00     0.131 C 
HETATM   23  C28 UNL     1      48.953 -43.726  47.924  1.00  0.00     0.014 C 
HETATM   24  C29 UNL     1      48.705 -44.111  46.507  1.00  0.00     0.023 C 
ENDROOT
BRANCH   1  25
HETATM   25  C5  UNL     1      47.968 -39.221  50.035  1.00  0.00     0.015 C 
BRANCH  25  26
HETATM   26  C4  UNL     1      48.517 -38.241  50.937  1.00  0.00     0.027 C 
BRANCH  26  27
HETATM   27  C3  UNL     1      48.455 -36.784  50.604  1.00  0.00     0.167 C 
BRANCH  27  28
HETATM   28  O1  UNL     1      47.183 -36.343  50.223  1.00  0.00    -0.391 OA
BRANCH  28  29
HETATM   29  C2  UNL     1      46.575 -35.707  51.286  1.00  0.00     0.163 C 
HETATM   30  C1  UNL     1      47.673 -35.333  52.285  1.00  0.00     0.033 C 
ENDBRANCH  28  29
ENDBRANCH  27  28
ENDBRANCH  26  27
ENDBRANCH  25  26
ENDBRANCH   1  25
BRANCH   3  31
HETATM   31  O2  UNL     1      49.950 -39.123  47.622  1.00  0.00    -0.391 OA
ATOM     32  H2  UNL     1      49.786 -38.484  46.939  1.00  0.00     0.210 HD
ENDBRANCH   3  31
BRANCH   7  33
HETATM   33  O3  UNL     1      48.099 -41.997  51.657  1.00  0.00    -0.395 OA
ATOM     34  H3  UNL     1      47.704 -42.707  52.150  1.00  0.00     0.210 HD
ENDBRANCH   7  33
BRANCH  22  35
HETATM   35  O5  UNL     1      51.135 -44.425  47.143  1.00  0.00    -0.394 OA
ATOM     36  H5  UNL     1      50.606 -44.197  46.387  1.00  0.00     0.210 HD
ENDBRANCH  22  35
BRANCH  15  37
HETATM   37  O4  UNL     1      44.897 -48.464  51.022  1.00  0.00    -0.395 OA
ATOM     38  H4  UNL     1      44.519 -47.603  51.163  1.00  0.00     0.210 HD
ENDBRANCH  15  37
TORSDOF 9
ENDMDL
