MODEL 1
REMARK VINA RESULT: -7.017137508      0.000      0.000
REMARK  10 active torsions:
REMARK  status: ('A' for Active; 'I' for Inactive)
REMARK    1  A    between atoms: C2_2  and  C3_3 
REMARK    2  A    between atoms: C2_2  and  C4_6 
REMARK    3  A    between atoms: C3_3  and  O1_4 
REMARK    4  A    between atoms: C5_7  and  O2_8 
REMARK    5  A    between atoms: C11_16  and  C13_18 
REMARK    6  A    between atoms: C13_18  and  C14_19 
REMARK    7  A    between atoms: C14_19  and  C15_20 
REMARK    8  A    between atoms: C22_27  and  C24_29 
REMARK    9  A    between atoms: C24_29  and  O4_30 
REMARK   10  A    between atoms: C25_32  and  O5_33 
ROOT
HETATM    1  C15 UNL     1      49.428 -44.136  47.034  1.00  0.00     0.002 C 
HETATM    2  C16 UNL     1      50.313 -45.223  46.445  1.00  0.00    -0.043 C 
HETATM    3  C17 UNL     1      51.308 -44.676  45.417  1.00  0.00     0.015 C 
HETATM    4  C18 UNL     1      49.495 -46.226  45.657  1.00  0.00     0.015 C 
HETATM    5  C19 UNL     1      51.157 -45.934  47.423  1.00  0.00     0.010 C 
HETATM    6  C20 UNL     1      50.553 -46.290  48.720  1.00  0.00     0.007 C 
HETATM    7  C21 UNL     1      49.142 -45.822  48.838  1.00  0.00     0.007 C 
HETATM    8  C22 UNL     1      48.634 -46.166  50.189  1.00  0.00     0.007 C 
HETATM    9  C23 UNL     1      47.322 -46.936  50.090  1.00  0.00     0.020 C 
HETATM   10  C25 UNL     1      48.448 -45.084  51.174  1.00  0.00     0.128 C 
HETATM   11  C26 UNL     1      48.978 -43.739  50.845  1.00  0.00     0.033 C 
HETATM   12  C27 UNL     1      49.746 -43.644  49.532  1.00  0.00     0.012 C 
HETATM   13  C28 UNL     1      49.054 -44.350  48.430  1.00  0.00    -0.035 C 
HETATM   14  C29 UNL     1      47.555 -43.963  48.529  1.00  0.00     0.016 C 
ENDROOT
BRANCH   1  15
HETATM   15  C14 UNL     1      49.771 -42.789  46.483  1.00  0.00     0.007 C 
BRANCH  15  16
HETATM   16  C13 UNL     1      48.737 -41.767  46.318  1.00  0.00     0.015 C 
BRANCH  16  17
HETATM   17  C11 UNL     1      49.035 -40.347  46.482  1.00  0.00    -0.007 C 
HETATM   18  C4  UNL     1      48.851 -39.499  47.611  1.00  0.00    -0.034 C 
HETATM   19  C5  UNL     1      49.369 -38.072  47.435  1.00  0.00     0.159 C 
HETATM   20  C6  UNL     1      48.690 -37.391  46.274  1.00  0.00     0.084 C 
HETATM   21  C7  UNL     1      49.427 -36.112  45.947  1.00  0.00     0.021 C 
HETATM   22  C8  UNL     1      48.695 -38.286  45.113  1.00  0.00     0.138 C 
HETATM   23  O3  UNL     1      49.037 -37.860  44.023  1.00  0.00    -0.297 OA
HETATM   24  C9  UNL     1      48.288 -39.675  45.287  1.00  0.00     0.064 C 
HETATM   25  C10 UNL     1      46.816 -39.838  45.370  1.00  0.00     0.019 C 
HETATM   26  C12 UNL     1      50.529 -40.151  45.932  1.00  0.00     0.021 C 
BRANCH  18  27
HETATM   27  C2  UNL     1      48.763 -39.765  49.031  1.00  0.00    -0.038 C 
HETATM   28  C1  UNL     1      47.732 -40.486  49.555  1.00  0.00     0.021 C 
BRANCH  27  29
HETATM   29  C3  UNL     1      49.831 -39.491  50.022  1.00  0.00     0.202 C 
BRANCH  29  30
HETATM   30  O1  UNL     1      51.086 -39.797  49.661  1.00  0.00    -0.396 OA
ATOM     31  H1  UNL     1      51.691 -40.019  50.358  1.00  0.00     0.209 HD
ENDBRANCH  29  30
ENDBRANCH  27  29
ENDBRANCH  18  27
BRANCH  19  32
HETATM   32  O2  UNL     1      50.736 -37.964  47.352  1.00  0.00    -0.390 OA
ATOM     33  H2  UNL     1      51.060 -37.073  47.281  1.00  0.00     0.210 HD
ENDBRANCH  19  32
ENDBRANCH  16  17
ENDBRANCH  15  16
ENDBRANCH   1  15
BRANCH   8  34
HETATM   34  C24 UNL     1      49.564 -47.230  50.835  1.00  0.00     0.176 C 
BRANCH  34  35
HETATM   35  O4  UNL     1      49.740 -46.903  52.209  1.00  0.00    -0.400 OA
ATOM     36  H4  UNL     1      50.605 -47.191  52.480  1.00  0.00     0.209 HD
ENDBRANCH  34  35
ENDBRANCH   8  34
BRANCH  10  37
HETATM   37  O5  UNL     1      47.137 -45.009  51.721  1.00  0.00    -0.395 OA
ATOM     38  H5  UNL     1      46.480 -44.678  51.119  1.00  0.00     0.210 HD
ENDBRANCH  10  37
TORSDOF 10
ENDMDL
MODEL 2
REMARK VINA RESULT: -6.687586828      1.170      1.333
REMARK  10 active torsions:
REMARK  status: ('A' for Active; 'I' for Inactive)
REMARK    1  A    between atoms: C2_2  and  C3_3 
REMARK    2  A    between atoms: C2_2  and  C4_6 
REMARK    3  A    between atoms: C3_3  and  O1_4 
REMARK    4  A    between atoms: C5_7  and  O2_8 
REMARK    5  A    between atoms: C11_16  and  C13_18 
REMARK    6  A    between atoms: C13_18  and  C14_19 
REMARK    7  A    between atoms: C14_19  and  C15_20 
REMARK    8  A    between atoms: C22_27  and  C24_29 
REMARK    9  A    between atoms: C24_29  and  O4_30 
REMARK   10  A    between atoms: C25_32  and  O5_33 
ROOT
HETATM    1  C15 UNL     1      49.418 -44.611  47.790  1.00  0.00     0.002 C 
HETATM    2  C16 UNL     1      50.420 -45.632  47.278  1.00  0.00    -0.043 C 
HETATM    3  C17 UNL     1      51.553 -44.990  46.471  1.00  0.00     0.015 C 
HETATM    4  C18 UNL     1      49.774 -46.587  46.295  1.00  0.00     0.015 C 
HETATM    5  C19 UNL     1      51.115 -46.401  48.328  1.00  0.00     0.010 C 
HETATM    6  C20 UNL     1      50.319 -46.867  49.478  1.00  0.00     0.007 C 
HETATM    7  C21 UNL     1      48.894 -46.435  49.395  1.00  0.00     0.007 C 
HETATM    8  C22 UNL     1      48.183 -46.892  50.615  1.00  0.00     0.007 C 
HETATM    9  C23 UNL     1      46.930 -47.676  50.245  1.00  0.00     0.020 C 
HETATM   10  C25 UNL     1      47.806 -45.892  51.631  1.00  0.00     0.128 C 
HETATM   11  C26 UNL     1      48.341 -44.516  51.493  1.00  0.00     0.033 C 
HETATM   12  C27 UNL     1      49.309 -44.306  50.335  1.00  0.00     0.012 C 
HETATM   13  C28 UNL     1      48.829 -44.938  49.086  1.00  0.00    -0.035 C 
HETATM   14  C29 UNL     1      47.322 -44.587  48.965  1.00  0.00     0.016 C 
ENDROOT
BRANCH   1  15
HETATM   15  C14 UNL     1      49.805 -43.219  47.403  1.00  0.00     0.007 C 
BRANCH  15  16
HETATM   16  C13 UNL     1      48.923 -42.409  46.562  1.00  0.00     0.015 C 
BRANCH  16  17
HETATM   17  C11 UNL     1      49.045 -40.955  46.507  1.00  0.00    -0.007 C 
HETATM   18  C4  UNL     1      48.893 -39.986  47.540  1.00  0.00    -0.034 C 
HETATM   19  C5  UNL     1      49.188 -38.546  47.120  1.00  0.00     0.159 C 
HETATM   20  C6  UNL     1      48.283 -38.117  45.994  1.00  0.00     0.084 C 
HETATM   21  C7  UNL     1      48.794 -36.819  45.412  1.00  0.00     0.021 C 
HETATM   22  C8  UNL     1      48.262 -39.157  44.961  1.00  0.00     0.138 C 
HETATM   23  O3  UNL     1      48.403 -38.849  43.790  1.00  0.00    -0.297 OA
HETATM   24  C9  UNL     1      48.071 -40.547  45.359  1.00  0.00     0.064 C 
HETATM   25  C10 UNL     1      46.657 -40.868  45.670  1.00  0.00     0.019 C 
HETATM   26  C12 UNL     1      50.419 -40.663  45.730  1.00  0.00     0.021 C 
BRANCH  18  27
HETATM   27  C2  UNL     1      49.021 -40.061  48.980  1.00  0.00    -0.038 C 
HETATM   28  C1  UNL     1      50.004 -39.387  49.640  1.00  0.00     0.021 C 
BRANCH  27  29
HETATM   29  C3  UNL     1      48.029 -40.672  49.897  1.00  0.00     0.202 C 
BRANCH  29  30
HETATM   30  O1  UNL     1      46.770 -40.218  49.819  1.00  0.00    -0.396 OA
ATOM     31  H1  UNL     1      46.653 -39.276  49.807  1.00  0.00     0.209 HD
ENDBRANCH  29  30
ENDBRANCH  27  29
ENDBRANCH  18  27
BRANCH  19  32
HETATM   32  O2  UNL     1      50.506 -38.292  46.831  1.00  0.00    -0.390 OA
ATOM     33  H2  UNL     1      50.700 -38.204  45.905  1.00  0.00     0.210 HD
ENDBRANCH  19  32
ENDBRANCH  16  17
ENDBRANCH  15  16
ENDBRANCH   1  15
BRANCH   8  34
HETATM   34  C24 UNL     1      49.029 -47.984  51.327  1.00  0.00     0.176 C 
BRANCH  34  35
HETATM   35  O4  UNL     1      48.249 -48.549  52.374  1.00  0.00    -0.400 OA
ATOM     36  H4  UNL     1      48.787 -48.607  53.156  1.00  0.00     0.209 HD
ENDBRANCH  34  35
ENDBRANCH   8  34
BRANCH  10  37
HETATM   37  O5  UNL     1      46.421 -45.883  51.959  1.00  0.00    -0.395 OA
ATOM     38  H5  UNL     1      45.849 -46.149  51.248  1.00  0.00     0.210 HD
ENDBRANCH  10  37
TORSDOF 10
ENDMDL
MODEL 3
REMARK VINA RESULT: -6.602045936      1.534      2.244
REMARK  10 active torsions:
REMARK  status: ('A' for Active; 'I' for Inactive)
REMARK    1  A    between atoms: C2_2  and  C3_3 
REMARK    2  A    between atoms: C2_2  and  C4_6 
REMARK    3  A    between atoms: C3_3  and  O1_4 
REMARK    4  A    between atoms: C5_7  and  O2_8 
REMARK    5  A    between atoms: C11_16  and  C13_18 
REMARK    6  A    between atoms: C13_18  and  C14_19 
REMARK    7  A    between atoms: C14_19  and  C15_20 
REMARK    8  A    between atoms: C22_27  and  C24_29 
REMARK    9  A    between atoms: C24_29  and  O4_30 
REMARK   10  A    between atoms: C25_32  and  O5_33 
ROOT
HETATM    1  C15 UNL     1      49.392 -44.721  48.621  1.00  0.00     0.002 C 
HETATM    2  C16 UNL     1      50.292 -45.783  48.010  1.00  0.00    -0.043 C 
HETATM    3  C17 UNL     1      51.600 -45.202  47.464  1.00  0.00     0.015 C 
HETATM    4  C18 UNL     1      49.643 -46.416  46.796  1.00  0.00     0.015 C 
HETATM    5  C19 UNL     1      50.727 -46.839  48.944  1.00  0.00     0.010 C 
HETATM    6  C20 UNL     1      49.731 -47.370  49.893  1.00  0.00     0.007 C 
HETATM    7  C21 UNL     1      48.407 -46.697  49.762  1.00  0.00     0.007 C 
HETATM    8  C22 UNL     1      47.487 -47.246  50.790  1.00  0.00     0.007 C 
HETATM    9  C23 UNL     1      46.190 -47.726  50.148  1.00  0.00     0.020 C 
HETATM   10  C25 UNL     1      47.133 -46.404  51.947  1.00  0.00     0.128 C 
HETATM   11  C26 UNL     1      47.876 -45.136  52.144  1.00  0.00     0.033 C 
HETATM   12  C27 UNL     1      49.005 -44.880  51.152  1.00  0.00     0.012 C 
HETATM   13  C28 UNL     1      48.601 -45.179  49.760  1.00  0.00    -0.035 C 
HETATM   14  C29 UNL     1      47.189 -44.564  49.568  1.00  0.00     0.016 C 
ENDROOT
BRANCH   1  15
HETATM   15  C14 UNL     1      50.024 -43.367  48.565  1.00  0.00     0.007 C 
BRANCH  15  16
HETATM   16  C13 UNL     1      49.196 -42.160  48.544  1.00  0.00     0.015 C 
BRANCH  16  17
HETATM   17  C11 UNL     1      49.158 -41.281  47.379  1.00  0.00    -0.007 C 
HETATM   18  C4  UNL     1      49.241 -39.862  47.302  1.00  0.00    -0.034 C 
HETATM   19  C5  UNL     1      49.255 -39.294  45.882  1.00  0.00     0.159 C 
HETATM   20  C6  UNL     1      48.011 -39.691  45.131  1.00  0.00     0.084 C 
HETATM   21  C7  UNL     1      48.192 -39.373  43.664  1.00  0.00     0.021 C 
HETATM   22  C8  UNL     1      47.770 -41.126  45.308  1.00  0.00     0.138 C 
HETATM   23  O3  UNL     1      47.513 -41.820  44.340  1.00  0.00    -0.297 OA
HETATM   24  C9  UNL     1      47.843 -41.696  46.648  1.00  0.00     0.064 C 
HETATM   25  C10 UNL     1      46.631 -41.423  47.458  1.00  0.00     0.019 C 
HETATM   26  C12 UNL     1      50.190 -41.913  46.325  1.00  0.00     0.021 C 
BRANCH  18  27
HETATM   27  C2  UNL     1      49.814 -38.865  48.181  1.00  0.00    -0.038 C 
HETATM   28  C1  UNL     1      50.109 -37.612  47.736  1.00  0.00     0.021 C 
BRANCH  27  29
HETATM   29  C3  UNL     1      49.950 -38.998  49.652  1.00  0.00     0.202 C 
BRANCH  29  30
HETATM   30  O1  UNL     1      51.111 -39.487  50.113  1.00  0.00    -0.396 OA
ATOM     31  H1  UNL     1      51.895 -39.256  49.630  1.00  0.00     0.209 HD
ENDBRANCH  29  30
ENDBRANCH  27  29
ENDBRANCH  18  27
BRANCH  19  32
HETATM   32  O2  UNL     1      50.389 -39.577  45.162  1.00  0.00    -0.390 OA
ATOM     33  H2  UNL     1      51.134 -39.851  45.686  1.00  0.00     0.210 HD
ENDBRANCH  19  32
ENDBRANCH  16  17
ENDBRANCH  15  16
ENDBRANCH   1  15
BRANCH   8  34
HETATM   34  C24 UNL     1      48.066 -48.578  51.342  1.00  0.00     0.176 C 
BRANCH  34  35
HETATM   35  O4  UNL     1      47.572 -48.774  52.662  1.00  0.00    -0.400 OA
ATOM     36  H4  UNL     1      47.921 -49.592  52.998  1.00  0.00     0.209 HD
ENDBRANCH  34  35
ENDBRANCH   8  34
BRANCH  10  37
HETATM   37  O5  UNL     1      45.734 -46.223  52.134  1.00  0.00    -0.395 OA
ATOM     38  H5  UNL     1      45.444 -46.321  53.034  1.00  0.00     0.210 HD
ENDBRANCH  10  37
TORSDOF 10
ENDMDL
MODEL 4
REMARK VINA RESULT: -6.405167694      2.066      7.760
REMARK  10 active torsions:
REMARK  status: ('A' for Active; 'I' for Inactive)
REMARK    1  A    between atoms: C2_2  and  C3_3 
REMARK    2  A    between atoms: C2_2  and  C4_6 
REMARK    3  A    between atoms: C3_3  and  O1_4 
REMARK    4  A    between atoms: C5_7  and  O2_8 
REMARK    5  A    between atoms: C11_16  and  C13_18 
REMARK    6  A    between atoms: C13_18  and  C14_19 
REMARK    7  A    between atoms: C14_19  and  C15_20 
REMARK    8  A    between atoms: C22_27  and  C24_29 
REMARK    9  A    between atoms: C24_29  and  O4_30 
REMARK   10  A    between atoms: C25_32  and  O5_33 
ROOT
HETATM    1  C15 UNL     1      48.385 -41.147  44.687  1.00  0.00     0.002 C 
HETATM    2  C16 UNL     1      47.602 -41.542  43.444  1.00  0.00    -0.043 C 
HETATM    3  C17 UNL     1      46.576 -42.645  43.722  1.00  0.00     0.015 C 
HETATM    4  C18 UNL     1      48.511 -42.149  42.396  1.00  0.00     0.015 C 
HETATM    5  C19 UNL     1      46.809 -40.454  42.839  1.00  0.00     0.010 C 
HETATM    6  C20 UNL     1      47.425 -39.117  42.761  1.00  0.00     0.007 C 
HETATM    7  C21 UNL     1      48.790 -39.084  43.361  1.00  0.00     0.007 C 
HETATM    8  C22 UNL     1      49.309 -37.695  43.296  1.00  0.00     0.007 C 
HETATM    9  C23 UNL     1      50.682 -37.665  42.635  1.00  0.00     0.020 C 
HETATM   10  C25 UNL     1      49.390 -36.909  44.541  1.00  0.00     0.128 C 
HETATM   11  C26 UNL     1      48.752 -37.461  45.760  1.00  0.00     0.033 C 
HETATM   12  C27 UNL     1      47.995 -38.769  45.566  1.00  0.00     0.012 C 
HETATM   13  C28 UNL     1      48.758 -39.737  44.745  1.00  0.00    -0.035 C 
HETATM   14  C29 UNL     1      50.217 -39.708  45.270  1.00  0.00     0.016 C 
ENDROOT
BRANCH   1  15
HETATM   15  C14 UNL     1      47.935 -41.918  45.886  1.00  0.00     0.007 C 
BRANCH  15  16
HETATM   16  C13 UNL     1      48.883 -42.740  46.640  1.00  0.00     0.015 C 
BRANCH  16  17
HETATM   17  C11 UNL     1      48.634 -43.111  48.030  1.00  0.00    -0.007 C 
HETATM   18  C4  UNL     1      48.870 -42.377  49.228  1.00  0.00    -0.034 C 
HETATM   19  C5  UNL     1      48.393 -43.063  50.507  1.00  0.00     0.159 C 
HETATM   20  C6  UNL     1      49.066 -44.399  50.686  1.00  0.00     0.084 C 
HETATM   21  C7  UNL     1      48.363 -45.169  51.780  1.00  0.00     0.021 C 
HETATM   22  C8  UNL     1      49.007 -45.147  49.427  1.00  0.00     0.138 C 
HETATM   23  O3  UNL     1      48.654 -46.315  49.433  1.00  0.00    -0.297 OA
HETATM   24  C9  UNL     1      49.373 -44.476  48.185  1.00  0.00     0.064 C 
HETATM   25  C10 UNL     1      50.841 -44.353  48.009  1.00  0.00     0.019 C 
HETATM   26  C12 UNL     1      47.134 -43.680  48.066  1.00  0.00     0.021 C 
BRANCH  18  27
HETATM   27  C2  UNL     1      48.981 -40.960  49.501  1.00  0.00    -0.038 C 
HETATM   28  C1  UNL     1      49.978 -40.209  48.956  1.00  0.00     0.021 C 
BRANCH  27  29
HETATM   29  C3  UNL     1      47.961 -40.139  50.197  1.00  0.00     0.202 C 
BRANCH  29  30
HETATM   30  O1  UNL     1      46.696 -40.246  49.763  1.00  0.00    -0.396 OA
ATOM     31  H1  UNL     1      46.533 -40.017  48.857  1.00  0.00     0.209 HD
ENDBRANCH  29  30
ENDBRANCH  27  29
ENDBRANCH  18  27
BRANCH  19  32
HETATM   32  O2  UNL     1      47.029 -43.167  50.629  1.00  0.00    -0.390 OA
ATOM     33  H2  UNL     1      46.659 -43.971  50.284  1.00  0.00     0.210 HD
ENDBRANCH  19  32
ENDBRANCH  16  17
ENDBRANCH  15  16
ENDBRANCH   1  15
BRANCH   8  34
HETATM   34  C24 UNL     1      48.464 -36.876  42.281  1.00  0.00     0.176 C 
BRANCH  34  35
HETATM   35  O4  UNL     1      48.454 -35.514  42.695  1.00  0.00    -0.400 OA
ATOM     36  H4  UNL     1      47.797 -35.410  43.375  1.00  0.00     0.209 HD
ENDBRANCH  34  35
ENDBRANCH   8  34
BRANCH  10  37
HETATM   37  O5  UNL     1      50.684 -36.386  44.819  1.00  0.00    -0.395 OA
ATOM     38  H5  UNL     1      50.769 -35.451  44.666  1.00  0.00     0.210 HD
ENDBRANCH  10  37
TORSDOF 10
ENDMDL
MODEL 5
REMARK VINA RESULT: -6.231285639      1.826      7.490
REMARK  10 active torsions:
REMARK  status: ('A' for Active; 'I' for Inactive)
REMARK    1  A    between atoms: C2_2  and  C3_3 
REMARK    2  A    between atoms: C2_2  and  C4_6 
REMARK    3  A    between atoms: C3_3  and  O1_4 
REMARK    4  A    between atoms: C5_7  and  O2_8 
REMARK    5  A    between atoms: C11_16  and  C13_18 
REMARK    6  A    between atoms: C13_18  and  C14_19 
REMARK    7  A    between atoms: C14_19  and  C15_20 
REMARK    8  A    between atoms: C22_27  and  C24_29 
REMARK    9  A    between atoms: C24_29  and  O4_30 
REMARK   10  A    between atoms: C25_32  and  O5_33 
ROOT
HETATM    1  C15 UNL     1      48.761 -42.360  47.266  1.00  0.00     0.002 C 
HETATM    2  C16 UNL     1      48.646 -41.941  45.810  1.00  0.00    -0.043 C 
HETATM    3  C17 UNL     1      47.898 -42.972  44.959  1.00  0.00     0.015 C 
HETATM    4  C18 UNL     1      50.010 -41.855  45.156  1.00  0.00     0.015 C 
HETATM    5  C19 UNL     1      47.910 -40.682  45.582  1.00  0.00     0.010 C 
HETATM    6  C20 UNL     1      48.159 -39.564  46.510  1.00  0.00     0.007 C 
HETATM    7  C21 UNL     1      49.129 -39.923  47.584  1.00  0.00     0.007 C 
HETATM    8  C22 UNL     1      49.274 -38.767  48.504  1.00  0.00     0.007 C 
HETATM    9  C23 UNL     1      50.743 -38.398  48.676  1.00  0.00     0.020 C 
HETATM   10  C25 UNL     1      48.670 -38.849  49.846  1.00  0.00     0.128 C 
HETATM   11  C26 UNL     1      47.764 -39.986  50.138  1.00  0.00     0.033 C 
HETATM   12  C27 UNL     1      47.489 -40.919  48.966  1.00  0.00     0.012 C 
HETATM   13  C28 UNL     1      48.723 -41.254  48.219  1.00  0.00    -0.035 C 
HETATM   14  C29 UNL     1      49.808 -41.575  49.281  1.00  0.00     0.016 C 
ENDROOT
BRANCH   1  15
HETATM   15  C14 UNL     1      48.084 -43.670  47.516  1.00  0.00     0.007 C 
BRANCH  15  16
HETATM   16  C13 UNL     1      48.852 -44.826  47.981  1.00  0.00     0.015 C 
BRANCH  16  17
HETATM   17  C11 UNL     1      48.509 -45.521  49.219  1.00  0.00    -0.007 C 
HETATM   18  C4  UNL     1      49.132 -46.640  49.842  1.00  0.00    -0.034 C 
HETATM   19  C5  UNL     1      48.539 -47.037  51.193  1.00  0.00     0.159 C 
HETATM   20  C6  UNL     1      47.078 -47.381  51.060  1.00  0.00     0.084 C 
HETATM   21  C7  UNL     1      46.461 -47.477  52.437  1.00  0.00     0.021 C 
HETATM   22  C8  UNL     1      46.401 -46.343  50.277  1.00  0.00     0.138 C 
HETATM   23  O3  UNL     1      45.349 -45.874  50.676  1.00  0.00    -0.297 OA
HETATM   24  C9  UNL     1      47.005 -45.890  49.029  1.00  0.00     0.064 C 
HETATM   25  C10 UNL     1      46.788 -46.837  47.908  1.00  0.00     0.019 C 
HETATM   26  C12 UNL     1      48.304 -44.371  50.320  1.00  0.00     0.021 C 
BRANCH  18  27
HETATM   27  C2  UNL     1      50.475 -47.175  49.774  1.00  0.00    -0.038 C 
HETATM   28  C1  UNL     1      50.811 -48.331  50.412  1.00  0.00     0.021 C 
BRANCH  27  29
HETATM   29  C3  UNL     1      51.550 -46.682  48.879  1.00  0.00     0.202 C 
BRANCH  29  30
HETATM   30  O1  UNL     1      52.800 -47.080  49.156  1.00  0.00    -0.396 OA
ATOM     31  H1  UNL     1      53.322 -47.394  48.428  1.00  0.00     0.209 HD
ENDBRANCH  29  30
ENDBRANCH  27  29
ENDBRANCH  18  27
BRANCH  19  32
HETATM   32  O2  UNL     1      48.753 -46.131  52.203  1.00  0.00    -0.390 OA
ATOM     33  H2  UNL     1      48.436 -46.405  53.056  1.00  0.00     0.210 HD
ENDBRANCH  19  32
ENDBRANCH  16  17
ENDBRANCH  15  16
ENDBRANCH   1  15
BRANCH   8  34
HETATM   34  C24 UNL     1      48.717 -37.488  47.818  1.00  0.00     0.176 C 
BRANCH  34  35
HETATM   35  O4  UNL     1      48.166 -36.641  48.820  1.00  0.00    -0.400 OA
ATOM     36  H4  UNL     1      47.300 -36.366  48.541  1.00  0.00     0.209 HD
ENDBRANCH  34  35
ENDBRANCH   8  34
BRANCH  10  37
HETATM   37  O5  UNL     1      49.581 -38.619  50.914  1.00  0.00    -0.395 OA
ATOM     38  H5  UNL     1      49.187 -38.653  51.779  1.00  0.00     0.210 HD
ENDBRANCH  10  37
TORSDOF 10
ENDMDL
