MODEL 1
REMARK VINA RESULT: -9.557022116      0.000      0.000
REMARK  5 active torsions:
REMARK  status: ('A' for Active; 'I' for Inactive)
REMARK    1  A    between atoms: C3_4  and  C4_5 
REMARK    2  A    between atoms: C4_5  and  N2_6 
REMARK    3  A    between atoms: C4_5  and  N3_10 
REMARK    4  A    between atoms: C7_17  and  O2_18 
REMARK    5  A    between atoms: C7_17  and  O3_20 
ROOT
HETATM    1  C4  UNL     1      29.876  18.687  -0.670  1.00  0.00     0.318 C 
ENDROOT
BRANCH   1   2
HETATM    2  C3  UNL     1      30.927  18.967  -1.693  1.00  0.00    -0.000 A 
HETATM    3  C2  UNL     1      30.990  20.170  -2.361  1.00  0.00     0.056 A 
HETATM    4  C1  UNL     1      31.975  20.419  -3.312  1.00  0.00     0.119 A 
HETATM    5  N1  UNL     1      31.978  21.692  -3.967  1.00  0.00    -0.083 NA
HETATM    6  N6  UNL     1      32.893  19.479  -3.598  1.00  0.00    -0.312 N 
HETATM    7  C9  UNL     1      32.865  18.295  -2.968  1.00  0.00     0.247 A 
ATOM      8  H6  UNL     1      33.613  19.667  -4.296  1.00  0.00     0.170 HD
HETATM    9  C8  UNL     1      31.892  18.036  -2.023  1.00  0.00     0.085 A 
HETATM   10  O4  UNL     1      33.731  17.405  -3.236  1.00  0.00    -0.268 OA
ENDBRANCH   1   2
BRANCH   1  11
HETATM   11  N2  UNL     1      30.430  19.129   0.604  1.00  0.00    -0.054 N 
ATOM     12  H23 UNL     1      29.761  19.632   1.186  1.00  0.00     0.277 HD
ATOM     13  H22 UNL     1      30.610  18.366   1.256  1.00  0.00     0.277 HD
ATOM     14  H21 UNL     1      31.261  19.674   0.374  1.00  0.00     0.277 HD
ENDBRANCH   1  11
BRANCH   1  15
HETATM   15  N3  UNL     1      29.583  17.284  -0.583  1.00  0.00    -0.331 N 
HETATM   16  C5  UNL     1      28.710  16.687  -1.321  1.00  0.00     0.184 C 
HETATM   17  N4  UNL     1      28.416  15.288  -1.236  1.00  0.00    -0.292 N 
HETATM   18  N5  UNL     1      27.876  17.216  -2.334  1.00  0.00    -0.299 N 
HETATM   19  C6  UNL     1      27.405  14.978  -2.197  1.00  0.00     0.310 C 
ATOM     20  H4  UNL     1      28.855  14.624  -0.598  1.00  0.00     0.172 HD
HETATM   21  O1  UNL     1      27.020  13.851  -2.592  1.00  0.00    -0.265 OA
HETATM   22  C7  UNL     1      26.847  16.260  -2.688  1.00  0.00     0.333 C 
ATOM     23  H5  UNL     1      27.983  18.138  -2.754  1.00  0.00     0.168 HD
ATOM     24  H3  UNL     1      30.094  16.728   0.103  1.00  0.00     0.165 HD
BRANCH  22  25
HETATM   25  O2  UNL     1      26.684  16.291  -4.060  1.00  0.00    -0.341 OA
ATOM     26  H2  UNL     1      26.419  17.143  -4.385  1.00  0.00     0.215 HD
ENDBRANCH  22  25
BRANCH  22  27
HETATM   27  O3  UNL     1      25.647  16.519  -2.046  1.00  0.00    -0.341 OA
ATOM     28  H3  UNL     1      25.253  15.701  -1.766  1.00  0.00     0.215 HD
ENDBRANCH  22  27
ENDBRANCH   1  15
TORSDOF 5
ENDMDL
MODEL 2
REMARK VINA RESULT: -9.484829314      1.173      1.863
REMARK  5 active torsions:
REMARK  status: ('A' for Active; 'I' for Inactive)
REMARK    1  A    between atoms: C3_4  and  C4_5 
REMARK    2  A    between atoms: C4_5  and  N2_6 
REMARK    3  A    between atoms: C4_5  and  N3_10 
REMARK    4  A    between atoms: C7_17  and  O2_18 
REMARK    5  A    between atoms: C7_17  and  O3_20 
ROOT
HETATM    1  C4  UNL     1      29.856  18.692  -0.691  1.00  0.00     0.318 C 
ENDROOT
BRANCH   1   2
HETATM    2  C3  UNL     1      30.926  18.940  -1.702  1.00  0.00    -0.000 A 
HETATM    3  C2  UNL     1      31.861  17.980  -2.022  1.00  0.00     0.056 A 
HETATM    4  C1  UNL     1      32.854  18.222  -2.966  1.00  0.00     0.119 A 
HETATM    5  N1  UNL     1      33.792  17.178  -3.248  1.00  0.00    -0.083 NA
HETATM    6  N6  UNL     1      32.918  19.412  -3.591  1.00  0.00    -0.312 N 
HETATM    7  C9  UNL     1      32.025  20.373  -3.307  1.00  0.00     0.247 A 
ATOM      8  H6  UNL     1      33.647  19.584  -4.282  1.00  0.00     0.170 HD
HETATM    9  C8  UNL     1      31.035  20.143  -2.371  1.00  0.00     0.085 A 
HETATM   10  O4  UNL     1      32.083  21.497  -3.895  1.00  0.00    -0.268 OA
ENDBRANCH   1   2
BRANCH   1  11
HETATM   11  N2  UNL     1      30.393  19.156   0.582  1.00  0.00    -0.054 N 
ATOM     12  H23 UNL     1      30.790  20.094   0.539  1.00  0.00     0.277 HD
ATOM     13  H22 UNL     1      29.675  19.358   1.277  1.00  0.00     0.277 HD
ATOM     14  H21 UNL     1      31.061  18.444   0.880  1.00  0.00     0.277 HD
ENDBRANCH   1  11
BRANCH   1  15
HETATM   15  N3  UNL     1      29.548  17.293  -0.578  1.00  0.00    -0.331 N 
HETATM   16  C5  UNL     1      28.683  16.688  -1.319  1.00  0.00     0.184 C 
HETATM   17  N4  UNL     1      28.374  15.294  -1.209  1.00  0.00    -0.292 N 
HETATM   18  N5  UNL     1      27.872  17.202  -2.358  1.00  0.00    -0.299 N 
HETATM   19  C6  UNL     1      27.378  14.972  -2.181  1.00  0.00     0.310 C 
ATOM     20  H4  UNL     1      28.795  14.641  -0.549  1.00  0.00     0.172 HD
HETATM   21  O1  UNL     1      26.989  13.841  -2.559  1.00  0.00    -0.265 OA
HETATM   22  C7  UNL     1      26.841  16.249  -2.711  1.00  0.00     0.333 C 
ATOM     23  H5  UNL     1      27.996  18.115  -2.797  1.00  0.00     0.168 HD
ATOM     24  H3  UNL     1      30.041  16.748   0.129  1.00  0.00     0.165 HD
BRANCH  22  25
HETATM   25  O2  UNL     1      26.703  16.251  -4.085  1.00  0.00    -0.341 OA
ATOM     26  H2  UNL     1      27.084  17.017  -4.497  1.00  0.00     0.215 HD
ENDBRANCH  22  25
BRANCH  22  27
HETATM   27  O3  UNL     1      25.632  16.533  -2.096  1.00  0.00    -0.341 OA
ATOM     28  H3  UNL     1      24.944  16.010  -2.491  1.00  0.00     0.215 HD
ENDBRANCH  22  27
ENDBRANCH   1  15
TORSDOF 5
ENDMDL
MODEL 3
REMARK VINA RESULT: -8.792812104      1.686      2.198
REMARK  5 active torsions:
REMARK  status: ('A' for Active; 'I' for Inactive)
REMARK    1  A    between atoms: C3_4  and  C4_5 
REMARK    2  A    between atoms: C4_5  and  N2_6 
REMARK    3  A    between atoms: C4_5  and  N3_10 
REMARK    4  A    between atoms: C7_17  and  O2_18 
REMARK    5  A    between atoms: C7_17  and  O3_20 
ROOT
HETATM    1  C4  UNL     1      28.984  18.426  -2.721  1.00  0.00     0.318 C 
ENDROOT
BRANCH   1   2
HETATM    2  C3  UNL     1      30.151  19.304  -3.030  1.00  0.00    -0.000 A 
HETATM    3  C2  UNL     1      29.992  20.624  -3.394  1.00  0.00     0.056 A 
HETATM    4  C1  UNL     1      31.087  21.433  -3.680  1.00  0.00     0.119 A 
HETATM    5  N1  UNL     1      30.847  22.794  -4.052  1.00  0.00    -0.083 NA
HETATM    6  N6  UNL     1      32.335  20.935  -3.604  1.00  0.00    -0.312 N 
HETATM    7  C9  UNL     1      32.531  19.655  -3.253  1.00  0.00     0.247 A 
ATOM      8  H6  UNL     1      33.134  21.532  -3.814  1.00  0.00     0.170 HD
HETATM    9  C8  UNL     1      31.450  18.842  -2.968  1.00  0.00     0.085 A 
HETATM   10  O4  UNL     1      33.707  19.182  -3.180  1.00  0.00    -0.268 OA
ENDBRANCH   1   2
BRANCH   1  11
HETATM   11  N2  UNL     1      29.322  17.734  -1.484  1.00  0.00    -0.054 N 
ATOM     12  H23 UNL     1      30.323  17.589  -1.358  1.00  0.00     0.277 HD
ATOM     13  H22 UNL     1      29.173  18.298  -0.647  1.00  0.00     0.277 HD
ATOM     14  H21 UNL     1      28.783  16.867  -1.491  1.00  0.00     0.277 HD
ENDBRANCH   1  11
BRANCH   1  15
HETATM   15  N3  UNL     1      28.769  17.449  -3.751  1.00  0.00    -0.331 N 
HETATM   16  C5  UNL     1      27.888  16.511  -3.676  1.00  0.00     0.184 C 
HETATM   17  N4  UNL     1      27.671  15.535  -4.702  1.00  0.00    -0.292 N 
HETATM   18  N5  UNL     1      26.971  16.218  -2.639  1.00  0.00    -0.299 N 
HETATM   19  C6  UNL     1      26.625  14.658  -4.280  1.00  0.00     0.310 C 
ATOM     20  H4  UNL     1      28.177  15.477  -5.585  1.00  0.00     0.172 HD
HETATM   21  O1  UNL     1      25.990  13.813  -4.957  1.00  0.00    -0.265 OA
HETATM   22  C7  UNL     1      26.384  14.910  -2.839  1.00  0.00     0.333 C 
ATOM     23  H5  UNL     1      26.754  16.841  -1.861  1.00  0.00     0.168 HD
ATOM     24  H3  UNL     1      29.347  17.500  -4.590  1.00  0.00     0.165 HD
BRANCH  22  25
HETATM   25  O2  UNL     1      25.043  14.984  -2.518  1.00  0.00    -0.341 OA
ATOM     26  H2  UNL     1      24.889  15.135  -1.593  1.00  0.00     0.215 HD
ENDBRANCH  22  25
BRANCH  22  27
HETATM   27  O3  UNL     1      27.015  13.932  -2.087  1.00  0.00    -0.341 OA
ATOM     28  H3  UNL     1      26.552  13.816  -1.265  1.00  0.00     0.215 HD
ENDBRANCH  22  27
ENDBRANCH   1  15
TORSDOF 5
ENDMDL
MODEL 4
REMARK VINA RESULT: -8.752458623      2.555      6.784
REMARK  5 active torsions:
REMARK  status: ('A' for Active; 'I' for Inactive)
REMARK    1  A    between atoms: C3_4  and  C4_5 
REMARK    2  A    between atoms: C4_5  and  N2_6 
REMARK    3  A    between atoms: C4_5  and  N3_10 
REMARK    4  A    between atoms: C7_17  and  O2_18 
REMARK    5  A    between atoms: C7_17  and  O3_20 
ROOT
HETATM    1  C4  UNL     1      29.190  17.121  -4.047  1.00  0.00     0.318 C 
ENDROOT
BRANCH   1   2
HETATM    2  C3  UNL     1      27.924  16.644  -3.416  1.00  0.00    -0.000 A 
HETATM    3  C2  UNL     1      27.235  15.554  -3.900  1.00  0.00     0.056 A 
HETATM    4  C1  UNL     1      26.056  15.119  -3.303  1.00  0.00     0.119 A 
HETATM    5  N1  UNL     1      25.394  13.978  -3.860  1.00  0.00    -0.083 NA
HETATM    6  N6  UNL     1      25.562  15.763  -2.231  1.00  0.00    -0.312 N 
HETATM    7  C9  UNL     1      26.204  16.831  -1.730  1.00  0.00     0.247 A 
ATOM      8  H6  UNL     1      24.698  15.441  -1.797  1.00  0.00     0.170 HD
HETATM    9  C8  UNL     1      27.376  17.271  -2.315  1.00  0.00     0.085 A 
HETATM   10  O4  UNL     1      25.741  17.441  -0.717  1.00  0.00    -0.268 OA
ENDBRANCH   1   2
BRANCH   1  11
HETATM   11  N2  UNL     1      30.258  16.760  -3.123  1.00  0.00    -0.054 N 
ATOM     12  H23 UNL     1      31.139  17.236  -3.314  1.00  0.00     0.277 HD
ATOM     13  H22 UNL     1      30.122  17.127  -2.181  1.00  0.00     0.277 HD
ATOM     14  H21 UNL     1      30.328  15.743  -3.158  1.00  0.00     0.277 HD
ENDBRANCH   1  11
BRANCH   1  15
HETATM   15  N3  UNL     1      29.192  18.547  -4.220  1.00  0.00    -0.331 N 
HETATM   16  C5  UNL     1      30.219  19.293  -3.997  1.00  0.00     0.184 C 
HETATM   17  N4  UNL     1      30.224  20.715  -4.168  1.00  0.00    -0.292 N 
HETATM   18  N5  UNL     1      31.515  18.934  -3.557  1.00  0.00    -0.299 N 
HETATM   19  C6  UNL     1      31.523  21.208  -3.831  1.00  0.00     0.310 C 
ATOM     20  H4  UNL     1      29.435  21.281  -4.480  1.00  0.00     0.172 HD
HETATM   21  O1  UNL     1      32.008  22.346  -4.043  1.00  0.00    -0.265 OA
HETATM   22  C7  UNL     1      32.255  20.111  -3.154  1.00  0.00     0.333 C 
ATOM     23  H5  UNL     1      31.876  17.980  -3.528  1.00  0.00     0.168 HD
ATOM     24  H3  UNL     1      28.332  18.994  -4.536  1.00  0.00     0.165 HD
BRANCH  22  25
HETATM   25  O2  UNL     1      33.557  19.975  -3.596  1.00  0.00    -0.341 OA
ATOM     26  H2  UNL     1      34.098  19.461  -3.008  1.00  0.00     0.215 HD
ENDBRANCH  22  25
BRANCH  22  27
HETATM   27  O3  UNL     1      32.221  20.309  -1.783  1.00  0.00    -0.341 OA
ATOM     28  H3  UNL     1      32.875  20.953  -1.538  1.00  0.00     0.215 HD
ENDBRANCH  22  27
ENDBRANCH   1  15
TORSDOF 5
ENDMDL
MODEL 5
REMARK VINA RESULT: -8.733200018      2.401      6.639
REMARK  5 active torsions:
REMARK  status: ('A' for Active; 'I' for Inactive)
REMARK    1  A    between atoms: C3_4  and  C4_5 
REMARK    2  A    between atoms: C4_5  and  N2_6 
REMARK    3  A    between atoms: C4_5  and  N3_10 
REMARK    4  A    between atoms: C7_17  and  O2_18 
REMARK    5  A    between atoms: C7_17  and  O3_20 
ROOT
HETATM    1  C4  UNL     1      29.206  17.007  -4.070  1.00  0.00     0.318 C 
ENDROOT
BRANCH   1   2
HETATM    2  C3  UNL     1      27.926  16.520  -3.475  1.00  0.00    -0.000 A 
HETATM    3  C2  UNL     1      27.347  17.141  -2.390  1.00  0.00     0.056 A 
HETATM    4  C1  UNL     1      26.153  16.679  -1.844  1.00  0.00     0.119 A 
HETATM    5  N1  UNL     1      25.608  17.373  -0.717  1.00  0.00    -0.083 NA
HETATM    6  N6  UNL     1      25.537  15.606  -2.373  1.00  0.00    -0.312 N 
HETATM    7  C9  UNL     1      26.071  14.974  -3.430  1.00  0.00     0.247 A 
ATOM      8  H6  UNL     1      24.663  15.271  -1.969  1.00  0.00     0.170 HD
HETATM    9  C8  UNL     1      27.256  15.424  -3.980  1.00  0.00     0.085 A 
HETATM   10  O4  UNL     1      25.492  13.961  -3.932  1.00  0.00    -0.268 OA
ENDBRANCH   1   2
BRANCH   1  11
HETATM   11  N2  UNL     1      30.252  16.644  -3.121  1.00  0.00    -0.054 N 
ATOM     12  H23 UNL     1      30.332  17.291  -2.337  1.00  0.00     0.277 HD
ATOM     13  H22 UNL     1      30.033  15.813  -2.572  1.00  0.00     0.277 HD
ATOM     14  H21 UNL     1      31.109  16.558  -3.667  1.00  0.00     0.277 HD
ENDBRANCH   1  11
BRANCH   1  15
HETATM   15  N3  UNL     1      29.207  18.434  -4.231  1.00  0.00    -0.331 N 
HETATM   16  C5  UNL     1      30.226  19.183  -3.984  1.00  0.00     0.184 C 
HETATM   17  N4  UNL     1      30.230  20.606  -4.145  1.00  0.00    -0.292 N 
HETATM   18  N5  UNL     1      31.515  18.824  -3.523  1.00  0.00    -0.299 N 
HETATM   19  C6  UNL     1      31.520  21.100  -3.780  1.00  0.00     0.310 C 
ATOM     20  H4  UNL     1      29.444  21.171  -4.467  1.00  0.00     0.172 HD
HETATM   21  O1  UNL     1      32.005  22.241  -3.975  1.00  0.00    -0.265 OA
HETATM   22  C7  UNL     1      32.244  20.001  -3.098  1.00  0.00     0.333 C 
ATOM     23  H5  UNL     1      31.879  17.872  -3.494  1.00  0.00     0.168 HD
ATOM     24  H3  UNL     1      28.351  18.880  -4.561  1.00  0.00     0.165 HD
BRANCH  22  25
HETATM   25  O2  UNL     1      33.554  19.873  -3.517  1.00  0.00    -0.341 OA
ATOM     26  H2  UNL     1      33.829  20.571  -4.100  1.00  0.00     0.215 HD
ENDBRANCH  22  25
BRANCH  22  27
HETATM   27  O3  UNL     1      32.184  20.188  -1.726  1.00  0.00    -0.341 OA
ATOM     28  H3  UNL     1      32.200  19.345  -1.289  1.00  0.00     0.215 HD
ENDBRANCH  22  27
ENDBRANCH   1  15
TORSDOF 5
ENDMDL
