MODEL 1
REMARK VINA RESULT: -8.315284925      0.000      0.000
REMARK  5 active torsions:
REMARK  status: ('A' for Active; 'I' for Inactive)
REMARK    1  A    between atoms: C2_2  and  O1_3 
REMARK    2  A    between atoms: C2_2  and  N1_5 
REMARK    3  A    between atoms: N1_5  and  C3_7 
REMARK    4  A    between atoms: C4_10  and  N3_11 
REMARK       I    between atoms: N3_11  and  C5_13 
REMARK       I    between atoms: C5_13  and  N4_14 
REMARK       I    between atoms: C5_13  and  N5_18 
REMARK    5  A    between atoms: N7_25  and  N8_27 
ROOT
HETATM    1  C3  UNL     1      31.429  17.553  -2.561  1.00  0.00     0.697 C 
HETATM    2  N2  UNL     1      30.069  17.475  -2.636  1.00  0.00    -0.022 N 
ATOM      3  H2  UNL     1      29.680  16.575  -2.358  1.00  0.00     0.203 HD
HETATM    4  C4  UNL     1      29.156  18.385  -3.015  1.00  0.00     0.697 C 
HETATM    5  N6  UNL     1      29.357  19.498  -3.723  1.00  0.00    -0.169 N 
ATOM      6  H6  UNL     1      28.575  19.820  -4.292  1.00  0.00     0.186 HD
HETATM    7  C6  UNL     1      30.493  20.256  -3.772  1.00  0.00     0.205 C 
HETATM    8  N7  UNL     1      30.365  21.461  -4.215  1.00  0.00    -0.266 N 
ATOM      9  H7  UNL     1      29.459  21.822  -4.511  1.00  0.00     0.190 HD
HETATM   10  C7  UNL     1      31.766  19.833  -3.385  1.00  0.00     0.305 C 
HETATM   11  O2  UNL     1      32.664  20.721  -3.446  1.00  0.00    -0.263 OA
HETATM   12  N10 UNL     1      32.144  18.604  -2.959  1.00  0.00    -0.152 N 
ATOM     13  H10 UNL     1      33.153  18.458  -2.940  1.00  0.00     0.187 HD
ENDROOT
BRANCH   4  14
HETATM   14  N3  UNL     1      27.930  18.192  -2.670  1.00  0.00    -0.173 N 
HETATM   15  C5  UNL     1      27.378  16.975  -2.188  1.00  0.00     0.494 C 
HETATM   16  N4  UNL     1      25.930  17.033  -2.413  1.00  0.00    -0.032 N 
HETATM   17  N5  UNL     1      27.549  16.938  -0.745  1.00  0.00    -0.032 N 
ATOM     18  H43 UNL     1      25.495  17.859  -2.002  1.00  0.00     0.278 HD
ATOM     19  H42 UNL     1      25.685  17.225  -3.385  1.00  0.00     0.278 HD
ATOM     20  H41 UNL     1      25.534  16.159  -2.067  1.00  0.00     0.278 HD
ATOM     21  H53 UNL     1      28.519  17.070  -0.460  1.00  0.00     0.278 HD
ATOM     22  H52 UNL     1      27.157  17.758  -0.281  1.00  0.00     0.278 HD
ATOM     23  H51 UNL     1      27.153  16.064  -0.399  1.00  0.00     0.278 HD
ATOM     24  H3  UNL     1      27.296  18.987  -2.752  1.00  0.00     0.181 HD
ENDBRANCH   4  14
BRANCH   1  25
HETATM   25  N1  UNL     1      31.968  16.520  -2.071  1.00  0.00    -0.200 N 
ATOM     26  H1  UNL     1      32.513  15.953  -2.720  1.00  0.00     0.180 HD
BRANCH  25  27
HETATM   27  C2  UNL     1      31.913  16.047  -0.735  1.00  0.00     0.230 C 
HETATM   28  C1  UNL     1      31.746  17.170   0.289  1.00  0.00     0.063 C 
BRANCH  27  29
HETATM   29  O1  UNL     1      30.761  15.250  -0.605  1.00  0.00    -0.377 OA
ATOM     30  H1  UNL     1      31.014  14.389  -0.917  1.00  0.00     0.212 HD
ENDBRANCH  27  29
ENDBRANCH  25  27
ENDBRANCH   1  25
BRANCH   8  31
HETATM   31  N8  UNL     1      31.510  22.249  -4.274  1.00  0.00    -0.248 N 
HETATM   32  N9  UNL     1      31.513  23.482  -3.931  1.00  0.00    -0.331 N 
ATOM     33  H92 UNL     1      30.635  23.887  -3.604  1.00  0.00     0.178 HD
ATOM     34  H91 UNL     1      32.353  24.060  -3.974  1.00  0.00     0.178 HD
ATOM     35  H8  UNL     1      32.379  21.828  -4.603  1.00  0.00     0.207 HD
ENDBRANCH   8  31
TORSDOF 5
ENDMDL
MODEL 2
REMARK VINA RESULT: -7.835163320      1.627      3.725
REMARK  5 active torsions:
REMARK  status: ('A' for Active; 'I' for Inactive)
REMARK    1  A    between atoms: C2_2  and  O1_3 
REMARK    2  A    between atoms: C2_2  and  N1_5 
REMARK    3  A    between atoms: N1_5  and  C3_7 
REMARK    4  A    between atoms: C4_10  and  N3_11 
REMARK       I    between atoms: N3_11  and  C5_13 
REMARK       I    between atoms: C5_13  and  N4_14 
REMARK       I    between atoms: C5_13  and  N5_18 
REMARK    5  A    between atoms: N7_25  and  N8_27 
ROOT
HETATM    1  C3  UNL     1      28.873  18.370  -3.103  1.00  0.00     0.697 C 
HETATM    2  N2  UNL     1      29.676  17.969  -2.076  1.00  0.00    -0.022 N 
ATOM      3  H2  UNL     1      29.354  17.134  -1.588  1.00  0.00     0.203 HD
HETATM    4  C4  UNL     1      30.819  18.488  -1.599  1.00  0.00     0.697 C 
HETATM    5  N6  UNL     1      31.304  19.716  -1.796  1.00  0.00    -0.169 N 
ATOM      6  H6  UNL     1      31.892  20.095  -1.054  1.00  0.00     0.186 HD
HETATM    7  C6  UNL     1      31.101  20.523  -2.880  1.00  0.00     0.205 C 
HETATM    8  N7  UNL     1      31.932  21.497  -3.039  1.00  0.00    -0.266 N 
ATOM      9  H7  UNL     1      32.700  21.649  -2.385  1.00  0.00     0.190 HD
HETATM   10  C7  UNL     1      30.077  20.379  -3.817  1.00  0.00     0.305 C 
HETATM   11  O2  UNL     1      30.118  21.195  -4.782  1.00  0.00    -0.263 OA
HETATM   12  N10 UNL     1      29.062  19.481  -3.813  1.00  0.00    -0.152 N 
ATOM     13  H10 UNL     1      28.310  19.694  -4.470  1.00  0.00     0.187 HD
ENDROOT
BRANCH   4  14
HETATM   14  N3  UNL     1      31.563  17.739  -0.860  1.00  0.00    -0.173 N 
HETATM   15  C5  UNL     1      31.750  16.338  -1.009  1.00  0.00     0.494 C 
HETATM   16  N4  UNL     1      32.214  15.821   0.282  1.00  0.00    -0.032 N 
HETATM   17  N5  UNL     1      32.849  16.122  -1.935  1.00  0.00    -0.032 N 
ATOM     18  H43 UNL     1      33.045  16.300   0.628  1.00  0.00     0.278 HD
ATOM     19  H42 UNL     1      31.592  16.061   1.055  1.00  0.00     0.278 HD
ATOM     20  H41 UNL     1      32.347  14.816   0.176  1.00  0.00     0.278 HD
ATOM     21  H53 UNL     1      32.710  16.597  -2.827  1.00  0.00     0.278 HD
ATOM     22  H52 UNL     1      33.702  16.604  -1.653  1.00  0.00     0.278 HD
ATOM     23  H51 UNL     1      32.982  15.116  -2.042  1.00  0.00     0.278 HD
ATOM     24  H3  UNL     1      32.064  18.194  -0.097  1.00  0.00     0.181 HD
ENDBRANCH   4  14
BRANCH   1  25
HETATM   25  N1  UNL     1      27.912  17.582  -3.331  1.00  0.00    -0.200 N 
ATOM     26  H1  UNL     1      27.099  17.994  -3.788  1.00  0.00     0.180 HD
BRANCH  25  27
HETATM   27  C2  UNL     1      27.818  16.198  -3.035  1.00  0.00     0.230 C 
HETATM   28  C1  UNL     1      26.541  15.557  -3.579  1.00  0.00     0.063 C 
BRANCH  27  29
HETATM   29  O1  UNL     1      28.874  15.541  -3.692  1.00  0.00    -0.377 OA
ATOM     30  H1  UNL     1      29.155  14.857  -3.094  1.00  0.00     0.212 HD
ENDBRANCH  27  29
ENDBRANCH  25  27
ENDBRANCH   1  25
BRANCH   8  31
HETATM   31  N8  UNL     1      31.743  22.331  -4.136  1.00  0.00    -0.248 N 
HETATM   32  N9  UNL     1      31.534  23.588  -4.014  1.00  0.00    -0.331 N 
ATOM     33  H92 UNL     1      31.509  23.977  -3.071  1.00  0.00     0.178 HD
ATOM     34  H91 UNL     1      31.396  24.200  -4.819  1.00  0.00     0.178 HD
ATOM     35  H8  UNL     1      31.772  21.925  -5.071  1.00  0.00     0.207 HD
ENDBRANCH   8  31
TORSDOF 5
ENDMDL
MODEL 3
REMARK VINA RESULT: -7.730041346      2.374      5.311
REMARK  5 active torsions:
REMARK  status: ('A' for Active; 'I' for Inactive)
REMARK    1  A    between atoms: C2_2  and  O1_3 
REMARK    2  A    between atoms: C2_2  and  N1_5 
REMARK    3  A    between atoms: N1_5  and  C3_7 
REMARK    4  A    between atoms: C4_10  and  N3_11 
REMARK       I    between atoms: N3_11  and  C5_13 
REMARK       I    between atoms: C5_13  and  N4_14 
REMARK       I    between atoms: C5_13  and  N5_18 
REMARK    5  A    between atoms: N7_25  and  N8_27 
ROOT
HETATM    1  C3  UNL     1      30.388  18.509  -0.190  1.00  0.00     0.697 C 
HETATM    2  N2  UNL     1      30.520  19.458  -1.161  1.00  0.00    -0.022 N 
ATOM      3  H2  UNL     1      31.181  20.202  -0.939  1.00  0.00     0.203 HD
HETATM    4  C4  UNL     1      29.927  19.577  -2.360  1.00  0.00     0.697 C 
HETATM    5  N6  UNL     1      28.814  18.975  -2.785  1.00  0.00    -0.169 N 
ATOM      6  H6  UNL     1      28.266  19.476  -3.484  1.00  0.00     0.186 HD
HETATM    7  C6  UNL     1      28.326  17.761  -2.389  1.00  0.00     0.205 C 
HETATM    8  N7  UNL     1      27.459  17.207  -3.166  1.00  0.00    -0.266 N 
ATOM      9  H7  UNL     1      27.158  17.657  -4.031  1.00  0.00     0.190 HD
HETATM   10  C7  UNL     1      28.688  17.084  -1.224  1.00  0.00     0.305 C 
HETATM   11  O2  UNL     1      28.166  15.941  -1.089  1.00  0.00    -0.263 OA
HETATM   12  N10 UNL     1      29.518  17.502  -0.238  1.00  0.00    -0.152 N 
ATOM     13  H10 UNL     1      29.468  16.947   0.617  1.00  0.00     0.187 HD
ENDROOT
BRANCH   4  14
HETATM   14  N3  UNL     1      30.470  20.358  -3.229  1.00  0.00    -0.173 N 
HETATM   15  C5  UNL     1      31.761  20.943  -3.137  1.00  0.00     0.494 C 
HETATM   16  N4  UNL     1      31.772  22.116  -4.018  1.00  0.00    -0.032 N 
HETATM   17  N5  UNL     1      32.724  20.016  -3.708  1.00  0.00    -0.032 N 
ATOM     18  H43 UNL     1      31.501  21.898  -4.976  1.00  0.00     0.278 HD
ATOM     19  H42 UNL     1      31.019  22.775  -3.815  1.00  0.00     0.278 HD
ATOM     20  H41 UNL     1      32.699  22.537  -3.951  1.00  0.00     0.278 HD
ATOM     21  H53 UNL     1      32.680  19.091  -3.280  1.00  0.00     0.278 HD
ATOM     22  H52 UNL     1      32.485  19.739  -4.661  1.00  0.00     0.278 HD
ATOM     23  H51 UNL     1      33.650  20.436  -3.642  1.00  0.00     0.278 HD
ATOM     24  H3  UNL     1      29.922  20.576  -4.062  1.00  0.00     0.181 HD
ENDBRANCH   4  14
BRANCH   1  25
HETATM   25  N1  UNL     1      31.179  18.668   0.783  1.00  0.00    -0.200 N 
ATOM     26  H1  UNL     1      31.637  17.823   1.125  1.00  0.00     0.180 HD
BRANCH  25  27
HETATM   27  C2  UNL     1      31.511  19.868   1.461  1.00  0.00     0.230 C 
HETATM   28  C1  UNL     1      30.828  19.993   2.823  1.00  0.00     0.063 C 
BRANCH  27  29
HETATM   29  O1  UNL     1      32.891  19.841   1.738  1.00  0.00    -0.377 OA
ATOM     30  H1  UNL     1      33.275  19.312   1.048  1.00  0.00     0.212 HD
ENDBRANCH  27  29
ENDBRANCH  25  27
ENDBRANCH   1  25
BRANCH   8  31
HETATM   31  N8  UNL     1      26.948  15.971  -2.782  1.00  0.00    -0.248 N 
HETATM   32  N9  UNL     1      25.694  15.763  -2.631  1.00  0.00    -0.331 N 
ATOM     33  H92 UNL     1      25.059  16.543  -2.803  1.00  0.00     0.178 HD
ATOM     34  H91 UNL     1      25.319  14.857  -2.349  1.00  0.00     0.178 HD
ATOM     35  H8  UNL     1      27.597  15.203  -2.613  1.00  0.00     0.207 HD
ENDBRANCH   8  31
TORSDOF 5
ENDMDL
MODEL 4
REMARK VINA RESULT: -7.708855913      2.755      5.939
REMARK  5 active torsions:
REMARK  status: ('A' for Active; 'I' for Inactive)
REMARK    1  A    between atoms: C2_2  and  O1_3 
REMARK    2  A    between atoms: C2_2  and  N1_5 
REMARK    3  A    between atoms: N1_5  and  C3_7 
REMARK    4  A    between atoms: C4_10  and  N3_11 
REMARK       I    between atoms: N3_11  and  C5_13 
REMARK       I    between atoms: C5_13  and  N4_14 
REMARK       I    between atoms: C5_13  and  N5_18 
REMARK    5  A    between atoms: N7_25  and  N8_27 
ROOT
HETATM    1  C3  UNL     1      30.046  19.527  -2.216  1.00  0.00     0.697 C 
HETATM    2  N2  UNL     1      30.889  19.280  -1.172  1.00  0.00    -0.022 N 
ATOM      3  H2  UNL     1      31.594  20.000  -1.017  1.00  0.00     0.203 HD
HETATM    4  C4  UNL     1      30.945  18.250  -0.313  1.00  0.00     0.697 C 
HETATM    5  N6  UNL     1      30.398  17.040  -0.451  1.00  0.00    -0.169 N 
ATOM      6  H6  UNL     1      30.876  16.271   0.018  1.00  0.00     0.186 HD
HETATM    7  C6  UNL     1      29.269  16.716  -1.149  1.00  0.00     0.205 C 
HETATM    8  N7  UNL     1      28.717  15.586  -0.862  1.00  0.00    -0.266 N 
ATOM      9  H7  UNL     1      29.109  14.972  -0.148  1.00  0.00     0.190 HD
HETATM   10  C7  UNL     1      28.674  17.502  -2.136  1.00  0.00     0.305 C 
HETATM   11  O2  UNL     1      27.593  17.043  -2.604  1.00  0.00    -0.263 OA
HETATM   12  N10 UNL     1      29.111  18.680  -2.643  1.00  0.00    -0.152 N 
ATOM     13  H10 UNL     1      28.643  18.968  -3.502  1.00  0.00     0.187 HD
ENDROOT
BRANCH   4  14
HETATM   14  N3  UNL     1      31.597  18.412   0.786  1.00  0.00    -0.173 N 
HETATM   15  C5  UNL     1      31.871  19.654   1.421  1.00  0.00     0.494 C 
HETATM   16  N4  UNL     1      33.026  19.448   2.301  1.00  0.00    -0.032 N 
HETATM   17  N5  UNL     1      30.759  19.970   2.302  1.00  0.00    -0.032 N 
ATOM     18  H43 UNL     1      32.893  18.684   2.962  1.00  0.00     0.278 HD
ATOM     19  H42 UNL     1      33.835  19.062   1.813  1.00  0.00     0.278 HD
ATOM     20  H41 UNL     1      33.223  20.340   2.755  1.00  0.00     0.278 HD
ATOM     21  H53 UNL     1      29.861  19.965   1.818  1.00  0.00     0.278 HD
ATOM     22  H52 UNL     1      30.561  19.224   2.968  1.00  0.00     0.278 HD
ATOM     23  H51 UNL     1      30.956  20.862   2.757  1.00  0.00     0.278 HD
ATOM     24  H3  UNL     1      31.950  17.571   1.244  1.00  0.00     0.181 HD
ENDBRANCH   4  14
BRANCH   1  25
HETATM   25  N1  UNL     1      30.229  20.655  -2.757  1.00  0.00    -0.200 N 
ATOM     26  H1  UNL     1      29.586  21.394  -2.472  1.00  0.00     0.180 HD
BRANCH  25  27
HETATM   27  C2  UNL     1      31.212  21.026  -3.710  1.00  0.00     0.230 C 
HETATM   28  C1  UNL     1      31.387  22.540  -3.827  1.00  0.00     0.063 C 
BRANCH  27  29
HETATM   29  O1  UNL     1      32.454  20.540  -3.262  1.00  0.00    -0.377 OA
ATOM     30  H1  UNL     1      32.332  19.604  -3.149  1.00  0.00     0.212 HD
ENDBRANCH  27  29
ENDBRANCH  25  27
ENDBRANCH   1  25
BRANCH   8  31
HETATM   31  N8  UNL     1      27.567  15.236  -1.562  1.00  0.00    -0.248 N 
HETATM   32  N9  UNL     1      27.321  14.032  -1.921  1.00  0.00    -0.331 N 
ATOM     33  H92 UNL     1      28.004  13.315  -1.678  1.00  0.00     0.178 HD
ATOM     34  H91 UNL     1      26.477  13.776  -2.434  1.00  0.00     0.178 HD
ATOM     35  H8  UNL     1      26.895  15.966  -1.797  1.00  0.00     0.207 HD
ENDBRANCH   8  31
TORSDOF 5
ENDMDL
MODEL 5
REMARK VINA RESULT: -7.654340498      2.976      6.018
REMARK  5 active torsions:
REMARK  status: ('A' for Active; 'I' for Inactive)
REMARK    1  A    between atoms: C2_2  and  O1_3 
REMARK    2  A    between atoms: C2_2  and  N1_5 
REMARK    3  A    between atoms: N1_5  and  C3_7 
REMARK    4  A    between atoms: C4_10  and  N3_11 
REMARK       I    between atoms: N3_11  and  C5_13 
REMARK       I    between atoms: C5_13  and  N4_14 
REMARK       I    between atoms: C5_13  and  N5_18 
REMARK    5  A    between atoms: N7_25  and  N8_27 
ROOT
HETATM    1  C3  UNL     1      29.543  16.865  -4.342  1.00  0.00     0.697 C 
HETATM    2  N2  UNL     1      30.045  16.999  -3.081  1.00  0.00    -0.022 N 
ATOM      3  H2  UNL     1      30.883  17.577  -3.017  1.00  0.00     0.203 HD
HETATM    4  C4  UNL     1      29.623  16.497  -1.909  1.00  0.00     0.697 C 
HETATM    5  N6  UNL     1      28.788  15.474  -1.711  1.00  0.00    -0.169 N 
ATOM      6  H6  UNL     1      28.915  14.947  -0.848  1.00  0.00     0.186 HD
HETATM    7  C6  UNL     1      27.782  15.055  -2.534  1.00  0.00     0.205 C 
HETATM    8  N7  UNL     1      26.879  14.301  -2.005  1.00  0.00    -0.266 N 
ATOM      9  H7  UNL     1      26.921  14.037  -1.021  1.00  0.00     0.190 HD
HETATM   10  C7  UNL     1      27.656  15.374  -3.887  1.00  0.00     0.305 C 
HETATM   11  O2  UNL     1      26.608  14.937  -4.443  1.00  0.00    -0.263 OA
HETATM   12  N10 UNL     1      28.511  16.085  -4.661  1.00  0.00    -0.152 N 
ATOM     13  H10 UNL     1      28.333  16.011  -5.663  1.00  0.00     0.187 HD
ENDROOT
BRANCH   4  14
HETATM   14  N3  UNL     1      30.054  17.044  -0.825  1.00  0.00    -0.173 N 
HETATM   15  C5  UNL     1      30.820  18.238  -0.739  1.00  0.00     0.494 C 
HETATM   16  N4  UNL     1      31.517  18.216   0.552  1.00  0.00    -0.032 N 
HETATM   17  N5  UNL     1      29.903  19.363  -0.669  1.00  0.00    -0.032 N 
ATOM     18  H43 UNL     1      30.887  18.088   1.343  1.00  0.00     0.278 HD
ATOM     19  H42 UNL     1      32.075  17.372   0.690  1.00  0.00     0.278 HD
ATOM     20  H41 UNL     1      32.067  19.072   0.614  1.00  0.00     0.278 HD
ATOM     21  H53 UNL     1      29.239  19.378  -1.443  1.00  0.00     0.278 HD
ATOM     22  H52 UNL     1      29.228  19.274   0.090  1.00  0.00     0.278 HD
ATOM     23  H51 UNL     1      30.453  20.220  -0.607  1.00  0.00     0.278 HD
ATOM     24  H3  UNL     1      29.825  16.577   0.052  1.00  0.00     0.181 HD
ENDBRANCH   4  14
BRANCH   1  25
HETATM   25  N1  UNL     1      30.153  17.559  -5.205  1.00  0.00    -0.200 N 
ATOM     26  H1  UNL     1      30.297  17.113  -6.112  1.00  0.00     0.180 HD
BRANCH  25  27
HETATM   27  C2  UNL     1      30.663  18.875  -5.077  1.00  0.00     0.230 C 
HETATM   28  C1  UNL     1      29.707  19.817  -4.345  1.00  0.00     0.063 C 
BRANCH  27  29
HETATM   29  O1  UNL     1      31.816  18.817  -4.274  1.00  0.00    -0.377 OA
ATOM     30  H1  UNL     1      31.563  18.318  -3.505  1.00  0.00     0.212 HD
ENDBRANCH  27  29
ENDBRANCH  25  27
ENDBRANCH   1  25
BRANCH   8  31
HETATM   31  N8  UNL     1      25.846  13.862  -2.826  1.00  0.00    -0.248 N 
HETATM   32  N9  UNL     1      24.625  14.194  -2.631  1.00  0.00    -0.331 N 
ATOM     33  H92 UNL     1      24.419  14.805  -1.840  1.00  0.00     0.178 HD
ATOM     34  H91 UNL     1      23.867  13.873  -3.234  1.00  0.00     0.178 HD
ATOM     35  H8  UNL     1      26.069  13.252  -3.612  1.00  0.00     0.207 HD
ENDBRANCH   8  31
TORSDOF 5
ENDMDL
