MODEL 1
REMARK VINA RESULT: -8.836212363      0.000      0.000
REMARK  5 active torsions:
REMARK  status: ('A' for Active; 'I' for Inactive)
REMARK       I    between atoms: C2_4  and  N3_6 
REMARK    1  A    between atoms: N3_6  and  N4_8 
REMARK    2  A    between atoms: C4_15  and  N7_16 
REMARK    3  A    between atoms: N7_16  and  C5_18 
REMARK    4  A    between atoms: C5_18  and  O2_19 
REMARK    5  A    between atoms: C5_18  and  N8_21 
REMARK       I    between atoms: N8_21  and  C6_24 
REMARK       I    between atoms: C6_24  and  N9_25 
REMARK       I    between atoms: C6_24  and  N10_29 
ROOT
HETATM    1  N7  UNL     1      28.784  16.485  -2.515  1.00  0.00    -0.171 N 
ATOM      2  H7  UNL     1      28.698  16.888  -3.447  1.00  0.00     0.182 HD
ENDROOT
BRANCH   1   3
HETATM    3  C4  UNL     1      29.704  17.051  -1.937  1.00  0.00     0.722 A 
HETATM    4  N4  UNL     1      30.055  18.336  -1.822  1.00  0.00    -0.027 N 
HETATM    5  C3  UNL     1      31.184  18.418  -1.056  1.00  0.00     0.375 A 
HETATM    6  O1  UNL     1      31.798  19.461  -0.737  1.00  0.00    -0.243 OA
HETATM    7  N5  UNL     1      31.499  17.168  -0.716  1.00  0.00    -0.235 N 
HETATM    8  N6  UNL     1      30.645  16.315  -1.218  1.00  0.00    -0.126 N 
ATOM      9  H5  UNL     1      32.301  16.911  -0.140  1.00  0.00     0.192 HD
ATOM     10  H6  UNL     1      30.664  15.302  -1.106  1.00  0.00     0.206 HD
BRANCH   4  11
HETATM   11  N3  UNL     1      29.442  19.462  -2.354  1.00  0.00    -0.248 N 
HETATM   12  C2  UNL     1      30.141  20.302  -3.288  1.00  0.00     0.203 C 
HETATM   13  N1  UNL     1      30.816  21.309  -2.902  1.00  0.00    -0.368 N 
HETATM   14  N2  UNL     1      30.046  19.967  -4.657  1.00  0.00    -0.062 NA
HETATM   15  C1  UNL     1      31.507  22.136  -3.872  1.00  0.00     0.148 C 
ATOM     16  H1  UNL     1      30.873  21.535  -1.909  1.00  0.00     0.161 HD
ATOM     17  H3  UNL     1      28.488  19.695  -2.080  1.00  0.00     0.191 HD
ENDBRANCH   4  11
ENDBRANCH   1   3
BRANCH   1  18
HETATM   18  C5  UNL     1      27.832  15.517  -2.380  1.00  0.00     0.445 C 
BRANCH  18  19
HETATM   19  O2  UNL     1      27.876  14.713  -1.219  1.00  0.00    -0.354 OA
ATOM     20  H2  UNL     1      27.254  13.998  -1.156  1.00  0.00     0.214 HD
ENDBRANCH  18  19
BRANCH  18  21
HETATM   21  N8  UNL     1      27.602  14.671  -3.545  1.00  0.00     0.024 N 
HETATM   22  C6  UNL     1      26.228  14.914  -3.959  1.00  0.00     0.579 C 
HETATM   23  N9  UNL     1      25.988  14.078  -5.117  1.00  0.00    -0.026 N 
HETATM   24  N10 UNL     1      25.362  14.632  -2.867  1.00  0.00    -0.026 N 
ATOM     25  H93 UNL     1      26.666  14.223  -5.866  1.00  0.00     0.278 HD
ATOM     26  H92 UNL     1      26.190  13.093  -4.951  1.00  0.00     0.278 HD
ATOM     27  H91 UNL     1      25.025  14.249  -5.407  1.00  0.00     0.278 HD
ATOM     28 3H10 UNL     1      25.496  13.692  -2.496  1.00  0.00     0.278 HD
ATOM     29 2H10 UNL     1      25.612  15.154  -2.026  1.00  0.00     0.278 HD
ATOM     30 1H10 UNL     1      24.398  14.803  -3.157  1.00  0.00     0.278 HD
ATOM     31  H82 UNL     1      28.282  14.815  -4.292  1.00  0.00     0.287 HD
ATOM     32  H81 UNL     1      27.807  13.687  -3.377  1.00  0.00     0.287 HD
ENDBRANCH  18  21
ENDBRANCH   1  18
TORSDOF 5
ENDMDL
MODEL 2
REMARK VINA RESULT: -8.783007148      1.190      1.418
REMARK  5 active torsions:
REMARK  status: ('A' for Active; 'I' for Inactive)
REMARK       I    between atoms: C2_4  and  N3_6 
REMARK    1  A    between atoms: N3_6  and  N4_8 
REMARK    2  A    between atoms: C4_15  and  N7_16 
REMARK    3  A    between atoms: N7_16  and  C5_18 
REMARK    4  A    between atoms: C5_18  and  O2_19 
REMARK    5  A    between atoms: C5_18  and  N8_21 
REMARK       I    between atoms: N8_21  and  C6_24 
REMARK       I    between atoms: C6_24  and  N9_25 
REMARK       I    between atoms: C6_24  and  N10_29 
ROOT
HETATM    1  N7  UNL     1      29.374  15.749  -2.769  1.00  0.00    -0.171 N 
ATOM      2  H7  UNL     1      29.685  14.780  -2.700  1.00  0.00     0.182 HD
ENDROOT
BRANCH   1   3
HETATM    3  C4  UNL     1      30.090  16.432  -2.046  1.00  0.00     0.722 A 
HETATM    4  N4  UNL     1      30.174  17.747  -1.825  1.00  0.00    -0.027 N 
HETATM    5  C3  UNL     1      31.162  17.980  -0.910  1.00  0.00     0.375 A 
HETATM    6  O1  UNL     1      31.522  19.092  -0.462  1.00  0.00    -0.243 OA
HETATM    7  N5  UNL     1      31.664  16.788  -0.588  1.00  0.00    -0.235 N 
HETATM    8  N6  UNL     1      31.056  15.830  -1.241  1.00  0.00    -0.126 N 
ATOM      9  H5  UNL     1      32.421  16.640   0.079  1.00  0.00     0.192 HD
ATOM     10  H6  UNL     1      31.254  14.832  -1.174  1.00  0.00     0.206 HD
BRANCH   4  11
HETATM   11  N3  UNL     1      29.430  18.777  -2.384  1.00  0.00    -0.248 N 
HETATM   12  C2  UNL     1      30.049  19.735  -3.259  1.00  0.00     0.203 C 
HETATM   13  N1  UNL     1      30.535  20.825  -2.816  1.00  0.00    -0.368 N 
HETATM   14  N2  UNL     1      30.095  19.420  -4.635  1.00  0.00    -0.062 NA
HETATM   15  C1  UNL     1      31.150  21.770  -3.728  1.00  0.00     0.148 C 
ATOM     16  H1  UNL     1      30.492  21.035  -1.819  1.00  0.00     0.161 HD
ATOM     17  H3  UNL     1      28.435  18.855  -2.171  1.00  0.00     0.191 HD
ENDBRANCH   4  11
ENDBRANCH   1   3
BRANCH   1  18
HETATM   18  C5  UNL     1      28.318  15.797  -3.631  1.00  0.00     0.445 C 
BRANCH  18  19
HETATM   19  O2  UNL     1      28.335  16.796  -4.630  1.00  0.00    -0.354 OA
ATOM     20  H2  UNL     1      28.904  16.659  -5.379  1.00  0.00     0.214 HD
ENDBRANCH  18  19
BRANCH  18  21
HETATM   21  N8  UNL     1      26.992  15.736  -3.031  1.00  0.00     0.024 N 
HETATM   22  C6  UNL     1      26.422  14.458  -3.433  1.00  0.00     0.579 C 
HETATM   23  N9  UNL     1      25.102  14.386  -2.841  1.00  0.00    -0.026 N 
HETATM   24  N10 UNL     1      26.412  14.384  -4.853  1.00  0.00    -0.026 N 
ATOM     25  H93 UNL     1      25.106  14.526  -1.830  1.00  0.00     0.278 HD
ATOM     26  H92 UNL     1      24.511  15.183  -3.078  1.00  0.00     0.278 HD
ATOM     27  H91 UNL     1      24.703  13.490  -3.123  1.00  0.00     0.278 HD
ATOM     28 3H10 UNL     1      25.931  15.176  -5.280  1.00  0.00     0.278 HD
ATOM     29 2H10 UNL     1      27.335  14.543  -5.258  1.00  0.00     0.278 HD
ATOM     30 1H10 UNL     1      26.013  13.489  -5.134  1.00  0.00     0.278 HD
ATOM     31  H82 UNL     1      26.996  15.878  -2.021  1.00  0.00     0.287 HD
ATOM     32  H81 UNL     1      26.403  16.535  -3.267  1.00  0.00     0.287 HD
ENDBRANCH  18  21
ENDBRANCH   1  18
TORSDOF 5
ENDMDL
MODEL 3
REMARK VINA RESULT: -8.294369565      2.069      2.413
REMARK  5 active torsions:
REMARK  status: ('A' for Active; 'I' for Inactive)
REMARK       I    between atoms: C2_4  and  N3_6 
REMARK    1  A    between atoms: N3_6  and  N4_8 
REMARK    2  A    between atoms: C4_15  and  N7_16 
REMARK    3  A    between atoms: N7_16  and  C5_18 
REMARK    4  A    between atoms: C5_18  and  O2_19 
REMARK    5  A    between atoms: C5_18  and  N8_21 
REMARK       I    between atoms: N8_21  and  C6_24 
REMARK       I    between atoms: C6_24  and  N9_25 
REMARK       I    between atoms: C6_24  and  N10_29 
ROOT
HETATM    1  N7  UNL     1      29.094  17.572  -2.037  1.00  0.00    -0.171 N 
ATOM      2  H7  UNL     1      28.687  17.761  -1.121  1.00  0.00     0.182 HD
ENDROOT
BRANCH   1   3
HETATM    3  C4  UNL     1      30.251  17.204  -1.872  1.00  0.00     0.722 A 
HETATM    4  N4  UNL     1      31.380  17.411  -2.556  1.00  0.00    -0.027 N 
HETATM    5  C3  UNL     1      32.403  16.758  -1.928  1.00  0.00     0.375 A 
HETATM    6  O1  UNL     1      33.603  16.728  -2.283  1.00  0.00    -0.243 OA
HETATM    7  N5  UNL     1      31.869  16.160  -0.863  1.00  0.00    -0.235 N 
HETATM    8  N6  UNL     1      30.585  16.396  -0.786  1.00  0.00    -0.126 N 
ATOM      9  H5  UNL     1      32.393  15.593  -0.196  1.00  0.00     0.192 HD
ATOM     10  H6  UNL     1      29.948  16.053  -0.067  1.00  0.00     0.206 HD
BRANCH   4  11
HETATM   11  N3  UNL     1      31.578  18.148  -3.715  1.00  0.00    -0.248 N 
HETATM   12  C2  UNL     1      31.867  19.555  -3.647  1.00  0.00     0.203 C 
HETATM   13  N1  UNL     1      30.941  20.428  -3.694  1.00  0.00    -0.368 N 
HETATM   14  N2  UNL     1      33.222  19.934  -3.528  1.00  0.00    -0.062 NA
HETATM   15  C1  UNL     1      31.268  21.838  -3.625  1.00  0.00     0.148 C 
ATOM     16  H1  UNL     1      29.968  20.134  -3.780  1.00  0.00     0.161 HD
ATOM     17  H3  UNL     1      31.519  17.688  -4.624  1.00  0.00     0.191 HD
ENDBRANCH   4  11
ENDBRANCH   1   3
BRANCH   1  18
HETATM   18  C5  UNL     1      28.145  17.824  -2.985  1.00  0.00     0.445 C 
BRANCH  18  19
HETATM   19  O2  UNL     1      28.016  19.154  -3.442  1.00  0.00    -0.354 OA
ATOM     20  H2  UNL     1      27.493  19.302  -4.221  1.00  0.00     0.214 HD
ENDBRANCH  18  19
BRANCH  18  21
HETATM   21  N8  UNL     1      26.821  17.268  -2.736  1.00  0.00     0.024 N 
HETATM   22  C6  UNL     1      26.948  15.827  -2.900  1.00  0.00     0.579 C 
HETATM   23  N9  UNL     1      25.637  15.263  -2.655  1.00  0.00    -0.026 N 
HETATM   24  N10 UNL     1      27.448  15.554  -4.203  1.00  0.00    -0.026 N 
ATOM     25  H93 UNL     1      25.244  15.533  -1.752  1.00  0.00     0.278 HD
ATOM     26  H92 UNL     1      24.907  15.672  -3.239  1.00  0.00     0.278 HD
ATOM     27  H91 UNL     1      25.726  14.253  -2.770  1.00  0.00     0.278 HD
ATOM     28 3H10 UNL     1      26.880  15.981  -4.935  1.00  0.00     0.278 HD
ATOM     29 2H10 UNL     1      28.321  16.046  -4.396  1.00  0.00     0.278 HD
ATOM     30 1H10 UNL     1      27.537  14.545  -4.318  1.00  0.00     0.278 HD
ATOM     31  H82 UNL     1      26.429  17.540  -1.835  1.00  0.00     0.287 HD
ATOM     32  H81 UNL     1      26.093  17.680  -3.319  1.00  0.00     0.287 HD
ENDBRANCH  18  21
ENDBRANCH   1  18
TORSDOF 5
ENDMDL
MODEL 4
REMARK VINA RESULT: -8.252363077      1.421      1.565
REMARK  5 active torsions:
REMARK  status: ('A' for Active; 'I' for Inactive)
REMARK       I    between atoms: C2_4  and  N3_6 
REMARK    1  A    between atoms: N3_6  and  N4_8 
REMARK    2  A    between atoms: C4_15  and  N7_16 
REMARK    3  A    between atoms: N7_16  and  C5_18 
REMARK    4  A    between atoms: C5_18  and  O2_19 
REMARK    5  A    between atoms: C5_18  and  N8_21 
REMARK       I    between atoms: N8_21  and  C6_24 
REMARK       I    between atoms: C6_24  and  N9_25 
REMARK       I    between atoms: C6_24  and  N10_29 
ROOT
HETATM    1  N7  UNL     1      29.779  16.443  -0.842  1.00  0.00    -0.171 N 
ATOM      2  H7  UNL     1      30.083  16.304   0.122  1.00  0.00     0.182 HD
ENDROOT
BRANCH   1   3
HETATM    3  C4  UNL     1      30.731  16.868  -1.485  1.00  0.00     0.722 A 
HETATM    4  N4  UNL     1      30.938  17.996  -2.171  1.00  0.00    -0.027 N 
HETATM    5  C3  UNL     1      32.193  17.961  -2.711  1.00  0.00     0.375 A 
HETATM    6  O1  UNL     1      32.731  18.846  -3.414  1.00  0.00    -0.243 OA
HETATM    7  N5  UNL     1      32.730  16.800  -2.337  1.00  0.00    -0.235 N 
HETATM    8  N6  UNL     1      31.895  16.110  -1.603  1.00  0.00    -0.126 N 
ATOM      9  H5  UNL     1      33.668  16.489  -2.589  1.00  0.00     0.192 HD
ATOM     10  H6  UNL     1      32.064  15.191  -1.195  1.00  0.00     0.206 HD
BRANCH   4  11
HETATM   11  N3  UNL     1      30.085  19.074  -2.360  1.00  0.00    -0.248 N 
HETATM   12  C2  UNL     1      30.425  20.123  -3.282  1.00  0.00     0.203 C 
HETATM   13  N1  UNL     1      31.054  21.164  -2.905  1.00  0.00    -0.368 N 
HETATM   14  N2  UNL     1      30.031  19.956  -4.629  1.00  0.00    -0.062 NA
HETATM   15  C1  UNL     1      31.379  22.203  -3.862  1.00  0.00     0.148 C 
ATOM     16  H1  UNL     1      31.330  21.267  -1.928  1.00  0.00     0.161 HD
ATOM     17  H3  UNL     1      29.208  19.123  -1.840  1.00  0.00     0.191 HD
ENDBRANCH   4  11
ENDBRANCH   1   3
BRANCH   1  18
HETATM   18  C5  UNL     1      28.464  16.087  -0.928  1.00  0.00     0.445 C 
BRANCH  18  19
HETATM   19  O2  UNL     1      27.742  15.955   0.279  1.00  0.00    -0.354 OA
ATOM     20  H2  UNL     1      27.186  16.680   0.540  1.00  0.00     0.214 HD
ENDBRANCH  18  19
BRANCH  18  21
HETATM   21  N8  UNL     1      28.156  14.962  -1.801  1.00  0.00     0.024 N 
HETATM   22  C6  UNL     1      27.286  15.482  -2.845  1.00  0.00     0.579 C 
HETATM   23  N9  UNL     1      26.973  14.371  -3.719  1.00  0.00    -0.026 N 
HETATM   24  N10 UNL     1      26.140  16.067  -2.239  1.00  0.00    -0.026 N 
ATOM     25  H93 UNL     1      27.802  13.900  -4.083  1.00  0.00     0.278 HD
ATOM     26  H92 UNL     1      26.577  13.571  -3.226  1.00  0.00     0.278 HD
ATOM     27  H91 UNL     1      26.363  14.736  -4.451  1.00  0.00     0.278 HD
ATOM     28 3H10 UNL     1      25.656  15.421  -1.616  1.00  0.00     0.278 HD
ATOM     29 2H10 UNL     1      26.384  16.776  -1.547  1.00  0.00     0.278 HD
ATOM     30 1H10 UNL     1      25.530  16.432  -2.971  1.00  0.00     0.278 HD
ATOM     31  H82 UNL     1      28.985  14.489  -2.162  1.00  0.00     0.287 HD
ATOM     32  H81 UNL     1      27.763  14.161  -1.306  1.00  0.00     0.287 HD
ENDBRANCH  18  21
ENDBRANCH   1  18
TORSDOF 5
ENDMDL
MODEL 5
REMARK VINA RESULT: -8.222587712      2.316      3.055
REMARK  5 active torsions:
REMARK  status: ('A' for Active; 'I' for Inactive)
REMARK       I    between atoms: C2_4  and  N3_6 
REMARK    1  A    between atoms: N3_6  and  N4_8 
REMARK    2  A    between atoms: C4_15  and  N7_16 
REMARK    3  A    between atoms: N7_16  and  C5_18 
REMARK    4  A    between atoms: C5_18  and  O2_19 
REMARK    5  A    between atoms: C5_18  and  N8_21 
REMARK       I    between atoms: N8_21  and  C6_24 
REMARK       I    between atoms: C6_24  and  N9_25 
REMARK       I    between atoms: C6_24  and  N10_29 
ROOT
HETATM    1  N7  UNL     1      27.707  17.104  -2.651  1.00  0.00    -0.171 N 
ATOM      2  H7  UNL     1      27.829  17.794  -1.911  1.00  0.00     0.182 HD
ENDROOT
BRANCH   1   3
HETATM    3  C4  UNL     1      28.596  17.270  -3.478  1.00  0.00     0.722 A 
HETATM    4  N4  UNL     1      29.505  18.232  -3.658  1.00  0.00    -0.027 N 
HETATM    5  C3  UNL     1      30.266  17.922  -4.751  1.00  0.00     0.375 A 
HETATM    6  O1  UNL     1      31.213  18.592  -5.219  1.00  0.00    -0.243 OA
HETATM    7  N5  UNL     1      29.798  16.764  -5.217  1.00  0.00    -0.235 N 
HETATM    8  N6  UNL     1      28.800  16.333  -4.491  1.00  0.00    -0.126 N 
ATOM      9  H5  UNL     1      30.170  16.277  -6.033  1.00  0.00     0.192 HD
ATOM     10  H6  UNL     1      28.270  15.475  -4.638  1.00  0.00     0.206 HD
BRANCH   4  11
HETATM   11  N3  UNL     1      29.717  19.386  -2.917  1.00  0.00    -0.248 N 
HETATM   12  C2  UNL     1      30.518  19.351  -1.723  1.00  0.00     0.203 C 
HETATM   13  N1  UNL     1      29.998  19.156  -0.578  1.00  0.00    -0.368 N 
HETATM   14  N2  UNL     1      31.910  19.545  -1.871  1.00  0.00    -0.062 NA
HETATM   15  C1  UNL     1      30.836  19.129   0.605  1.00  0.00     0.148 C 
ATOM     16  H1  UNL     1      28.991  19.018  -0.492  1.00  0.00     0.161 HD
ATOM     17  H3  UNL     1      29.301  20.266  -3.221  1.00  0.00     0.191 HD
ENDBRANCH   4  11
ENDBRANCH   1   3
BRANCH   1  18
HETATM   18  C5  UNL     1      26.615  16.343  -2.348  1.00  0.00     0.445 C 
BRANCH  18  19
HETATM   19  O2  UNL     1      25.564  16.964  -1.636  1.00  0.00    -0.354 OA
ATOM     20  H2  UNL     1      25.586  17.910  -1.556  1.00  0.00     0.214 HD
ENDBRANCH  18  19
BRANCH  18  21
HETATM   21  N8  UNL     1      26.881  15.032  -1.772  1.00  0.00     0.024 N 
HETATM   22  C6  UNL     1      26.315  14.059  -2.694  1.00  0.00     0.579 C 
HETATM   23  N9  UNL     1      26.574  12.751  -2.131  1.00  0.00    -0.026 N 
HETATM   24  N10 UNL     1      24.931  14.339  -2.865  1.00  0.00    -0.026 N 
ATOM     25  H93 UNL     1      27.561  12.587  -1.929  1.00  0.00     0.278 HD
ATOM     26  H92 UNL     1      26.230  12.648  -1.176  1.00  0.00     0.278 HD
ATOM     27  H91 UNL     1      26.176  12.069  -2.777  1.00  0.00     0.278 HD
ATOM     28 3H10 UNL     1      24.428  14.373  -1.978  1.00  0.00     0.278 HD
ATOM     29 2H10 UNL     1      24.761  15.301  -3.162  1.00  0.00     0.278 HD
ATOM     30 1H10 UNL     1      24.533  13.657  -3.512  1.00  0.00     0.278 HD
ATOM     31  H82 UNL     1      27.868  14.871  -1.568  1.00  0.00     0.287 HD
ATOM     32  H81 UNL     1      26.539  14.933  -0.816  1.00  0.00     0.287 HD
ENDBRANCH  18  21
ENDBRANCH   1  18
TORSDOF 5
ENDMDL
