MODEL 1
REMARK VINA RESULT: -8.848482958      0.000      0.000
REMARK  4 active torsions:
REMARK  status: ('A' for Active; 'I' for Inactive)
REMARK    1  A    between atoms: C2_3  and  O1_4 
REMARK    2  A    between atoms: C3_6  and  C4_7 
REMARK       I    between atoms: C4_7  and  N2_9 
REMARK    3  A    between atoms: N2_9  and  N3_11 
REMARK    4  A    between atoms: N7_21  and  N8_23 
ROOT
HETATM    1  C1  UNL     1      26.218  14.464  -4.831  1.00  0.00     0.177 C 
HETATM    2  N1  UNL     1      26.788  15.378  -3.839  1.00  0.00    -0.164 N 
HETATM    3  C2  UNL     1      27.907  16.032  -4.180  1.00  0.00     0.178 A 
HETATM    4  C3  UNL     1      28.508  16.915  -3.296  1.00  0.00     0.153 A 
HETATM    5  C6  UNL     1      27.896  17.075  -2.077  1.00  0.00     0.279 A 
HETATM    6  O3  UNL     1      28.389  17.871  -1.210  1.00  0.00    -0.266 OA
HETATM    7  N6  UNL     1      26.782  16.417  -1.755  1.00  0.00    -0.153 N 
ATOM      8  H6  UNL     1      26.352  16.559  -0.841  1.00  0.00     0.187 HD
HETATM    9  C7  UNL     1      26.214  15.552  -2.649  1.00  0.00     0.703 A 
HETATM   10  N7  UNL     1      25.176  14.972  -2.282  1.00  0.00    -0.138 N 
ATOM     11  H7  UNL     1      24.871  15.220  -1.340  1.00  0.00     0.205 HD
ENDROOT
BRANCH   4  12
HETATM   12  C4  UNL     1      29.713  17.589  -3.720  1.00  0.00     0.280 C 
HETATM   13  O2  UNL     1      29.582  18.442  -4.679  1.00  0.00    -0.266 OA
HETATM   14  N2  UNL     1      30.983  17.389  -3.177  1.00  0.00    -0.263 N 
ATOM     15  H2  UNL     1      31.120  16.722  -2.417  1.00  0.00     0.190 HD
BRANCH  14  16
HETATM   16  N3  UNL     1      32.103  18.139  -3.704  1.00  0.00    -0.273 N 
HETATM   17  C5  UNL     1      32.529  19.129  -3.030  1.00  0.00     0.215 C 
HETATM   18  N4  UNL     1      31.926  19.487  -1.802  1.00  0.00    -0.065 NA
HETATM   19  N5  UNL     1      33.630  19.869  -3.547  1.00  0.00    -0.065 NA
ATOM     20  H3  UNL     1      32.538  17.880  -4.589  1.00  0.00     0.189 HD
ENDBRANCH  14  16
ENDBRANCH   4  12
BRANCH   3  21
HETATM   21  O1  UNL     1      28.463  15.813  -5.433  1.00  0.00    -0.345 OA
ATOM     22  H1  UNL     1      29.372  15.542  -5.495  1.00  0.00     0.219 HD
ENDBRANCH   3  21
BRANCH  10  23
HETATM   23  N8  UNL     1      24.379  14.075  -2.902  1.00  0.00    -0.331 N 
ATOM     24  H82 UNL     1      24.895  13.447  -3.518  1.00  0.00     0.177 HD
ATOM     25  H81 UNL     1      23.371  13.919  -2.862  1.00  0.00     0.177 HD
ENDBRANCH  10  23
TORSDOF 4
ENDMDL
MODEL 2
REMARK VINA RESULT: -8.468601787      2.065      3.079
REMARK  4 active torsions:
REMARK  status: ('A' for Active; 'I' for Inactive)
REMARK    1  A    between atoms: C2_3  and  O1_4 
REMARK    2  A    between atoms: C3_6  and  C4_7 
REMARK       I    between atoms: C4_7  and  N2_9 
REMARK    3  A    between atoms: N2_9  and  N3_11 
REMARK    4  A    between atoms: N7_21  and  N8_23 
ROOT
HETATM    1  C1  UNL     1      28.118  16.139  -0.765  1.00  0.00     0.177 C 
HETATM    2  N1  UNL     1      28.423  16.249  -2.194  1.00  0.00    -0.164 N 
HETATM    3  C2  UNL     1      29.022  17.374  -2.607  1.00  0.00     0.178 A 
HETATM    4  C3  UNL     1      29.343  17.554  -3.943  1.00  0.00     0.153 A 
HETATM    5  C6  UNL     1      29.017  16.529  -4.798  1.00  0.00     0.279 A 
HETATM    6  O3  UNL     1      29.281  16.621  -6.042  1.00  0.00    -0.266 OA
HETATM    7  N6  UNL     1      28.422  15.416  -4.367  1.00  0.00    -0.153 N 
ATOM      8  H6  UNL     1      28.193  14.673  -5.028  1.00  0.00     0.187 HD
HETATM    9  C7  UNL     1      28.117  15.269  -3.043  1.00  0.00     0.703 A 
HETATM   10  N7  UNL     1      27.562  14.205  -2.713  1.00  0.00    -0.138 N 
ATOM     11  H7  UNL     1      27.400  13.561  -3.488  1.00  0.00     0.205 HD
ENDROOT
BRANCH   4  12
HETATM   12  C4  UNL     1      29.987  18.788  -4.329  1.00  0.00     0.280 C 
HETATM   13  O2  UNL     1      30.990  18.681  -5.134  1.00  0.00    -0.266 OA
HETATM   14  N2  UNL     1      29.611  20.063  -3.903  1.00  0.00    -0.263 N 
ATOM     15  H2  UNL     1      28.822  20.182  -3.267  1.00  0.00     0.190 HD
BRANCH  14  16
HETATM   16  N3  UNL     1      30.352  21.213  -4.375  1.00  0.00    -0.273 N 
HETATM   17  C5  UNL     1      31.361  21.592  -3.700  1.00  0.00     0.215 C 
HETATM   18  N4  UNL     1      31.748  20.907  -2.524  1.00  0.00    -0.065 NA
HETATM   19  N5  UNL     1      32.091  22.723  -4.162  1.00  0.00    -0.065 NA
ATOM     20  H3  UNL     1      30.072  21.706  -5.223  1.00  0.00     0.189 HD
ENDBRANCH  14  16
ENDBRANCH   4  12
BRANCH   3  21
HETATM   21  O1  UNL     1      29.318  18.363  -1.679  1.00  0.00    -0.345 OA
ATOM     22  H1  UNL     1      30.225  18.609  -1.538  1.00  0.00     0.219 HD
ENDBRANCH   3  21
BRANCH  10  23
HETATM   23  N8  UNL     1      27.135  13.746  -1.517  1.00  0.00    -0.331 N 
ATOM     24  H82 UNL     1      27.870  13.742  -0.809  1.00  0.00     0.177 HD
ATOM     25  H81 UNL     1      26.224  13.409  -1.204  1.00  0.00     0.177 HD
ENDBRANCH  10  23
TORSDOF 4
ENDMDL
MODEL 3
REMARK VINA RESULT: -8.372035487      2.080      6.253
REMARK  4 active torsions:
REMARK  status: ('A' for Active; 'I' for Inactive)
REMARK    1  A    between atoms: C2_3  and  O1_4 
REMARK    2  A    between atoms: C3_6  and  C4_7 
REMARK       I    between atoms: C4_7  and  N2_9 
REMARK    3  A    between atoms: N2_9  and  N3_11 
REMARK    4  A    between atoms: N7_21  and  N8_23 
ROOT
HETATM    1  C1  UNL     1      32.770  19.236  -3.083  1.00  0.00     0.177 C 
HETATM    2  N1  UNL     1      31.320  19.047  -3.176  1.00  0.00    -0.164 N 
HETATM    3  C2  UNL     1      30.834  17.853  -2.810  1.00  0.00     0.178 A 
HETATM    4  C3  UNL     1      29.473  17.594  -2.869  1.00  0.00     0.153 A 
HETATM    5  C6  UNL     1      28.672  18.617  -3.317  1.00  0.00     0.279 A 
HETATM    6  O3  UNL     1      27.410  18.456  -3.400  1.00  0.00    -0.266 OA
HETATM    7  N6  UNL     1      29.175  19.799  -3.677  1.00  0.00    -0.153 N 
ATOM      8  H6  UNL     1      28.552  20.538  -4.004  1.00  0.00     0.187 HD
HETATM    9  C7  UNL     1      30.521  20.022  -3.607  1.00  0.00     0.703 A 
HETATM   10  N7  UNL     1      30.919  21.148  -3.958  1.00  0.00    -0.138 N 
ATOM     11  H7  UNL     1      30.175  21.777  -4.261  1.00  0.00     0.205 HD
ENDROOT
BRANCH   4  12
HETATM   12  C4  UNL     1      29.009  16.289  -2.462  1.00  0.00     0.280 C 
HETATM   13  O2  UNL     1      29.184  15.983  -1.221  1.00  0.00    -0.266 OA
HETATM   14  N2  UNL     1      28.396  15.354  -3.297  1.00  0.00    -0.263 N 
ATOM     15  H2  UNL     1      28.242  15.565  -4.283  1.00  0.00     0.190 HD
BRANCH  14  16
HETATM   16  N3  UNL     1      27.980  14.081  -2.748  1.00  0.00    -0.273 N 
HETATM   17  C5  UNL     1      26.736  13.822  -2.712  1.00  0.00     0.215 C 
HETATM   18  N4  UNL     1      25.786  14.752  -3.197  1.00  0.00    -0.065 NA
HETATM   19  N5  UNL     1      26.325  12.572  -2.172  1.00  0.00    -0.065 NA
ATOM     20  H3  UNL     1      28.666  13.411  -2.399  1.00  0.00     0.189 HD
ENDBRANCH  14  16
ENDBRANCH   4  12
BRANCH   3  21
HETATM   21  O1  UNL     1      31.711  16.872  -2.369  1.00  0.00    -0.345 OA
ATOM     22  H1  UNL     1      31.362  16.042  -2.063  1.00  0.00     0.219 HD
ENDBRANCH   3  21
BRANCH  10  23
HETATM   23  N8  UNL     1      32.155  21.689  -4.013  1.00  0.00    -0.331 N 
ATOM     24  H82 UNL     1      32.725  21.299  -4.763  1.00  0.00     0.177 HD
ATOM     25  H81 UNL     1      32.609  22.405  -3.446  1.00  0.00     0.177 HD
ENDBRANCH  10  23
TORSDOF 4
ENDMDL
MODEL 4
REMARK VINA RESULT: -8.278632494      2.175      2.555
REMARK  4 active torsions:
REMARK  status: ('A' for Active; 'I' for Inactive)
REMARK    1  A    between atoms: C2_3  and  O1_4 
REMARK    2  A    between atoms: C3_6  and  C4_7 
REMARK       I    between atoms: C4_7  and  N2_9 
REMARK    3  A    between atoms: N2_9  and  N3_11 
REMARK    4  A    between atoms: N7_21  and  N8_23 
ROOT
HETATM    1  C1  UNL     1      26.374  15.980  -3.510  1.00  0.00     0.177 C 
HETATM    2  N1  UNL     1      27.525  16.119  -2.614  1.00  0.00    -0.164 N 
HETATM    3  C2  UNL     1      28.173  17.292  -2.629  1.00  0.00     0.178 A 
HETATM    4  C3  UNL     1      29.272  17.504  -1.811  1.00  0.00     0.153 A 
HETATM    5  C6  UNL     1      29.645  16.458  -1.001  1.00  0.00     0.279 A 
HETATM    6  O3  UNL     1      30.647  16.576  -0.220  1.00  0.00    -0.266 OA
HETATM    7  N6  UNL     1      28.987  15.298  -1.001  1.00  0.00    -0.153 N 
ATOM      8  H6  UNL     1      29.290  14.542  -0.387  1.00  0.00     0.187 HD
HETATM    9  C7  UNL     1      27.908  15.121  -1.819  1.00  0.00     0.703 A 
HETATM   10  N7  UNL     1      27.342  14.014  -1.766  1.00  0.00    -0.138 N 
ATOM     11  H7  UNL     1      27.763  13.362  -1.104  1.00  0.00     0.205 HD
ENDROOT
BRANCH   4  12
HETATM   12  C4  UNL     1      29.930  18.787  -1.871  1.00  0.00     0.280 C 
HETATM   13  O2  UNL     1      29.517  19.680  -1.035  1.00  0.00    -0.266 OA
HETATM   14  N2  UNL     1      30.960  19.127  -2.750  1.00  0.00    -0.263 N 
ATOM     15  H2  UNL     1      31.309  18.444  -3.423  1.00  0.00     0.190 HD
BRANCH  14  16
HETATM   16  N3  UNL     1      31.526  20.457  -2.695  1.00  0.00    -0.273 N 
HETATM   17  C5  UNL     1      31.172  21.295  -3.583  1.00  0.00     0.215 C 
HETATM   18  N4  UNL     1      30.249  20.936  -4.594  1.00  0.00    -0.065 NA
HETATM   19  N5  UNL     1      31.728  22.604  -3.532  1.00  0.00    -0.065 NA
ATOM     20  H3  UNL     1      32.191  20.715  -1.965  1.00  0.00     0.189 HD
ENDBRANCH  14  16
ENDBRANCH   4  12
BRANCH   3  21
HETATM   21  O1  UNL     1      27.731  18.299  -3.477  1.00  0.00    -0.345 OA
ATOM     22  H1  UNL     1      27.904  19.206  -3.249  1.00  0.00     0.219 HD
ENDBRANCH   3  21
BRANCH  10  23
HETATM   23  N8  UNL     1      26.273  13.516  -2.425  1.00  0.00    -0.331 N 
ATOM     24  H82 UNL     1      25.645  14.244  -2.767  1.00  0.00     0.177 HD
ATOM     25  H81 UNL     1      25.989  12.559  -2.635  1.00  0.00     0.177 HD
ENDBRANCH  10  23
TORSDOF 4
ENDMDL
MODEL 5
REMARK VINA RESULT: -8.237657857      1.966      6.189
REMARK  4 active torsions:
REMARK  status: ('A' for Active; 'I' for Inactive)
REMARK    1  A    between atoms: C2_3  and  O1_4 
REMARK    2  A    between atoms: C3_6  and  C4_7 
REMARK       I    between atoms: C4_7  and  N2_9 
REMARK    3  A    between atoms: N2_9  and  N3_11 
REMARK    4  A    between atoms: N7_21  and  N8_23 
ROOT
HETATM    1  C1  UNL     1      29.805  20.354  -4.405  1.00  0.00     0.177 C 
HETATM    2  N1  UNL     1      30.412  19.345  -3.533  1.00  0.00    -0.164 N 
HETATM    3  C2  UNL     1      29.680  18.259  -3.251  1.00  0.00     0.178 A 
HETATM    4  C3  UNL     1      30.182  17.260  -2.433  1.00  0.00     0.153 A 
HETATM    5  C6  UNL     1      31.451  17.448  -1.941  1.00  0.00     0.279 A 
HETATM    6  O3  UNL     1      31.983  16.572  -1.181  1.00  0.00    -0.266 OA
HETATM    7  N6  UNL     1      32.165  18.535  -2.233  1.00  0.00    -0.153 N 
ATOM      8  H6  UNL     1      33.105  18.645  -1.853  1.00  0.00     0.187 HD
HETATM    9  C7  UNL     1      31.641  19.503  -3.043  1.00  0.00     0.703 A 
HETATM   10  N7  UNL     1      32.364  20.490  -3.273  1.00  0.00    -0.138 N 
ATOM     11  H7  UNL     1      33.277  20.453  -2.820  1.00  0.00     0.205 HD
ENDROOT
BRANCH   4  12
HETATM   12  C4  UNL     1      29.346  16.114  -2.164  1.00  0.00     0.280 C 
HETATM   13  O2  UNL     1      28.988  15.944  -0.936  1.00  0.00    -0.266 OA
HETATM   14  N2  UNL     1      28.905  15.194  -3.117  1.00  0.00    -0.263 N 
ATOM     15  H2  UNL     1      29.169  15.300  -4.097  1.00  0.00     0.190 HD
BRANCH  14  16
HETATM   16  N3  UNL     1      28.067  14.090  -2.700  1.00  0.00    -0.273 N 
HETATM   17  C5  UNL     1      26.824  14.152  -2.957  1.00  0.00     0.215 C 
HETATM   18  N4  UNL     1      26.276  15.269  -3.630  1.00  0.00    -0.065 NA
HETATM   19  N5  UNL     1      25.998  13.068  -2.547  1.00  0.00    -0.065 NA
ATOM     20  H3  UNL     1      28.464  13.285  -2.215  1.00  0.00     0.189 HD
ENDBRANCH  14  16
ENDBRANCH   4  12
BRANCH   3  21
HETATM   21  O1  UNL     1      28.404  18.145  -3.788  1.00  0.00    -0.345 OA
ATOM     22  H1  UNL     1      28.303  17.821  -4.676  1.00  0.00     0.219 HD
ENDBRANCH   3  21
BRANCH  10  23
HETATM   23  N8  UNL     1      32.160  21.602  -4.013  1.00  0.00    -0.331 N 
ATOM     24  H82 UNL     1      31.210  21.963  -3.932  1.00  0.00     0.177 HD
ATOM     25  H81 UNL     1      32.779  22.132  -4.627  1.00  0.00     0.177 HD
ENDBRANCH  10  23
TORSDOF 4
ENDMDL
