MODEL 1
REMARK VINA RESULT: -8.957395322      0.000      0.000
REMARK  6 active torsions:
REMARK  status: ('A' for Active; 'I' for Inactive)
REMARK    1  A    between atoms: N1_1  and  C1_4 
REMARK    2  A    between atoms: C2_9  and  N4_10 
REMARK    3  A    between atoms: N4_10  and  N5_12 
REMARK    4  A    between atoms: C4_17  and  S1_18 
REMARK    5  A    between atoms: S1_18  and  N7_21 
REMARK    6  A    between atoms: N7_21  and  N8_23 
ROOT
HETATM    1  N5  UNL     1      29.647  16.200  -2.925  1.00  0.00    -0.117 N 
ATOM      2  H5  UNL     1      29.862  16.170  -3.921  1.00  0.00     0.206 HD
HETATM    3  C3  UNL     1      29.864  17.308  -2.304  1.00  0.00     0.700 A 
HETATM    4  N6  UNL     1      30.358  18.336  -3.030  1.00  0.00    -0.163 N 
ATOM      5  H6  UNL     1      30.536  18.193  -4.024  1.00  0.00     0.186 HD
HETATM    6  C4  UNL     1      30.622  19.533  -2.492  1.00  0.00     0.240 A 
HETATM    7  N9  UNL     1      30.387  19.717  -1.186  1.00  0.00    -0.327 N 
ATOM      8  H9  UNL     1      30.580  20.620  -0.752  1.00  0.00     0.168 HD
HETATM    9  C5  UNL     1      29.892  18.700  -0.447  1.00  0.00     0.200 A 
HETATM   10  N10 UNL     1      29.622  17.479  -0.993  1.00  0.00    -0.186 N 
ATOM     11  H10 UNL     1      29.248  16.719  -0.424  1.00  0.00     0.185 HD
ENDROOT
BRANCH   1  12
HETATM   12  N4  UNL     1      29.148  15.053  -2.349  1.00  0.00    -0.116 N 
ATOM     13  H4  UNL     1      29.712  14.544  -1.669  1.00  0.00     0.206 HD
BRANCH  12  14
HETATM   14  C2  UNL     1      27.981  14.619  -2.659  1.00  0.00     0.726 A 
HETATM   15  N3  UNL     1      27.199  13.887  -1.850  1.00  0.00    -0.116 N 
HETATM   16  N2  UNL     1      26.066  13.613  -2.489  1.00  0.00    -0.117 N 
ATOM     17  H3  UNL     1      27.435  13.591  -0.904  1.00  0.00     0.206 HD
HETATM   18  C1  UNL     1      26.145  14.180  -3.706  1.00  0.00     0.705 A 
ATOM     19  H2  UNL     1      25.282  13.072  -2.125  1.00  0.00     0.206 HD
HETATM   20  N11 UNL     1      27.340  14.810  -3.816  1.00  0.00    -0.019 N 
ATOM     21  H11 UNL     1      27.682  15.329  -4.624  1.00  0.00     0.203 HD
BRANCH  18  22
HETATM   22  N1  UNL     1      25.214  14.124  -4.620  1.00  0.00    -0.233 N 
ATOM     23  H12 UNL     1      24.375  14.703  -4.664  1.00  0.00     0.174 HD
ATOM     24  H11 UNL     1      25.211  13.483  -5.413  1.00  0.00     0.174 HD
ENDBRANCH  18  22
ENDBRANCH  12  14
ENDBRANCH   1  12
BRANCH   6  25
HETATM   25  S1  UNL     1      31.259  20.788  -3.517  1.00  0.00     0.308 S 
HETATM   26  O1  UNL     1      30.540  20.772  -4.835  1.00  0.00    -0.196 OA
HETATM   27  O2  UNL     1      32.725  20.528  -3.715  1.00  0.00    -0.196 OA
BRANCH  25  28
HETATM   28  N7  UNL     1      31.078  22.352  -2.792  1.00  0.00    -0.227 N 
ATOM     29  H7  UNL     1      30.753  22.552  -1.847  1.00  0.00     0.199 HD
BRANCH  28  30
HETATM   30  N8  UNL     1      31.468  23.288  -3.763  1.00  0.00    -0.336 N 
ATOM     31  H82 UNL     1      31.001  23.458  -4.653  1.00  0.00     0.177 HD
ATOM     32  H81 UNL     1      32.299  23.753  -3.398  1.00  0.00     0.177 HD
ENDBRANCH  28  30
ENDBRANCH  25  28
ENDBRANCH   6  25
TORSDOF 6
ENDMDL
MODEL 2
REMARK VINA RESULT: -8.874467091      1.684      2.159
REMARK  6 active torsions:
REMARK  status: ('A' for Active; 'I' for Inactive)
REMARK    1  A    between atoms: N1_1  and  C1_4 
REMARK    2  A    between atoms: C2_9  and  N4_10 
REMARK    3  A    between atoms: N4_10  and  N5_12 
REMARK    4  A    between atoms: C4_17  and  S1_18 
REMARK    5  A    between atoms: S1_18  and  N7_21 
REMARK    6  A    between atoms: N7_21  and  N8_23 
ROOT
HETATM    1  N5  UNL     1      29.913  15.816  -2.259  1.00  0.00    -0.117 N 
ATOM      2  H5  UNL     1      30.343  15.961  -1.346  1.00  0.00     0.206 HD
HETATM    3  C3  UNL     1      30.142  16.698  -3.170  1.00  0.00     0.700 A 
HETATM    4  N6  UNL     1      30.935  17.739  -2.834  1.00  0.00    -0.163 N 
ATOM      5  H6  UNL     1      31.313  17.783  -1.888  1.00  0.00     0.186 HD
HETATM    6  C4  UNL     1      31.243  18.715  -3.699  1.00  0.00     0.240 A 
HETATM    7  N9  UNL     1      30.745  18.654  -4.941  1.00  0.00    -0.327 N 
ATOM      8  H9  UNL     1      30.964  19.385  -5.618  1.00  0.00     0.168 HD
HETATM    9  C5  UNL     1      29.951  17.619  -5.292  1.00  0.00     0.200 A 
HETATM   10  N10 UNL     1      29.637  16.623  -4.413  1.00  0.00    -0.186 N 
ATOM     11  H10 UNL     1      29.037  15.846  -4.691  1.00  0.00     0.185 HD
ENDROOT
BRANCH   1  12
HETATM   12  N4  UNL     1      29.132  14.693  -2.421  1.00  0.00    -0.116 N 
ATOM     13  H4  UNL     1      29.557  13.769  -2.349  1.00  0.00     0.206 HD
BRANCH  12  14
HETATM   14  C2  UNL     1      27.876  14.798  -2.661  1.00  0.00     0.726 A 
HETATM   15  N3  UNL     1      27.008  15.482  -1.900  1.00  0.00    -0.116 N 
HETATM   16  N2  UNL     1      25.797  15.379  -2.441  1.00  0.00    -0.117 N 
ATOM     17  H3  UNL     1      27.238  15.994  -1.050  1.00  0.00     0.206 HD
HETATM   18  C1  UNL     1      25.916  14.624  -3.548  1.00  0.00     0.705 A 
ATOM     19  H2  UNL     1      24.938  15.795  -2.082  1.00  0.00     0.206 HD
HETATM   20  N11 UNL     1      27.213  14.260  -3.689  1.00  0.00    -0.019 N 
ATOM     21  H11 UNL     1      27.606  13.686  -4.435  1.00  0.00     0.203 HD
BRANCH  18  22
HETATM   22  N1  UNL     1      24.931  14.305  -4.345  1.00  0.00    -0.233 N 
ATOM     23  H12 UNL     1      24.682  14.777  -5.214  1.00  0.00     0.174 HD
ATOM     24  H11 UNL     1      24.281  13.534  -4.192  1.00  0.00     0.174 HD
ENDBRANCH  18  22
ENDBRANCH  12  14
ENDBRANCH   1  12
BRANCH   6  25
HETATM   25  S1  UNL     1      32.273  20.013  -3.162  1.00  0.00     0.308 S 
HETATM   26  O1  UNL     1      33.697  19.707  -3.528  1.00  0.00    -0.196 OA
HETATM   27  O2  UNL     1      32.128  20.136  -1.672  1.00  0.00    -0.196 OA
BRANCH  25  28
HETATM   28  N7  UNL     1      31.815  21.523  -3.878  1.00  0.00    -0.227 N 
ATOM     29  H7  UNL     1      32.256  21.977  -4.678  1.00  0.00     0.199 HD
BRANCH  28  30
HETATM   30  N8  UNL     1      30.719  21.997  -3.141  1.00  0.00    -0.336 N 
ATOM     31  H82 UNL     1      30.749  22.358  -2.188  1.00  0.00     0.177 HD
ATOM     32  H81 UNL     1      29.903  21.907  -3.746  1.00  0.00     0.177 HD
ENDBRANCH  28  30
ENDBRANCH  25  28
ENDBRANCH   6  25
TORSDOF 6
ENDMDL
MODEL 3
REMARK VINA RESULT: -8.526159315      1.880      2.139
REMARK  6 active torsions:
REMARK  status: ('A' for Active; 'I' for Inactive)
REMARK    1  A    between atoms: N1_1  and  C1_4 
REMARK    2  A    between atoms: C2_9  and  N4_10 
REMARK    3  A    between atoms: N4_10  and  N5_12 
REMARK    4  A    between atoms: C4_17  and  S1_18 
REMARK    5  A    between atoms: S1_18  and  N7_21 
REMARK    6  A    between atoms: N7_21  and  N8_23 
ROOT
HETATM    1  N5  UNL     1      27.726  17.888  -2.718  1.00  0.00    -0.117 N 
ATOM      2  H5  UNL     1      27.579  18.211  -3.674  1.00  0.00     0.206 HD
HETATM    3  C3  UNL     1      28.795  18.283  -2.115  1.00  0.00     0.700 A 
HETATM    4  N6  UNL     1      29.628  19.094  -2.805  1.00  0.00    -0.163 N 
ATOM      5  H6  UNL     1      29.380  19.355  -3.759  1.00  0.00     0.186 HD
HETATM    6  C4  UNL     1      30.766  19.566  -2.281  1.00  0.00     0.240 A 
HETATM    7  N9  UNL     1      31.088  19.221  -1.027  1.00  0.00    -0.327 N 
ATOM      8  H9  UNL     1      31.950  19.567  -0.605  1.00  0.00     0.168 HD
HETATM    9  C5  UNL     1      30.266  18.411  -0.325  1.00  0.00     0.200 A 
HETATM   10  N10 UNL     1      29.105  17.929  -0.856  1.00  0.00    -0.186 N 
ATOM     11  H10 UNL     1      28.492  17.319  -0.315  1.00  0.00     0.185 HD
ENDROOT
BRANCH   1  12
HETATM   12  N4  UNL     1      26.768  17.063  -2.173  1.00  0.00    -0.116 N 
ATOM     13  H4  UNL     1      26.398  17.263  -1.244  1.00  0.00     0.206 HD
BRANCH  12  14
HETATM   14  C2  UNL     1      26.335  16.044  -2.822  1.00  0.00     0.726 A 
HETATM   15  N3  UNL     1      25.444  15.160  -2.349  1.00  0.00    -0.116 N 
HETATM   16  N2  UNL     1      25.224  14.238  -3.281  1.00  0.00    -0.117 N 
ATOM     17  H3  UNL     1      25.008  15.190  -1.428  1.00  0.00     0.206 HD
HETATM   18  C1  UNL     1      25.986  14.553  -4.344  1.00  0.00     0.705 A 
ATOM     19  H2  UNL     1      24.594  13.439  -3.205  1.00  0.00     0.206 HD
HETATM   20  N11 UNL     1      26.681  15.681  -4.061  1.00  0.00    -0.019 N 
ATOM     21  H11 UNL     1      27.341  16.160  -4.675  1.00  0.00     0.203 HD
BRANCH  18  22
HETATM   22  N1  UNL     1      26.035  13.873  -5.458  1.00  0.00    -0.233 N 
ATOM     23  H12 UNL     1      25.262  13.367  -5.890  1.00  0.00     0.174 HD
ATOM     24  H11 UNL     1      26.865  13.764  -6.040  1.00  0.00     0.174 HD
ENDBRANCH  18  22
ENDBRANCH  12  14
ENDBRANCH   1  12
BRANCH   6  25
HETATM   25  S1  UNL     1      31.768  20.604  -3.256  1.00  0.00     0.308 S 
HETATM   26  O1  UNL     1      32.175  21.807  -2.455  1.00  0.00    -0.196 OA
HETATM   27  O2  UNL     1      30.973  21.020  -4.461  1.00  0.00    -0.196 OA
BRANCH  25  28
HETATM   28  N7  UNL     1      33.190  19.780  -3.803  1.00  0.00    -0.227 N 
ATOM     29  H7  UNL     1      34.118  20.183  -3.933  1.00  0.00     0.199 HD
BRANCH  28  30
HETATM   30  N8  UNL     1      32.815  18.447  -4.033  1.00  0.00    -0.336 N 
ATOM     31  H82 UNL     1      33.293  17.619  -3.678  1.00  0.00     0.177 HD
ATOM     32  H81 UNL     1      31.981  18.478  -4.619  1.00  0.00     0.177 HD
ENDBRANCH  28  30
ENDBRANCH  25  28
ENDBRANCH   6  25
TORSDOF 6
ENDMDL
MODEL 4
REMARK VINA RESULT: -8.496893465      1.568      1.892
REMARK  6 active torsions:
REMARK  status: ('A' for Active; 'I' for Inactive)
REMARK    1  A    between atoms: N1_1  and  C1_4 
REMARK    2  A    between atoms: C2_9  and  N4_10 
REMARK    3  A    between atoms: N4_10  and  N5_12 
REMARK    4  A    between atoms: C4_17  and  S1_18 
REMARK    5  A    between atoms: S1_18  and  N7_21 
REMARK    6  A    between atoms: N7_21  and  N8_23 
ROOT
HETATM    1  N5  UNL     1      27.815  17.502  -2.300  1.00  0.00    -0.117 N 
ATOM      2  H5  UNL     1      27.431  18.344  -2.729  1.00  0.00     0.206 HD
HETATM    3  C3  UNL     1      29.093  17.446  -2.143  1.00  0.00     0.700 A 
HETATM    4  N6  UNL     1      29.813  18.511  -2.562  1.00  0.00    -0.163 N 
ATOM      5  H6  UNL     1      29.322  19.302  -2.978  1.00  0.00     0.186 HD
HETATM    6  C4  UNL     1      31.146  18.565  -2.451  1.00  0.00     0.240 A 
HETATM    7  N9  UNL     1      31.788  17.524  -1.903  1.00  0.00    -0.327 N 
ATOM      8  H9  UNL     1      32.803  17.541  -1.807  1.00  0.00     0.168 HD
HETATM    9  C5  UNL     1      31.083  16.453  -1.479  1.00  0.00     0.200 A 
HETATM   10  N10 UNL     1      29.724  16.396  -1.591  1.00  0.00    -0.186 N 
ATOM     11  H10 UNL     1      29.203  15.581  -1.266  1.00  0.00     0.185 HD
ENDROOT
BRANCH   1  12
HETATM   12  N4  UNL     1      26.928  16.515  -1.934  1.00  0.00    -0.116 N 
ATOM     13  H4  UNL     1      26.650  16.424  -0.957  1.00  0.00     0.206 HD
BRANCH  12  14
HETATM   14  C2  UNL     1      26.447  15.709  -2.809  1.00  0.00     0.726 A 
HETATM   15  N3  UNL     1      25.413  14.881  -2.596  1.00  0.00    -0.116 N 
HETATM   16  N2  UNL     1      25.183  14.195  -3.711  1.00  0.00    -0.117 N 
ATOM     17  H3  UNL     1      24.890  14.793  -1.725  1.00  0.00     0.206 HD
HETATM   18  C1  UNL     1      26.083  14.601  -4.624  1.00  0.00     0.705 A 
ATOM     19  H2  UNL     1      24.458  13.491  -3.849  1.00  0.00     0.206 HD
HETATM   20  N11 UNL     1      26.874  15.547  -4.065  1.00  0.00    -0.019 N 
ATOM     21  H11 UNL     1      27.646  16.040  -4.514  1.00  0.00     0.203 HD
BRANCH  18  22
HETATM   22  N1  UNL     1      26.166  14.148  -5.846  1.00  0.00    -0.233 N 
ATOM     23  H12 UNL     1      26.458  13.211  -6.124  1.00  0.00     0.174 HD
ATOM     24  H11 UNL     1      25.946  14.685  -6.685  1.00  0.00     0.174 HD
ENDBRANCH  18  22
ENDBRANCH  12  14
ENDBRANCH   1  12
BRANCH   6  25
HETATM   25  S1  UNL     1      31.977  19.984  -3.024  1.00  0.00     0.308 S 
HETATM   26  O1  UNL     1      33.291  19.586  -3.631  1.00  0.00    -0.196 OA
HETATM   27  O2  UNL     1      32.195  20.900  -1.853  1.00  0.00    -0.196 OA
BRANCH  25  28
HETATM   28  N7  UNL     1      31.039  20.833  -4.208  1.00  0.00    -0.227 N 
ATOM     29  H7  UNL     1      30.329  20.436  -4.824  1.00  0.00     0.199 HD
BRANCH  28  30
HETATM   30  N8  UNL     1      31.448  22.174  -4.153  1.00  0.00    -0.336 N 
ATOM     31  H82 UNL     1      32.408  22.512  -4.220  1.00  0.00     0.177 HD
ATOM     32  H81 UNL     1      30.601  22.730  -4.035  1.00  0.00     0.177 HD
ENDBRANCH  28  30
ENDBRANCH  25  28
ENDBRANCH   6  25
TORSDOF 6
ENDMDL
MODEL 5
REMARK VINA RESULT: -8.445205426      1.321      1.688
REMARK  6 active torsions:
REMARK  status: ('A' for Active; 'I' for Inactive)
REMARK    1  A    between atoms: N1_1  and  C1_4 
REMARK    2  A    between atoms: C2_9  and  N4_10 
REMARK    3  A    between atoms: N4_10  and  N5_12 
REMARK    4  A    between atoms: C4_17  and  S1_18 
REMARK    5  A    between atoms: S1_18  and  N7_21 
REMARK    6  A    between atoms: N7_21  and  N8_23 
ROOT
HETATM    1  N5  UNL     1      29.503  16.077  -2.620  1.00  0.00    -0.117 N 
ATOM      2  H5  UNL     1      29.775  15.977  -3.597  1.00  0.00     0.206 HD
HETATM    3  C3  UNL     1      29.828  17.172  -2.022  1.00  0.00     0.700 A 
HETATM    4  N6  UNL     1      30.501  18.093  -2.746  1.00  0.00    -0.163 N 
ATOM      5  H6  UNL     1      30.722  17.886  -3.720  1.00  0.00     0.186 HD
HETATM    6  C4  UNL     1      30.890  19.266  -2.231  1.00  0.00     0.240 A 
HETATM    7  N9  UNL     1      30.598  19.534  -0.951  1.00  0.00    -0.327 N 
ATOM      8  H9  UNL     1      30.883  20.421  -0.535  1.00  0.00     0.168 HD
HETATM    9  C5  UNL     1      29.925  18.624  -0.215  1.00  0.00     0.200 A 
HETATM   10  N10 UNL     1      29.528  17.428  -0.737  1.00  0.00    -0.186 N 
ATOM     11  H10 UNL     1      29.019  16.749  -0.171  1.00  0.00     0.185 HD
ENDROOT
BRANCH   1  12
HETATM   12  N4  UNL     1      28.818  15.031  -2.042  1.00  0.00    -0.116 N 
ATOM     13  H4  UNL     1      29.178  14.602  -1.190  1.00  0.00     0.206 HD
BRANCH  12  14
HETATM   14  C2  UNL     1      27.732  14.592  -2.565  1.00  0.00     0.726 A 
HETATM   15  N3  UNL     1      26.849  13.799  -1.938  1.00  0.00    -0.116 N 
HETATM   16  N2  UNL     1      25.847  13.538  -2.770  1.00  0.00    -0.117 N 
ATOM     17  H3  UNL     1      26.934  13.455  -0.982  1.00  0.00     0.206 HD
HETATM   18  C1  UNL     1      26.110  14.175  -3.926  1.00  0.00     0.705 A 
ATOM     19  H2  UNL     1      25.029  12.961  -2.571  1.00  0.00     0.206 HD
HETATM   20  N11 UNL     1      27.286  14.834  -3.801  1.00  0.00    -0.019 N 
ATOM     21  H11 UNL     1      27.743  15.405  -4.513  1.00  0.00     0.203 HD
BRANCH  18  22
HETATM   22  N1  UNL     1      25.345  14.151  -4.984  1.00  0.00    -0.233 N 
ATOM     23  H12 UNL     1      25.155  13.340  -5.573  1.00  0.00     0.174 HD
ATOM     24  H11 UNL     1      24.837  14.954  -5.356  1.00  0.00     0.174 HD
ENDBRANCH  18  22
ENDBRANCH  12  14
ENDBRANCH   1  12
BRANCH   6  25
HETATM   25  S1  UNL     1      31.754  20.382  -3.251  1.00  0.00     0.308 S 
HETATM   26  O1  UNL     1      32.066  21.631  -2.478  1.00  0.00    -0.196 OA
HETATM   27  O2  UNL     1      30.885  20.700  -4.434  1.00  0.00    -0.196 OA
BRANCH  25  28
HETATM   28  N7  UNL     1      33.233  19.693  -3.834  1.00  0.00    -0.227 N 
ATOM     29  H7  UNL     1      34.130  20.168  -3.933  1.00  0.00     0.199 HD
BRANCH  28  30
HETATM   30  N8  UNL     1      32.954  18.352  -4.142  1.00  0.00    -0.336 N 
ATOM     31  H82 UNL     1      32.632  17.641  -3.486  1.00  0.00     0.177 HD
ATOM     32  H81 UNL     1      33.137  18.240  -5.139  1.00  0.00     0.177 HD
ENDBRANCH  28  30
ENDBRANCH  25  28
ENDBRANCH   6  25
TORSDOF 6
ENDMDL
