MODEL 1
REMARK VINA RESULT: -7.623372709      0.000      0.000
REMARK  8 active torsions:
REMARK  status: ('A' for Active; 'I' for Inactive)
REMARK    1  A    between atoms: C2_2  and  N1_3 
REMARK    2  A    between atoms: C2_2  and  C3_7 
REMARK    3  A    between atoms: C3_7  and  N4_13 
REMARK    4  A    between atoms: N2_8  and  N3_10 
REMARK    5  A    between atoms: N4_13  and  N5_14 
REMARK    6  A    between atoms: N4_13  and  N6_17 
REMARK       I    between atoms: N6_17  and  C4_19 
REMARK    7  A    between atoms: C4_19  and  C5_21 
REMARK    8  A    between atoms: C7_26  and  N8_28 
ROOT
HETATM    1  N6  UNL     1      29.202  17.449  -3.192  1.00  0.00    -0.244 N 
ATOM      2  H6  UNL     1      29.450  16.753  -3.895  1.00  0.00     0.192 HD
HETATM    3  C4  UNL     1      28.189  17.188  -2.257  1.00  0.00     0.296 C 
HETATM    4  O1  UNL     1      27.891  18.052  -1.398  1.00  0.00    -0.267 OA
ENDROOT
BRANCH   1   5
HETATM    5  N4  UNL     1      29.865  18.675  -3.145  1.00  0.00    -0.184 N 
BRANCH   5   6
HETATM    6  C3  UNL     1      31.181  18.797  -2.637  1.00  0.00     0.166 C 
HETATM    7  N2  UNL     1      31.334  19.161  -1.415  1.00  0.00    -0.291 N 
ATOM      8  H2  UNL     1      32.276  19.259  -1.036  1.00  0.00     0.188 HD
BRANCH   6   9
HETATM    9  C2  UNL     1      32.339  18.522  -3.488  1.00  0.00     0.251 C 
HETATM   10  C1  UNL     1      33.197  17.390  -2.959  1.00  0.00     0.048 C 
BRANCH   9  11
HETATM   11  N1  UNL     1      33.189  19.674  -3.718  1.00  0.00    -0.068 N 
ATOM     12  H13 UNL     1      33.979  19.462  -4.328  1.00  0.00     0.275 HD
ATOM     13  H12 UNL     1      32.743  20.377  -4.308  1.00  0.00     0.275 HD
ATOM     14  H11 UNL     1      33.479  20.048  -2.815  1.00  0.00     0.275 HD
ENDBRANCH   9  11
ENDBRANCH   6   9
BRANCH   7  15
HETATM   15  N3  UNL     1      30.239  19.423  -0.600  1.00  0.00    -0.344 N 
ATOM     16  H32 UNL     1      29.836  20.360  -0.616  1.00  0.00     0.176 HD
ATOM     17  H31 UNL     1      29.844  18.701   0.001  1.00  0.00     0.176 HD
ENDBRANCH   7  15
ENDBRANCH   5   6
BRANCH   5  18
HETATM   18  N5  UNL     1      29.160  19.786  -3.630  1.00  0.00    -0.322 N 
ATOM     19  H52 UNL     1      28.434  19.597  -4.322  1.00  0.00     0.179 HD
ATOM     20  H51 UNL     1      29.364  20.731  -3.308  1.00  0.00     0.179 HD
ENDBRANCH   5  18
ENDBRANCH   1   5
BRANCH   3  21
HETATM   21  C5  UNL     1      27.418  15.918  -2.211  1.00  0.00     0.477 C 
HETATM   22  N7  UNL     1      28.182  14.805  -2.735  1.00  0.00    -0.033 N 
HETATM   23  C6  UNL     1      27.163  13.784  -2.889  1.00  0.00     0.304 C 
ATOM     24  H72 UNL     1      28.719  15.009  -3.578  1.00  0.00     0.280 HD
ATOM     25  H71 UNL     1      28.986  14.530  -2.172  1.00  0.00     0.280 HD
HETATM   26  C7  UNL     1      26.040  14.611  -3.520  1.00  0.00     0.307 C 
HETATM   27  C8  UNL     1      24.748  13.992  -3.099  1.00  0.00     0.080 C 
HETATM   28  N9  UNL     1      26.253  15.943  -3.034  1.00  0.00    -0.001 N 
ATOM     29  H92 UNL     1      25.437  16.326  -2.556  1.00  0.00     0.283 HD
ATOM     30  H91 UNL     1      26.308  16.635  -3.781  1.00  0.00     0.283 HD
BRANCH  26  31
HETATM   31  N8  UNL     1      26.190  14.485  -4.952  1.00  0.00    -0.043 N 
ATOM     32  H83 UNL     1      27.061  14.881  -5.302  1.00  0.00     0.277 HD
ATOM     33  H82 UNL     1      26.354  13.526  -5.257  1.00  0.00     0.277 HD
ATOM     34  H81 UNL     1      25.359  14.905  -5.369  1.00  0.00     0.277 HD
ENDBRANCH  26  31
ENDBRANCH   3  21
TORSDOF 8
ENDMDL
MODEL 2
REMARK VINA RESULT: -7.593438827      1.626      6.283
REMARK  8 active torsions:
REMARK  status: ('A' for Active; 'I' for Inactive)
REMARK    1  A    between atoms: C2_2  and  N1_3 
REMARK    2  A    between atoms: C2_2  and  C3_7 
REMARK    3  A    between atoms: C3_7  and  N4_13 
REMARK    4  A    between atoms: N2_8  and  N3_10 
REMARK    5  A    between atoms: N4_13  and  N5_14 
REMARK    6  A    between atoms: N4_13  and  N6_17 
REMARK       I    between atoms: N6_17  and  C4_19 
REMARK    7  A    between atoms: C4_19  and  C5_21 
REMARK    8  A    between atoms: C7_26  and  N8_28 
ROOT
HETATM    1  N6  UNL     1      27.404  17.170  -3.194  1.00  0.00    -0.244 N 
ATOM      2  H6  UNL     1      27.370  17.089  -4.211  1.00  0.00     0.192 HD
HETATM    3  C4  UNL     1      28.258  18.100  -2.581  1.00  0.00     0.296 C 
HETATM    4  O1  UNL     1      28.292  18.190  -1.331  1.00  0.00    -0.267 OA
ENDROOT
BRANCH   1   5
HETATM    5  N4  UNL     1      26.602  16.358  -2.393  1.00  0.00    -0.184 N 
BRANCH   5   6
HETATM    6  C3  UNL     1      26.758  14.951  -2.358  1.00  0.00     0.166 C 
HETATM    7  N2  UNL     1      27.636  14.451  -1.566  1.00  0.00    -0.291 N 
ATOM      8  H2  UNL     1      27.765  13.439  -1.534  1.00  0.00     0.188 HD
BRANCH   6   9
HETATM    9  C2  UNL     1      25.941  14.088  -3.212  1.00  0.00     0.251 C 
HETATM   10  C1  UNL     1      26.049  14.447  -4.680  1.00  0.00     0.048 C 
BRANCH   9  11
HETATM   11  N1  UNL     1      24.538  14.057  -2.848  1.00  0.00    -0.068 N 
ATOM     12  H13 UNL     1      23.991  13.439  -3.448  1.00  0.00     0.275 HD
ATOM     13  H12 UNL     1      24.373  13.575  -1.964  1.00  0.00     0.275 HD
ATOM     14  H11 UNL     1      24.183  15.014  -2.844  1.00  0.00     0.275 HD
ENDBRANCH   9  11
ENDBRANCH   6   9
BRANCH   7  15
HETATM   15  N3  UNL     1      28.416  15.264  -0.752  1.00  0.00    -0.344 N 
ATOM     16  H32 UNL     1      27.947  15.861  -0.070  1.00  0.00     0.176 HD
ATOM     17  H31 UNL     1      29.432  15.269  -0.830  1.00  0.00     0.176 HD
ENDBRANCH   7  15
ENDBRANCH   5   6
BRANCH   5  18
HETATM   18  N5  UNL     1      25.631  17.008  -1.619  1.00  0.00    -0.322 N 
ATOM     19  H52 UNL     1      25.665  16.842  -0.613  1.00  0.00     0.179 HD
ATOM     20  H51 UNL     1      24.928  17.614  -2.042  1.00  0.00     0.179 HD
ENDBRANCH   5  18
ENDBRANCH   1   5
BRANCH   3  21
HETATM   21  C5  UNL     1      29.154  19.016  -3.334  1.00  0.00     0.477 C 
HETATM   22  N7  UNL     1      30.311  18.324  -3.863  1.00  0.00    -0.033 N 
HETATM   23  C6  UNL     1      31.168  19.425  -4.259  1.00  0.00     0.304 C 
ATOM     24  H72 UNL     1      30.739  17.650  -3.228  1.00  0.00     0.280 HD
ATOM     25  H71 UNL     1      30.110  17.648  -4.600  1.00  0.00     0.280 HD
HETATM   26  C7  UNL     1      31.022  20.338  -3.039  1.00  0.00     0.307 C 
HETATM   27  C8  UNL     1      31.195  21.742  -3.517  1.00  0.00     0.080 C 
HETATM   28  N9  UNL     1      29.720  20.039  -2.517  1.00  0.00    -0.001 N 
ATOM     29  H92 UNL     1      29.124  20.864  -2.441  1.00  0.00     0.283 HD
ATOM     30  H91 UNL     1      29.735  19.795  -1.526  1.00  0.00     0.283 HD
BRANCH  26  31
HETATM   31  N8  UNL     1      32.100  20.000  -2.139  1.00  0.00    -0.043 N 
ATOM     32  H83 UNL     1      32.689  19.242  -2.482  1.00  0.00     0.277 HD
ATOM     33  H82 UNL     1      32.826  20.715  -2.094  1.00  0.00     0.277 HD
ATOM     34  H81 UNL     1      31.673  19.801  -1.235  1.00  0.00     0.277 HD
ENDBRANCH  26  31
ENDBRANCH   3  21
TORSDOF 8
ENDMDL
MODEL 3
REMARK VINA RESULT: -7.432821086      1.483      2.169
REMARK  8 active torsions:
REMARK  status: ('A' for Active; 'I' for Inactive)
REMARK    1  A    between atoms: C2_2  and  N1_3 
REMARK    2  A    between atoms: C2_2  and  C3_7 
REMARK    3  A    between atoms: C3_7  and  N4_13 
REMARK    4  A    between atoms: N2_8  and  N3_10 
REMARK    5  A    between atoms: N4_13  and  N5_14 
REMARK    6  A    between atoms: N4_13  and  N6_17 
REMARK       I    between atoms: N6_17  and  C4_19 
REMARK    7  A    between atoms: C4_19  and  C5_21 
REMARK    8  A    between atoms: C7_26  and  N8_28 
ROOT
HETATM    1  N6  UNL     1      29.883  16.996  -3.934  1.00  0.00    -0.244 N 
ATOM      2  H6  UNL     1      30.329  16.079  -3.895  1.00  0.00     0.192 HD
HETATM    3  C4  UNL     1      28.561  17.164  -3.497  1.00  0.00     0.296 C 
HETATM    4  O1  UNL     1      28.022  18.296  -3.550  1.00  0.00    -0.267 OA
ENDROOT
BRANCH   1   5
HETATM    5  N4  UNL     1      30.580  18.101  -4.422  1.00  0.00    -0.184 N 
BRANCH   5   6
HETATM    6  C3  UNL     1      31.268  18.992  -3.563  1.00  0.00     0.166 C 
HETATM    7  N2  UNL     1      32.435  18.661  -3.144  1.00  0.00    -0.291 N 
ATOM      8  H2  UNL     1      32.941  19.290  -2.520  1.00  0.00     0.188 HD
BRANCH   6   9
HETATM    9  C2  UNL     1      30.658  20.260  -3.158  1.00  0.00     0.251 C 
HETATM   10  C1  UNL     1      31.639  21.414  -3.182  1.00  0.00     0.048 C 
BRANCH   9  11
HETATM   11  N1  UNL     1      30.027  20.219  -1.853  1.00  0.00    -0.068 N 
ATOM     12  H13 UNL     1      29.942  19.270  -1.488  1.00  0.00     0.275 HD
ATOM     13  H12 UNL     1      30.624  20.598  -1.118  1.00  0.00     0.275 HD
ATOM     14  H11 UNL     1      29.128  20.697  -1.913  1.00  0.00     0.275 HD
ENDBRANCH   9  11
ENDBRANCH   6   9
BRANCH   7  15
HETATM   15  N3  UNL     1      33.022  17.460  -3.525  1.00  0.00    -0.344 N 
ATOM     16  H32 UNL     1      33.994  17.290  -3.265  1.00  0.00     0.176 HD
ATOM     17  H31 UNL     1      32.499  16.761  -4.052  1.00  0.00     0.176 HD
ENDBRANCH   7  15
ENDBRANCH   5   6
BRANCH   5  18
HETATM   18  N5  UNL     1      30.566  18.285  -5.811  1.00  0.00    -0.322 N 
ATOM     19  H52 UNL     1      30.684  19.241  -6.144  1.00  0.00     0.179 HD
ATOM     20  H51 UNL     1      30.442  17.501  -6.452  1.00  0.00     0.179 HD
ENDBRANCH   5  18
ENDBRANCH   1   5
BRANCH   3  21
HETATM   21  C5  UNL     1      27.724  16.060  -2.958  1.00  0.00     0.477 C 
HETATM   22  N7  UNL     1      28.332  14.764  -3.182  1.00  0.00    -0.033 N 
HETATM   23  C6  UNL     1      27.238  13.861  -2.881  1.00  0.00     0.304 C 
ATOM     24  H72 UNL     1      28.755  14.640  -4.102  1.00  0.00     0.280 HD
ATOM     25  H71 UNL     1      29.190  14.593  -2.658  1.00  0.00     0.280 HD
HETATM   26  C7  UNL     1      26.092  14.566  -3.609  1.00  0.00     0.307 C 
HETATM   27  C8  UNL     1      24.837  14.249  -2.865  1.00  0.00     0.080 C 
HETATM   28  N9  UNL     1      26.457  15.953  -3.603  1.00  0.00    -0.001 N 
ATOM     29  H92 UNL     1      25.745  16.550  -3.182  1.00  0.00     0.283 HD
ATOM     30  H91 UNL     1      26.448  16.371  -4.534  1.00  0.00     0.283 HD
BRANCH  26  31
HETATM   31  N8  UNL     1      26.025  13.989  -4.932  1.00  0.00    -0.043 N 
ATOM     32  H83 UNL     1      26.938  13.731  -5.305  1.00  0.00     0.277 HD
ATOM     33  H82 UNL     1      25.614  13.057  -4.944  1.00  0.00     0.277 HD
ATOM     34  H81 UNL     1      25.526  14.659  -5.517  1.00  0.00     0.277 HD
ENDBRANCH  26  31
ENDBRANCH   3  21
TORSDOF 8
ENDMDL
MODEL 4
REMARK VINA RESULT: -7.383730143      1.785      6.370
REMARK  8 active torsions:
REMARK  status: ('A' for Active; 'I' for Inactive)
REMARK    1  A    between atoms: C2_2  and  N1_3 
REMARK    2  A    between atoms: C2_2  and  C3_7 
REMARK    3  A    between atoms: C3_7  and  N4_13 
REMARK    4  A    between atoms: N2_8  and  N3_10 
REMARK    5  A    between atoms: N4_13  and  N5_14 
REMARK    6  A    between atoms: N4_13  and  N6_17 
REMARK       I    between atoms: N6_17  and  C4_19 
REMARK    7  A    between atoms: C4_19  and  C5_21 
REMARK    8  A    between atoms: C7_26  and  N8_28 
ROOT
HETATM    1  N6  UNL     1      28.467  17.077  -2.900  1.00  0.00    -0.244 N 
ATOM      2  H6  UNL     1      28.610  16.950  -3.902  1.00  0.00     0.192 HD
HETATM    3  C4  UNL     1      28.731  18.314  -2.293  1.00  0.00     0.296 C 
HETATM    4  O1  UNL     1      28.553  18.458  -1.060  1.00  0.00    -0.267 OA
ENDROOT
BRANCH   1   5
HETATM    5  N4  UNL     1      28.005  16.022  -2.113  1.00  0.00    -0.184 N 
BRANCH   5   6
HETATM    6  C3  UNL     1      26.789  15.354  -2.393  1.00  0.00     0.166 C 
HETATM    7  N2  UNL     1      25.687  15.922  -2.060  1.00  0.00    -0.291 N 
ATOM      8  H2  UNL     1      24.802  15.450  -2.250  1.00  0.00     0.188 HD
BRANCH   6   9
HETATM    9  C2  UNL     1      26.790  14.042  -3.042  1.00  0.00     0.251 C 
HETATM   10  C1  UNL     1      25.886  13.991  -4.257  1.00  0.00     0.048 C 
BRANCH   9  11
HETATM   11  N1  UNL     1      26.437  12.948  -2.160  1.00  0.00    -0.068 N 
ATOM     12  H13 UNL     1      26.043  13.269  -1.275  1.00  0.00     0.275 HD
ATOM     13  H12 UNL     1      25.626  12.424  -2.490  1.00  0.00     0.275 HD
ATOM     14  H11 UNL     1      27.258  12.357  -2.031  1.00  0.00     0.275 HD
ENDBRANCH   9  11
ENDBRANCH   6   9
BRANCH   7  15
HETATM   15  N3  UNL     1      25.677  17.168  -1.445  1.00  0.00    -0.344 N 
ATOM     16  H32 UNL     1      26.554  17.530  -1.068  1.00  0.00     0.176 HD
ATOM     17  H31 UNL     1      24.819  17.712  -1.368  1.00  0.00     0.176 HD
ENDBRANCH   7  15
ENDBRANCH   5   6
BRANCH   5  18
HETATM   18  N5  UNL     1      28.810  15.656  -1.025  1.00  0.00    -0.322 N 
ATOM     19  H52 UNL     1      29.371  16.396  -0.605  1.00  0.00     0.179 HD
ATOM     20  H51 UNL     1      28.832  14.698  -0.676  1.00  0.00     0.179 HD
ENDBRANCH   5  18
ENDBRANCH   1   5
BRANCH   3  21
HETATM   21  C5  UNL     1      29.224  19.506  -3.032  1.00  0.00     0.477 C 
HETATM   22  N7  UNL     1      29.774  19.149  -4.324  1.00  0.00    -0.033 N 
HETATM   23  C6  UNL     1      30.458  20.368  -4.709  1.00  0.00     0.304 C 
ATOM     24  H72 UNL     1      30.352  18.309  -4.330  1.00  0.00     0.280 HD
ATOM     25  H71 UNL     1      29.095  18.803  -5.002  1.00  0.00     0.280 HD
HETATM   26  C7  UNL     1      31.152  20.720  -3.391  1.00  0.00     0.307 C 
HETATM   27  C8  UNL     1      31.281  22.207  -3.345  1.00  0.00     0.080 C 
HETATM   28  N9  UNL     1      30.308  20.161  -2.376  1.00  0.00    -0.001 N 
ATOM     29  H92 UNL     1      29.999  20.851  -1.691  1.00  0.00     0.283 HD
ATOM     30  H91 UNL     1      30.811  19.550  -1.732  1.00  0.00     0.283 HD
BRANCH  26  31
HETATM   31  N8  UNL     1      32.467  20.126  -3.445  1.00  0.00    -0.043 N 
ATOM     32  H83 UNL     1      32.996  20.236  -2.580  1.00  0.00     0.277 HD
ATOM     33  H82 UNL     1      32.449  19.106  -3.453  1.00  0.00     0.277 HD
ATOM     34  H81 UNL     1      32.936  20.527  -4.257  1.00  0.00     0.277 HD
ENDBRANCH  26  31
ENDBRANCH   3  21
TORSDOF 8
ENDMDL
MODEL 5
REMARK VINA RESULT: -7.353188004      1.564      2.197
REMARK  8 active torsions:
REMARK  status: ('A' for Active; 'I' for Inactive)
REMARK    1  A    between atoms: C2_2  and  N1_3 
REMARK    2  A    between atoms: C2_2  and  C3_7 
REMARK    3  A    between atoms: C3_7  and  N4_13 
REMARK    4  A    between atoms: N2_8  and  N3_10 
REMARK    5  A    between atoms: N4_13  and  N5_14 
REMARK    6  A    between atoms: N4_13  and  N6_17 
REMARK       I    between atoms: N6_17  and  C4_19 
REMARK    7  A    between atoms: C4_19  and  C5_21 
REMARK    8  A    between atoms: C7_26  and  N8_28 
ROOT
HETATM    1  N6  UNL     1      30.308  17.392  -3.011  1.00  0.00    -0.244 N 
ATOM      2  H6  UNL     1      30.139  17.683  -3.974  1.00  0.00     0.192 HD
HETATM    3  C4  UNL     1      29.348  16.641  -2.315  1.00  0.00     0.296 C 
HETATM    4  O1  UNL     1      29.565  16.289  -1.131  1.00  0.00    -0.267 OA
ENDROOT
BRANCH   1   5
HETATM    5  N4  UNL     1      31.496  17.735  -2.366  1.00  0.00    -0.184 N 
BRANCH   5   6
HETATM    6  C3  UNL     1      31.742  19.047  -1.896  1.00  0.00     0.166 C 
HETATM    7  N2  UNL     1      31.506  19.310  -0.661  1.00  0.00    -0.291 N 
ATOM      8  H2  UNL     1      31.673  20.253  -0.308  1.00  0.00     0.188 HD
BRANCH   6   9
HETATM    9  C2  UNL     1      32.246  20.083  -2.799  1.00  0.00     0.251 C 
HETATM   10  C1  UNL     1      31.134  20.881  -3.450  1.00  0.00     0.048 C 
BRANCH   9  11
HETATM   11  N1  UNL     1      33.122  19.581  -3.840  1.00  0.00    -0.068 N 
ATOM     12  H13 UNL     1      33.107  20.162  -4.678  1.00  0.00     0.275 HD
ATOM     13  H12 UNL     1      34.109  19.695  -3.609  1.00  0.00     0.275 HD
ATOM     14  H11 UNL     1      32.875  18.610  -4.031  1.00  0.00     0.275 HD
ENDBRANCH   9  11
ENDBRANCH   6   9
BRANCH   7  15
HETATM   15  N3  UNL     1      31.028  18.332   0.203  1.00  0.00    -0.344 N 
ATOM     16  H32 UNL     1      30.041  18.079   0.152  1.00  0.00     0.176 HD
ATOM     17  H31 UNL     1      31.644  17.875   0.874  1.00  0.00     0.176 HD
ENDBRANCH   7  15
ENDBRANCH   5   6
BRANCH   5  18
HETATM   18  N5  UNL     1      32.437  16.709  -2.206  1.00  0.00    -0.322 N 
ATOM     19  H52 UNL     1      33.132  16.841  -1.470  1.00  0.00     0.179 HD
ATOM     20  H51 UNL     1      32.427  15.877  -2.795  1.00  0.00     0.179 HD
ENDBRANCH   5  18
ENDBRANCH   1   5
BRANCH   3  21
HETATM   21  C5  UNL     1      28.049  16.218  -2.902  1.00  0.00     0.477 C 
HETATM   22  N7  UNL     1      26.973  16.285  -1.934  1.00  0.00    -0.033 N 
HETATM   23  C6  UNL     1      25.917  15.550  -2.604  1.00  0.00     0.304 C 
ATOM     24  H72 UNL     1      27.210  15.947  -1.001  1.00  0.00     0.280 HD
ATOM     25  H71 UNL     1      26.721  17.226  -1.633  1.00  0.00     0.280 HD
HETATM   26  C7  UNL     1      26.711  14.354  -3.135  1.00  0.00     0.307 C 
HETATM   27  C8  UNL     1      26.037  13.901  -4.388  1.00  0.00     0.080 C 
HETATM   28  N9  UNL     1      28.042  14.854  -3.318  1.00  0.00    -0.001 N 
ATOM     29  H92 UNL     1      28.387  14.727  -4.270  1.00  0.00     0.283 HD
ATOM     30  H91 UNL     1      28.748  14.290  -2.844  1.00  0.00     0.283 HD
BRANCH  26  31
HETATM   31  N8  UNL     1      26.613  13.317  -2.135  1.00  0.00    -0.043 N 
ATOM     32  H83 UNL     1      27.445  12.730  -2.079  1.00  0.00     0.277 HD
ATOM     33  H82 UNL     1      26.645  13.673  -1.180  1.00  0.00     0.277 HD
ATOM     34  H81 UNL     1      25.763  12.792  -2.341  1.00  0.00     0.277 HD
ENDBRANCH  26  31
ENDBRANCH   3  21
TORSDOF 8
ENDMDL
