MODEL 1
REMARK VINA RESULT: -8.088403428      0.000      0.000
REMARK  8 active torsions:
REMARK  status: ('A' for Active; 'I' for Inactive)
REMARK    1  A    between atoms: C2_2  and  N1_3 
REMARK    2  A    between atoms: C2_2  and  C3_7 
REMARK       I    between atoms: C3_7  and  N2_9 
REMARK    3  A    between atoms: N2_9  and  C4_11 
REMARK    4  A    between atoms: C4_11  and  C6_13 
REMARK    5  A    between atoms: C6_13  and  O2_15 
REMARK    6  A    between atoms: O2_15  and  N3_16 
REMARK    7  A    between atoms: C8_17  and  N4_18 
REMARK    8  A    between atoms: N8_28  and  O3_30 
ROOT
HETATM    1  N3  UNL     1      26.481  15.755   8.658  1.00  0.00    -0.124 NA
HETATM    2  C8  UNL     1      27.398  15.911   7.588  1.00  0.00     0.389 C 
HETATM    3  N5  UNL     1      28.643  16.532   7.867  1.00  0.00    -0.323 N 
ATOM      4  H5  UNL     1      29.364  16.488   7.147  1.00  0.00     0.165 HD
HETATM    5  C9  UNL     1      28.922  17.136   8.941  1.00  0.00     0.196 C 
HETATM    6  N6  UNL     1      30.180  17.757   9.204  1.00  0.00    -0.063 NA
HETATM    7  N7  UNL     1      27.924  17.203   9.961  1.00  0.00    -0.289 N 
HETATM    8  C10 UNL     1      27.818  18.035  11.109  1.00  0.00     0.107 C 
HETATM    9  N8  UNL     1      28.820  18.553  11.778  1.00  0.00    -0.257 N 
ATOM     10  H8  UNL     1      29.789  18.384  11.505  1.00  0.00     0.195 HD
HETATM   11  C11 UNL     1      26.370  18.190  11.386  1.00  0.00     0.082 C 
HETATM   12  C12 UNL     1      25.694  17.190  10.485  1.00  0.00     0.051 C 
HETATM   13  C13 UNL     1      26.814  16.323   9.914  1.00  0.00     0.199 C 
ENDROOT
BRANCH   1  14
HETATM   14  O2  UNL     1      26.049  14.495   8.717  1.00  0.00    -0.291 OA
BRANCH  14  15
HETATM   15  C6  UNL     1      24.712  14.346   8.374  1.00  0.00     0.164 C 
HETATM   16  C7  UNL     1      24.527  14.096   6.895  1.00  0.00     0.044 C 
BRANCH  15  17
HETATM   17  C4  UNL     1      24.173  13.134   9.103  1.00  0.00     0.111 C 
HETATM   18  C5  UNL     1      22.708  12.999   8.734  1.00  0.00     0.035 C 
BRANCH  17  19
HETATM   19  N2  UNL     1      24.833  11.919   8.703  1.00  0.00    -0.353 N 
HETATM   20  C3  UNL     1      24.997  10.807   9.577  1.00  0.00     0.248 C 
HETATM   21  O1  UNL     1      24.573  10.815  10.761  1.00  0.00    -0.271 OA
ATOM     22  H2  UNL     1      25.199  11.851   7.754  1.00  0.00     0.163 HD
BRANCH  20  23
HETATM   23  C2  UNL     1      25.684   9.578   9.114  1.00  0.00     0.270 C 
HETATM   24  C1  UNL     1      27.176   9.711   9.365  1.00  0.00     0.050 C 
BRANCH  23  25
HETATM   25  N1  UNL     1      25.211   8.449   9.879  1.00  0.00    -0.067 N 
ATOM     26  H13 UNL     1      25.906   7.706   9.961  1.00  0.00     0.275 HD
ATOM     27  H12 UNL     1      25.117   8.655  10.873  1.00  0.00     0.275 HD
ATOM     28  H11 UNL     1      24.339   8.133   9.454  1.00  0.00     0.275 HD
ENDBRANCH  23  25
ENDBRANCH  20  23
ENDBRANCH  17  19
ENDBRANCH  15  17
ENDBRANCH  14  15
ENDBRANCH   1  14
BRANCH   2  29
HETATM   29  N4  UNL     1      26.807  16.647   6.457  1.00  0.00    -0.043 N 
ATOM     30  H43 UNL     1      26.215  16.041   5.889  1.00  0.00     0.278 HD
ATOM     31  H42 UNL     1      26.099  17.310   6.775  1.00  0.00     0.278 HD
ATOM     32  H41 UNL     1      27.517  17.109   5.889  1.00  0.00     0.278 HD
ENDBRANCH   2  29
BRANCH   9  33
HETATM   33  O3  UNL     1      28.509  19.328  12.856  1.00  0.00    -0.288 OA
ATOM     34  H3  UNL     1      28.947  19.125  13.674  1.00  0.00     0.244 HD
ENDBRANCH   9  33
TORSDOF 8
ENDMDL
MODEL 2
REMARK VINA RESULT: -7.946231865      2.210      7.715
REMARK  8 active torsions:
REMARK  status: ('A' for Active; 'I' for Inactive)
REMARK    1  A    between atoms: C2_2  and  N1_3 
REMARK    2  A    between atoms: C2_2  and  C3_7 
REMARK       I    between atoms: C3_7  and  N2_9 
REMARK    3  A    between atoms: N2_9  and  C4_11 
REMARK    4  A    between atoms: C4_11  and  C6_13 
REMARK    5  A    between atoms: C6_13  and  O2_15 
REMARK    6  A    between atoms: O2_15  and  N3_16 
REMARK    7  A    between atoms: C8_17  and  N4_18 
REMARK    8  A    between atoms: N8_28  and  O3_30 
ROOT
HETATM    1  N3  UNL     1      24.883  11.903   8.589  1.00  0.00    -0.124 NA
HETATM    2  C8  UNL     1      23.539  11.656   8.216  1.00  0.00     0.389 C 
HETATM    3  N5  UNL     1      22.920  10.476   8.704  1.00  0.00    -0.323 N 
ATOM      4  H5  UNL     1      21.911  10.385   8.582  1.00  0.00     0.165 HD
HETATM    5  C9  UNL     1      23.528   9.529   9.280  1.00  0.00     0.196 C 
HETATM    6  N6  UNL     1      22.889   8.348   9.765  1.00  0.00    -0.063 NA
HETATM    7  N7  UNL     1      24.940   9.642   9.465  1.00  0.00    -0.289 N 
HETATM    8  C10 UNL     1      25.921   8.663   9.783  1.00  0.00     0.107 C 
HETATM    9  N8  UNL     1      25.717   7.569  10.478  1.00  0.00    -0.257 N 
ATOM     10  H8  UNL     1      24.797   7.339  10.853  1.00  0.00     0.195 HD
HETATM   11  C11 UNL     1      27.193   9.127   9.180  1.00  0.00     0.082 C 
HETATM   12  C12 UNL     1      26.917  10.539   8.733  1.00  0.00     0.051 C 
HETATM   13  C13 UNL     1      25.564  10.908   9.337  1.00  0.00     0.199 C 
ENDROOT
BRANCH   1  14
HETATM   14  O2  UNL     1      25.010  13.140   9.069  1.00  0.00    -0.291 OA
BRANCH  14  15
HETATM   15  C6  UNL     1      25.633  14.018   8.192  1.00  0.00     0.164 C 
HETATM   16  C7  UNL     1      24.640  14.873   7.440  1.00  0.00     0.044 C 
BRANCH  15  17
HETATM   17  C4  UNL     1      26.504  14.952   9.003  1.00  0.00     0.111 C 
HETATM   18  C5  UNL     1      27.648  15.394   8.110  1.00  0.00     0.035 C 
BRANCH  17  19
HETATM   19  N2  UNL     1      25.797  16.136   9.416  1.00  0.00    -0.353 N 
HETATM   20  C3  UNL     1      26.163  16.891  10.567  1.00  0.00     0.248 C 
HETATM   21  O1  UNL     1      27.133  16.570  11.299  1.00  0.00    -0.271 OA
ATOM     22  H2  UNL     1      25.000  16.448   8.862  1.00  0.00     0.163 HD
BRANCH  20  23
HETATM   23  C2  UNL     1      25.401  18.104  10.948  1.00  0.00     0.270 C 
HETATM   24  C1  UNL     1      26.370  19.200  11.355  1.00  0.00     0.050 C 
BRANCH  23  25
HETATM   25  N1  UNL     1      24.658  18.580   9.806  1.00  0.00    -0.067 N 
ATOM     26  H13 UNL     1      24.324  19.537   9.920  1.00  0.00     0.275 HD
ATOM     27  H12 UNL     1      25.246  18.740   8.988  1.00  0.00     0.275 HD
ATOM     28  H11 UNL     1      23.905  17.915   9.629  1.00  0.00     0.275 HD
ENDBRANCH  23  25
ENDBRANCH  20  23
ENDBRANCH  17  19
ENDBRANCH  15  17
ENDBRANCH  14  15
ENDBRANCH   1  14
BRANCH   2  29
HETATM   29  N4  UNL     1      23.366  11.642   6.752  1.00  0.00    -0.043 N 
ATOM     30  H43 UNL     1      22.468  11.234   6.489  1.00  0.00     0.278 HD
ATOM     31  H42 UNL     1      23.227  12.585   6.386  1.00  0.00     0.278 HD
ATOM     32  H41 UNL     1      24.139  11.173   6.280  1.00  0.00     0.278 HD
ENDBRANCH   2  29
BRANCH   9  33
HETATM   33  O3  UNL     1      26.791   6.754  10.676  1.00  0.00    -0.288 OA
ATOM     34  H3  UNL     1      27.087   6.640  11.571  1.00  0.00     0.244 HD
ENDBRANCH   9  33
TORSDOF 8
ENDMDL
MODEL 3
REMARK VINA RESULT: -7.881776898      0.972      1.046
REMARK  8 active torsions:
REMARK  status: ('A' for Active; 'I' for Inactive)
REMARK    1  A    between atoms: C2_2  and  N1_3 
REMARK    2  A    between atoms: C2_2  and  C3_7 
REMARK       I    between atoms: C3_7  and  N2_9 
REMARK    3  A    between atoms: N2_9  and  C4_11 
REMARK    4  A    between atoms: C4_11  and  C6_13 
REMARK    5  A    between atoms: C6_13  and  O2_15 
REMARK    6  A    between atoms: O2_15  and  N3_16 
REMARK    7  A    between atoms: C8_17  and  N4_18 
REMARK    8  A    between atoms: N8_28  and  O3_30 
ROOT
HETATM    1  N3  UNL     1      25.960  15.702   8.112  1.00  0.00    -0.124 NA
HETATM    2  C8  UNL     1      26.267  16.139   6.799  1.00  0.00     0.389 C 
HETATM    3  N5  UNL     1      27.441  16.913   6.615  1.00  0.00    -0.323 N 
ATOM      4  H5  UNL     1      27.753  17.079   5.657  1.00  0.00     0.165 HD
HETATM    5  C9  UNL     1      28.129  17.414   7.550  1.00  0.00     0.196 C 
HETATM    6  N6  UNL     1      29.308  18.192   7.346  1.00  0.00    -0.063 NA
HETATM    7  N7  UNL     1      27.709  17.187   8.897  1.00  0.00    -0.289 N 
HETATM    8  C10 UNL     1      28.069  17.839  10.108  1.00  0.00     0.107 C 
HETATM    9  N8  UNL     1      29.217  18.424  10.354  1.00  0.00    -0.257 N 
ATOM     10  H8  UNL     1      29.963  18.450   9.658  1.00  0.00     0.195 HD
HETATM   11  C11 UNL     1      26.902  17.721  11.014  1.00  0.00     0.082 C 
HETATM   12  C12 UNL     1      25.978  16.747  10.331  1.00  0.00     0.051 C 
HETATM   13  C13 UNL     1      26.782  16.153   9.177  1.00  0.00     0.199 C 
ENDROOT
BRANCH   1  14
HETATM   14  O2  UNL     1      25.715  14.392   8.118  1.00  0.00    -0.291 OA
BRANCH  14  15
HETATM   15  C6  UNL     1      24.369  14.075   7.999  1.00  0.00     0.164 C 
HETATM   16  C7  UNL     1      24.039  13.489   6.646  1.00  0.00     0.044 C 
BRANCH  15  17
HETATM   17  C4  UNL     1      24.042  13.020   9.034  1.00  0.00     0.111 C 
HETATM   18  C5  UNL     1      22.533  12.861   9.057  1.00  0.00     0.035 C 
BRANCH  17  19
HETATM   19  N2  UNL     1      24.606  11.738   8.704  1.00  0.00    -0.353 N 
HETATM   20  C3  UNL     1      24.840  10.724   9.676  1.00  0.00     0.248 C 
HETATM   21  O1  UNL     1      24.566  10.886  10.893  1.00  0.00    -0.271 OA
ATOM     22  H2  UNL     1      24.850  11.546   7.732  1.00  0.00     0.163 HD
BRANCH  20  23
HETATM   23  C2  UNL     1      25.423   9.420   9.282  1.00  0.00     0.270 C 
HETATM   24  C1  UNL     1      26.934   9.485   9.412  1.00  0.00     0.050 C 
BRANCH  23  25
HETATM   25  N1  UNL     1      24.951   8.395  10.181  1.00  0.00    -0.067 N 
ATOM     26  H13 UNL     1      25.639   7.658  10.340  1.00  0.00     0.275 HD
ATOM     27  H12 UNL     1      24.876   8.717  11.146  1.00  0.00     0.275 HD
ATOM     28  H11 UNL     1      24.069   8.041   9.810  1.00  0.00     0.275 HD
ENDBRANCH  23  25
ENDBRANCH  20  23
ENDBRANCH  17  19
ENDBRANCH  15  17
ENDBRANCH  14  15
ENDBRANCH   1  14
BRANCH   2  29
HETATM   29  N4  UNL     1      25.161  16.908   6.200  1.00  0.00    -0.043 N 
ATOM     30  H43 UNL     1      24.321  16.859   6.778  1.00  0.00     0.278 HD
ATOM     31  H42 UNL     1      25.335  17.911   6.254  1.00  0.00     0.278 HD
ATOM     32  H41 UNL     1      24.969  16.617   5.242  1.00  0.00     0.278 HD
ENDBRANCH   2  29
BRANCH   9  33
HETATM   33  O3  UNL     1      29.369  18.995  11.582  1.00  0.00    -0.288 OA
ATOM     34  H3  UNL     1      30.204  19.410  11.765  1.00  0.00     0.244 HD
ENDBRANCH   9  33
TORSDOF 8
ENDMDL
MODEL 4
REMARK VINA RESULT: -7.710460074      1.831      2.480
REMARK  8 active torsions:
REMARK  status: ('A' for Active; 'I' for Inactive)
REMARK    1  A    between atoms: C2_2  and  N1_3 
REMARK    2  A    between atoms: C2_2  and  C3_7 
REMARK       I    between atoms: C3_7  and  N2_9 
REMARK    3  A    between atoms: N2_9  and  C4_11 
REMARK    4  A    between atoms: C4_11  and  C6_13 
REMARK    5  A    between atoms: C6_13  and  O2_15 
REMARK    6  A    between atoms: O2_15  and  N3_16 
REMARK    7  A    between atoms: C8_17  and  N4_18 
REMARK    8  A    between atoms: N8_28  and  O3_30 
ROOT
HETATM    1  N3  UNL     1      25.242  15.690   6.891  1.00  0.00    -0.124 NA
HETATM    2  C8  UNL     1      25.342  16.547   5.766  1.00  0.00     0.389 C 
HETATM    3  N5  UNL     1      26.562  17.243   5.569  1.00  0.00    -0.323 N 
ATOM      4  H5  UNL     1      26.696  17.718   4.676  1.00  0.00     0.165 HD
HETATM    5  C9  UNL     1      27.495  17.318   6.418  1.00  0.00     0.196 C 
HETATM    6  N6  UNL     1      28.716  18.024   6.203  1.00  0.00    -0.063 NA
HETATM    7  N7  UNL     1      27.325  16.654   7.672  1.00  0.00    -0.289 N 
HETATM    8  C10 UNL     1      28.022  16.794   8.904  1.00  0.00     0.107 C 
HETATM    9  N8  UNL     1      29.273  17.161   9.042  1.00  0.00    -0.257 N 
ATOM     10  H8  UNL     1      29.857  17.379   8.234  1.00  0.00     0.195 HD
HETATM   11  C11 UNL     1      27.058  16.447   9.975  1.00  0.00     0.082 C 
HETATM   12  C12 UNL     1      25.873  15.859   9.255  1.00  0.00     0.051 C 
HETATM   13  C13 UNL     1      26.322  15.662   7.809  1.00  0.00     0.199 C 
ENDROOT
BRANCH   1  14
HETATM   14  O2  UNL     1      24.799  14.489   6.520  1.00  0.00    -0.291 OA
BRANCH  14  15
HETATM   15  C6  UNL     1      24.283  13.736   7.566  1.00  0.00     0.164 C 
HETATM   16  C7  UNL     1      22.815  14.011   7.796  1.00  0.00     0.044 C 
BRANCH  15  17
HETATM   17  C4  UNL     1      24.411  12.274   7.199  1.00  0.00     0.111 C 
HETATM   18  C5  UNL     1      25.066  12.206   5.832  1.00  0.00     0.035 C 
BRANCH  17  19
HETATM   19  N2  UNL     1      25.253  11.552   8.117  1.00  0.00    -0.353 N 
HETATM   20  C3  UNL     1      24.796  10.429   8.864  1.00  0.00     0.248 C 
HETATM   21  O1  UNL     1      23.620   9.994   8.768  1.00  0.00    -0.271 OA
ATOM     22  H2  UNL     1      26.219  11.858   8.239  1.00  0.00     0.163 HD
BRANCH  20  23
HETATM   23  C2  UNL     1      25.705   9.722   9.796  1.00  0.00     0.270 C 
HETATM   24  C1  UNL     1      25.183   8.317  10.039  1.00  0.00     0.050 C 
BRANCH  23  25
HETATM   25  N1  UNL     1      27.011   9.604   9.193  1.00  0.00    -0.067 N 
ATOM     26  H13 UNL     1      27.632   8.980   9.708  1.00  0.00     0.275 HD
ATOM     27  H12 UNL     1      26.998   9.086   8.315  1.00  0.00     0.275 HD
ATOM     28  H11 UNL     1      27.390  10.546   9.092  1.00  0.00     0.275 HD
ENDBRANCH  23  25
ENDBRANCH  20  23
ENDBRANCH  17  19
ENDBRANCH  15  17
ENDBRANCH  14  15
ENDBRANCH   1  14
BRANCH   2  29
HETATM   29  N4  UNL     1      24.274  17.562   5.748  1.00  0.00    -0.043 N 
ATOM     30  H43 UNL     1      23.415  17.188   5.344  1.00  0.00     0.278 HD
ATOM     31  H42 UNL     1      23.935  17.761   6.690  1.00  0.00     0.278 HD
ATOM     32  H41 UNL     1      24.566  18.415   5.273  1.00  0.00     0.278 HD
ENDBRANCH   2  29
BRANCH   9  33
HETATM   33  O3  UNL     1      29.759  17.237  10.313  1.00  0.00    -0.288 OA
ATOM     34  H3  UNL     1      30.641  16.915  10.458  1.00  0.00     0.244 HD
ENDBRANCH   9  33
TORSDOF 8
ENDMDL
MODEL 5
REMARK VINA RESULT: -7.599743152      2.775      7.221
REMARK  8 active torsions:
REMARK  status: ('A' for Active; 'I' for Inactive)
REMARK    1  A    between atoms: C2_2  and  N1_3 
REMARK    2  A    between atoms: C2_2  and  C3_7 
REMARK       I    between atoms: C3_7  and  N2_9 
REMARK    3  A    between atoms: N2_9  and  C4_11 
REMARK    4  A    between atoms: C4_11  and  C6_13 
REMARK    5  A    between atoms: C6_13  and  O2_15 
REMARK    6  A    between atoms: O2_15  and  N3_16 
REMARK    7  A    between atoms: C8_17  and  N4_18 
REMARK    8  A    between atoms: N8_28  and  O3_30 
ROOT
HETATM    1  N3  UNL     1      25.661  13.684   7.652  1.00  0.00    -0.124 NA
HETATM    2  C8  UNL     1      24.501  14.339   7.169  1.00  0.00     0.389 C 
HETATM    3  N5  UNL     1      23.253  13.991   7.747  1.00  0.00    -0.323 N 
ATOM      4  H5  UNL     1      22.449  14.579   7.526  1.00  0.00     0.165 HD
HETATM    5  C9  UNL     1      23.065  13.006   8.516  1.00  0.00     0.196 C 
HETATM    6  N6  UNL     1      21.801  12.669   9.088  1.00  0.00    -0.063 NA
HETATM    7  N7  UNL     1      24.181  12.175   8.839  1.00  0.00    -0.289 N 
HETATM    8  C10 UNL     1      24.241  10.870   9.401  1.00  0.00     0.107 C 
HETATM    9  N8  UNL     1      23.359  10.342  10.216  1.00  0.00    -0.257 N 
ATOM     10  H8  UNL     1      22.532  10.861  10.515  1.00  0.00     0.195 HD
HETATM   11  C11 UNL     1      25.481  10.244   8.884  1.00  0.00     0.082 C 
HETATM   12  C12 UNL     1      26.231  11.366   8.215  1.00  0.00     0.051 C 
HETATM   13  C13 UNL     1      25.497  12.646   8.605  1.00  0.00     0.199 C 
ENDROOT
BRANCH   1  14
HETATM   14  O2  UNL     1      26.601  14.577   7.963  1.00  0.00    -0.291 OA
BRANCH  14  15
HETATM   15  C6  UNL     1      26.095  15.824   8.307  1.00  0.00     0.164 C 
HETATM   16  C7  UNL     1      26.249  16.114   9.782  1.00  0.00     0.044 C 
BRANCH  15  17
HETATM   17  C4  UNL     1      26.887  16.874   7.559  1.00  0.00     0.111 C 
HETATM   18  C5  UNL     1      28.337  16.426   7.550  1.00  0.00     0.035 C 
BRANCH  17  19
HETATM   19  N2  UNL     1      26.466  17.003   6.189  1.00  0.00    -0.353 N 
HETATM   20  C3  UNL     1      25.429  17.889   5.781  1.00  0.00     0.248 C 
HETATM   21  O1  UNL     1      24.811  18.620   6.597  1.00  0.00    -0.271 OA
ATOM     22  H2  UNL     1      26.930  16.436   5.479  1.00  0.00     0.163 HD
BRANCH  20  23
HETATM   23  C2  UNL     1      25.035  17.984   4.355  1.00  0.00     0.270 C 
HETATM   24  C1  UNL     1      25.601  16.797   3.597  1.00  0.00     0.050 C 
BRANCH  23  25
HETATM   25  N1  UNL     1      23.597  17.922   4.253  1.00  0.00    -0.067 N 
ATOM     26  H13 UNL     1      23.123  18.506   4.943  1.00  0.00     0.275 HD
ATOM     27  H12 UNL     1      23.238  18.385   3.418  1.00  0.00     0.275 HD
ATOM     28  H11 UNL     1      23.325  16.940   4.310  1.00  0.00     0.275 HD
ENDBRANCH  23  25
ENDBRANCH  20  23
ENDBRANCH  17  19
ENDBRANCH  15  17
ENDBRANCH  14  15
ENDBRANCH   1  14
BRANCH   2  29
HETATM   29  N4  UNL     1      24.345  14.182   5.712  1.00  0.00    -0.043 N 
ATOM     30  H43 UNL     1      24.078  13.228   5.469  1.00  0.00     0.278 HD
ATOM     31  H42 UNL     1      23.517  14.672   5.373  1.00  0.00     0.278 HD
ATOM     32  H41 UNL     1      25.180  14.474   5.205  1.00  0.00     0.278 HD
ENDBRANCH   2  29
BRANCH   9  33
HETATM   33  O3  UNL     1      23.597   9.071  10.646  1.00  0.00    -0.288 OA
ATOM     34  H3  UNL     1      23.002   8.395  10.344  1.00  0.00     0.244 HD
ENDBRANCH   9  33
TORSDOF 8
ENDMDL
