MODEL 1
REMARK VINA RESULT: -9.908825098      0.000      0.000
REMARK  7 active torsions:
REMARK  status: ('A' for Active; 'I' for Inactive)
REMARK    1  A    between atoms: C6_9  and  S1_10 
REMARK    2  A    between atoms: S1_10  and  N2_13 
REMARK       I    between atoms: N2_13  and  C7_15 
REMARK       I    between atoms: C7_15  and  N3_17 
REMARK    3  A    between atoms: N3_17  and  C8_19 
REMARK    4  A    between atoms: C8_19  and  C9_20 
REMARK    5  A    between atoms: C9_20  and  C10_21 
REMARK    6  A    between atoms: C10_21  and  C11_22 
REMARK    7  A    between atoms: N5_35  and  C20_36 
ROOT
HETATM    1  C1  UNL     1      14.700  23.738  18.400  1.00  0.00     0.042 C 
HETATM    2  C2  UNL     1      14.698  22.300  17.859  1.00  0.00     0.176 C 
HETATM    3  C3  UNL     1      14.919  22.431  16.393  1.00  0.00     0.244 C 
HETATM    4  O1  UNL     1      13.993  21.977  15.671  1.00  0.00    -0.271 OA
HETATM    5  N1  UNL     1      16.049  23.006  15.744  1.00  0.00    -0.324 N 
ATOM      6  H1  UNL     1      15.895  23.320  14.786  1.00  0.00     0.169 HD
HETATM    7  C4  UNL     1      17.367  23.201  16.252  1.00  0.00     0.052 A 
HETATM    8  C5  UNL     1      18.168  23.972  15.424  1.00  0.00     0.055 A 
HETATM    9  C6  UNL     1      19.467  24.233  15.802  1.00  0.00     0.082 A 
HETATM   10  C16 UNL     1      19.921  23.707  17.009  1.00  0.00     0.026 A 
HETATM   11  C17 UNL     1      19.136  22.945  17.831  1.00  0.00     0.021 A 
HETATM   12  C18 UNL     1      17.844  22.682  17.461  1.00  0.00     0.059 A 
HETATM   13  C19 UNL     1      17.131  21.867  18.415  1.00  0.00     0.257 C 
HETATM   14  O5  UNL     1      17.818  21.393  19.372  1.00  0.00    -0.267 OA
HETATM   15  N5  UNL     1      15.743  21.505  18.449  1.00  0.00    -0.330 N 
ENDROOT
BRANCH   9  16
HETATM   16  S1  UNL     1      20.536  25.195  14.811  1.00  0.00     0.266 S 
HETATM   17  O2  UNL     1      21.628  24.321  14.274  1.00  0.00    -0.200 OA
HETATM   18  O3  UNL     1      19.721  25.633  13.601  1.00  0.00    -0.200 OA
BRANCH  16  19
HETATM   19  N2  UNL     1      21.158  26.568  15.628  1.00  0.00    -0.232 N 
HETATM   20  C7  UNL     1      22.570  26.714  15.824  1.00  0.00     0.333 C 
HETATM   21  O4  UNL     1      23.285  25.809  15.376  1.00  0.00    -0.246 OA
HETATM   22  N3  UNL     1      23.069  27.835  16.491  1.00  0.00    -0.322 N 
ATOM     23  H3  UNL     1      22.345  28.475  16.815  1.00  0.00     0.169 HD
ATOM     24  H2  UNL     1      20.520  27.284  15.976  1.00  0.00     0.183 HD
BRANCH  22  25
HETATM   25  C8  UNL     1      24.380  28.253  16.803  1.00  0.00     0.065 C 
BRANCH  25  26
HETATM   26  C9  UNL     1      25.163  27.637  17.890  1.00  0.00     0.045 C 
BRANCH  26  27
HETATM   27  C10 UNL     1      25.971  26.464  17.531  1.00  0.00     0.010 C 
BRANCH  27  28
HETATM   28  C11 UNL     1      26.178  25.530  18.746  1.00  0.00    -0.011 C 
HETATM   29  C12 UNL     1      24.972  25.526  19.622  1.00  0.00     0.032 C 
HETATM   30  C13 UNL     1      24.854  24.264  20.410  1.00  0.00     0.232 C 
HETATM   31  N4  UNL     1      24.851  23.150  19.461  1.00  0.00    -0.075 N 
HETATM   32  C14 UNL     1      26.240  23.022  19.025  1.00  0.00     0.232 C 
ATOM     33  H42 UNL     1      24.454  22.288  19.836  1.00  0.00     0.277 HD
ATOM     34  H41 UNL     1      24.186  23.261  18.695  1.00  0.00     0.277 HD
HETATM   35  C15 UNL     1      26.573  24.208  18.182  1.00  0.00     0.032 C 
ENDBRANCH  27  28
ENDBRANCH  26  27
ENDBRANCH  25  26
ENDBRANCH  22  25
ENDBRANCH  16  19
ENDBRANCH   9  16
BRANCH  15  36
HETATM   36  C20 UNL     1      15.389  20.259  19.130  1.00  0.00     0.088 C 
HETATM   37  C21 UNL     1      14.740  19.266  18.238  1.00  0.00     0.025 C 
HETATM   38  C22 UNL     1      13.265  19.148  18.286  1.00  0.00     0.002 C 
HETATM   39  C23 UNL     1      12.659  18.925  19.631  1.00  0.00     0.000 C 
HETATM   40  C24 UNL     1      13.584  18.259  20.594  1.00  0.00     0.000 C 
HETATM   41  C25 UNL     1      14.634  19.155  21.157  1.00  0.00     0.002 C 
HETATM   42  C26 UNL     1      14.722  20.487  20.453  1.00  0.00     0.025 C 
ENDBRANCH  15  36
TORSDOF 7
ENDMDL
MODEL 2
REMARK VINA RESULT: -9.874483112      4.540     12.077
REMARK  7 active torsions:
REMARK  status: ('A' for Active; 'I' for Inactive)
REMARK    1  A    between atoms: C6_9  and  S1_10 
REMARK    2  A    between atoms: S1_10  and  N2_13 
REMARK       I    between atoms: N2_13  and  C7_15 
REMARK       I    between atoms: C7_15  and  N3_17 
REMARK    3  A    between atoms: N3_17  and  C8_19 
REMARK    4  A    between atoms: C8_19  and  C9_20 
REMARK    5  A    between atoms: C9_20  and  C10_21 
REMARK    6  A    between atoms: C10_21  and  C11_22 
REMARK    7  A    between atoms: N5_35  and  C20_36 
ROOT
HETATM    1  C1  UNL     1      16.211  25.067  18.500  1.00  0.00     0.042 C 
HETATM    2  C2  UNL     1      17.606  24.482  18.228  1.00  0.00     0.176 C 
HETATM    3  C3  UNL     1      17.914  23.634  19.411  1.00  0.00     0.244 C 
HETATM    4  O1  UNL     1      18.934  23.978  20.063  1.00  0.00    -0.271 OA
HETATM    5  N1  UNL     1      17.184  22.498  19.866  1.00  0.00    -0.324 N 
ATOM      6  H1  UNL     1      17.319  22.251  20.847  1.00  0.00     0.169 HD
HETATM    7  C4  UNL     1      16.291  21.661  19.137  1.00  0.00     0.052 A 
HETATM    8  C5  UNL     1      15.596  20.766  19.938  1.00  0.00     0.055 A 
HETATM    9  C6  UNL     1      14.702  19.898  19.352  1.00  0.00     0.082 A 
HETATM   10  C16 UNL     1      14.532  19.958  17.971  1.00  0.00     0.026 A 
HETATM   11  C17 UNL     1      15.213  20.838  17.175  1.00  0.00     0.021 A 
HETATM   12  C18 UNL     1      16.104  21.704  17.751  1.00  0.00     0.059 A 
HETATM   13  C19 UNL     1      16.755  22.572  16.799  1.00  0.00     0.257 C 
HETATM   14  O5  UNL     1      16.530  22.328  15.573  1.00  0.00    -0.267 OA
HETATM   15  N5  UNL     1      17.629  23.686  17.028  1.00  0.00    -0.330 N 
ENDROOT
BRANCH   9  16
HETATM   16  S1  UNL     1      13.791  18.743  20.295  1.00  0.00     0.266 S 
HETATM   17  O2  UNL     1      14.593  17.486  20.440  1.00  0.00    -0.200 OA
HETATM   18  O3  UNL     1      13.678  19.328  21.697  1.00  0.00    -0.200 OA
BRANCH  16  19
HETATM   19  N2  UNL     1      12.229  18.437  19.659  1.00  0.00    -0.232 N 
HETATM   20  C7  UNL     1      12.008  17.313  18.797  1.00  0.00     0.333 C 
HETATM   21  O4  UNL     1      12.991  16.603  18.554  1.00  0.00    -0.246 OA
HETATM   22  N3  UNL     1      10.733  17.069  18.283  1.00  0.00    -0.322 N 
ATOM     23  H3  UNL     1      10.038  17.762  18.563  1.00  0.00     0.169 HD
ATOM     24  H2  UNL     1      11.453  19.056  19.894  1.00  0.00     0.183 HD
BRANCH  22  25
HETATM   25  C8  UNL     1      10.219  16.052  17.450  1.00  0.00     0.065 C 
BRANCH  25  26
HETATM   26  C9  UNL     1      10.505  16.002  16.004  1.00  0.00     0.045 C 
BRANCH  26  27
HETATM   27  C10 UNL     1       9.805  14.965  15.235  1.00  0.00     0.010 C 
BRANCH  27  28
HETATM   28  C11 UNL     1      10.014  15.154  13.714  1.00  0.00    -0.011 C 
HETATM   29  C12 UNL     1       8.762  15.637  13.065  1.00  0.00     0.032 C 
HETATM   30  C13 UNL     1       9.036  16.393  11.808  1.00  0.00     0.232 C 
HETATM   31  N4  UNL     1       9.944  17.492  12.143  1.00  0.00    -0.075 N 
HETATM   32  C14 UNL     1      11.249  16.860  12.324  1.00  0.00     0.232 C 
ATOM     33  H42 UNL     1       9.942  18.252  11.463  1.00  0.00     0.277 HD
ATOM     34  H41 UNL     1       9.640  18.049  12.942  1.00  0.00     0.277 HD
HETATM   35  C15 UNL     1      11.201  16.043  13.572  1.00  0.00     0.032 C 
ENDBRANCH  27  28
ENDBRANCH  26  27
ENDBRANCH  25  26
ENDBRANCH  22  25
ENDBRANCH  16  19
ENDBRANCH   9  16
BRANCH  15  36
HETATM   36  C20 UNL     1      18.585  24.020  15.972  1.00  0.00     0.088 C 
HETATM   37  C21 UNL     1      20.000  23.903  16.402  1.00  0.00     0.025 C 
HETATM   38  C22 UNL     1      20.718  25.142  16.779  1.00  0.00     0.002 C 
HETATM   39  C23 UNL     1      20.699  26.251  15.781  1.00  0.00     0.000 C 
HETATM   40  C24 UNL     1      20.523  25.780  14.376  1.00  0.00     0.000 C 
HETATM   41  C25 UNL     1      19.130  25.378  14.033  1.00  0.00     0.002 C 
HETATM   42  C26 UNL     1      18.224  25.276  15.237  1.00  0.00     0.025 C 
ENDBRANCH  15  36
TORSDOF 7
ENDMDL
MODEL 3
REMARK VINA RESULT: -9.857481121      4.858     12.920
REMARK  7 active torsions:
REMARK  status: ('A' for Active; 'I' for Inactive)
REMARK    1  A    between atoms: C6_9  and  S1_10 
REMARK    2  A    between atoms: S1_10  and  N2_13 
REMARK       I    between atoms: N2_13  and  C7_15 
REMARK       I    between atoms: C7_15  and  N3_17 
REMARK    3  A    between atoms: N3_17  and  C8_19 
REMARK    4  A    between atoms: C8_19  and  C9_20 
REMARK    5  A    between atoms: C9_20  and  C10_21 
REMARK    6  A    between atoms: C10_21  and  C11_22 
REMARK    7  A    between atoms: N5_35  and  C20_36 
ROOT
HETATM    1  C1  UNL     1      16.233  24.934  18.507  1.00  0.00     0.042 C 
HETATM    2  C2  UNL     1      17.614  24.342  18.185  1.00  0.00     0.176 C 
HETATM    3  C3  UNL     1      17.905  23.396  19.296  1.00  0.00     0.244 C 
HETATM    4  O1  UNL     1      18.934  23.665  19.970  1.00  0.00    -0.271 OA
HETATM    5  N1  UNL     1      17.152  22.243  19.661  1.00  0.00    -0.324 N 
ATOM      6  H1  UNL     1      17.283  21.916  20.619  1.00  0.00     0.169 HD
HETATM    7  C4  UNL     1      16.239  21.486  18.871  1.00  0.00     0.052 A 
HETATM    8  C5  UNL     1      15.527  20.546  19.599  1.00  0.00     0.055 A 
HETATM    9  C6  UNL     1      14.612  19.747  18.949  1.00  0.00     0.082 A 
HETATM   10  C16 UNL     1      14.442  19.921  17.578  1.00  0.00     0.026 A 
HETATM   11  C17 UNL     1      15.140  20.846  16.852  1.00  0.00     0.021 A 
HETATM   12  C18 UNL     1      16.051  21.644  17.492  1.00  0.00     0.059 A 
HETATM   13  C19 UNL     1      16.719  22.571  16.611  1.00  0.00     0.257 C 
HETATM   14  O5  UNL     1      16.488  22.431  15.370  1.00  0.00    -0.267 OA
HETATM   15  N5  UNL     1      17.618  23.644  16.926  1.00  0.00    -0.330 N 
ENDROOT
BRANCH   9  16
HETATM   16  S1  UNL     1      13.678  18.541  19.800  1.00  0.00     0.266 S 
HETATM   17  O2  UNL     1      14.476  18.031  20.961  1.00  0.00    -0.200 OA
HETATM   18  O3  UNL     1      12.485  19.270  20.404  1.00  0.00    -0.200 OA
BRANCH  16  19
HETATM   19  N2  UNL     1      13.138  17.268  18.786  1.00  0.00    -0.232 N 
HETATM   20  C7  UNL     1      11.761  17.191  18.397  1.00  0.00     0.333 C 
HETATM   21  O4  UNL     1      11.014  18.077  18.830  1.00  0.00    -0.246 OA
HETATM   22  N3  UNL     1      11.328  16.152  17.571  1.00  0.00    -0.322 N 
ATOM     23  H3  UNL     1      12.065  15.492  17.320  1.00  0.00     0.169 HD
ATOM     24  H2  UNL     1      13.799  16.564  18.457  1.00  0.00     0.183 HD
BRANCH  22  25
HETATM   25  C8  UNL     1      10.069  15.836  17.016  1.00  0.00     0.065 C 
BRANCH  25  26
HETATM   26  C9  UNL     1       9.520  14.467  17.042  1.00  0.00     0.045 C 
BRANCH  26  27
HETATM   27  C10 UNL     1       9.162  13.931  18.362  1.00  0.00     0.010 C 
BRANCH  27  28
HETATM   28  C11 UNL     1       7.629  13.913  18.566  1.00  0.00    -0.011 C 
HETATM   29  C12 UNL     1       7.205  15.002  19.490  1.00  0.00     0.032 C 
HETATM   30  C13 UNL     1       5.791  15.419  19.256  1.00  0.00     0.232 C 
HETATM   31  N4  UNL     1       5.674  15.810  17.851  1.00  0.00    -0.075 N 
HETATM   32  C14 UNL     1       5.670  14.552  17.109  1.00  0.00     0.232 C 
ATOM     33  H42 UNL     1       4.871  16.409  17.654  1.00  0.00     0.277 HD
ATOM     34  H41 UNL     1       6.389  16.469  17.544  1.00  0.00     0.277 HD
HETATM   35  C15 UNL     1       7.035  13.955  17.200  1.00  0.00     0.032 C 
ENDBRANCH  27  28
ENDBRANCH  26  27
ENDBRANCH  25  26
ENDBRANCH  22  25
ENDBRANCH  16  19
ENDBRANCH   9  16
BRANCH  15  36
HETATM   36  C20 UNL     1      18.579  24.041  15.897  1.00  0.00     0.088 C 
HETATM   37  C21 UNL     1      19.990  23.961  16.348  1.00  0.00     0.025 C 
HETATM   38  C22 UNL     1      20.658  25.213  16.773  1.00  0.00     0.002 C 
HETATM   39  C23 UNL     1      20.618  26.348  15.806  1.00  0.00     0.000 C 
HETATM   40  C24 UNL     1      20.482  25.912  14.385  1.00  0.00     0.000 C 
HETATM   41  C25 UNL     1      19.109  25.471  14.006  1.00  0.00     0.002 C 
HETATM   42  C26 UNL     1      18.188  25.305  15.190  1.00  0.00     0.025 C 
ENDBRANCH  15  36
TORSDOF 7
ENDMDL
MODEL 4
REMARK VINA RESULT: -9.829084663      5.075     12.812
REMARK  7 active torsions:
REMARK  status: ('A' for Active; 'I' for Inactive)
REMARK    1  A    between atoms: C6_9  and  S1_10 
REMARK    2  A    between atoms: S1_10  and  N2_13 
REMARK       I    between atoms: N2_13  and  C7_15 
REMARK       I    between atoms: C7_15  and  N3_17 
REMARK    3  A    between atoms: N3_17  and  C8_19 
REMARK    4  A    between atoms: C8_19  and  C9_20 
REMARK    5  A    between atoms: C9_20  and  C10_21 
REMARK    6  A    between atoms: C10_21  and  C11_22 
REMARK    7  A    between atoms: N5_35  and  C20_36 
ROOT
HETATM    1  C1  UNL     1      16.202  25.125  18.446  1.00  0.00     0.042 C 
HETATM    2  C2  UNL     1      17.615  24.564  18.225  1.00  0.00     0.176 C 
HETATM    3  C3  UNL     1      17.919  23.771  19.446  1.00  0.00     0.244 C 
HETATM    4  O1  UNL     1      18.918  24.165  20.104  1.00  0.00    -0.271 OA
HETATM    5  N1  UNL     1      17.208  22.636  19.932  1.00  0.00    -0.324 N 
ATOM      6  H1  UNL     1      17.329  22.431  20.924  1.00  0.00     0.169 HD
HETATM    7  C4  UNL     1      16.350  21.749  19.220  1.00  0.00     0.052 A 
HETATM    8  C5  UNL     1      15.660  20.870  20.042  1.00  0.00     0.055 A 
HETATM    9  C6  UNL     1      14.798  19.958  19.474  1.00  0.00     0.082 A 
HETATM   10  C16 UNL     1      14.655  19.960  18.089  1.00  0.00     0.026 A 
HETATM   11  C17 UNL     1      15.330  20.824  17.272  1.00  0.00     0.021 A 
HETATM   12  C18 UNL     1      16.189  21.733  17.829  1.00  0.00     0.059 A 
HETATM   13  C19 UNL     1      16.838  22.579  16.857  1.00  0.00     0.257 C 
HETATM   14  O5  UNL     1      16.644  22.282  15.637  1.00  0.00    -0.267 OA
HETATM   15  N5  UNL     1      17.681  23.722  17.058  1.00  0.00    -0.330 N 
ENDROOT
BRANCH   9  16
HETATM   16  S1  UNL     1      13.897  18.819  20.445  1.00  0.00     0.266 S 
HETATM   17  O2  UNL     1      14.698  17.562  20.598  1.00  0.00    -0.200 OA
HETATM   18  O3  UNL     1      13.802  19.424  21.839  1.00  0.00    -0.200 OA
BRANCH  16  19
HETATM   19  N2  UNL     1      12.326  18.507  19.832  1.00  0.00    -0.232 N 
HETATM   20  C7  UNL     1      12.117  17.454  18.883  1.00  0.00     0.333 C 
HETATM   21  O4  UNL     1      13.117  16.806  18.549  1.00  0.00    -0.246 OA
HETATM   22  N3  UNL     1      10.835  17.206  18.389  1.00  0.00    -0.322 N 
ATOM     23  H3  UNL     1      10.126  17.843  18.749  1.00  0.00     0.169 HD
ATOM     24  H2  UNL     1      11.537  19.074  20.144  1.00  0.00     0.183 HD
BRANCH  22  25
HETATM   25  C8  UNL     1      10.330  16.244  17.487  1.00  0.00     0.065 C 
BRANCH  25  26
HETATM   26  C9  UNL     1       9.958  14.884  17.917  1.00  0.00     0.045 C 
BRANCH  26  27
HETATM   27  C10 UNL     1       8.522  14.573  17.932  1.00  0.00     0.010 C 
BRANCH  27  28
HETATM   28  C11 UNL     1       8.161  13.528  16.850  1.00  0.00    -0.011 C 
HETATM   29  C12 UNL     1       9.386  13.045  16.153  1.00  0.00     0.032 C 
HETATM   30  C13 UNL     1       9.204  11.678  15.580  1.00  0.00     0.232 C 
HETATM   31  N4  UNL     1       8.804  10.792  16.674  1.00  0.00    -0.075 N 
HETATM   32  C14 UNL     1       7.406  11.122  16.935  1.00  0.00     0.232 C 
ATOM     33  H42 UNL     1       8.967   9.802  16.485  1.00  0.00     0.277 HD
ATOM     34  H41 UNL     1       9.404  10.853  17.496  1.00  0.00     0.277 HD
HETATM   35  C15 UNL     1       7.355  12.483  17.543  1.00  0.00     0.032 C 
ENDBRANCH  27  28
ENDBRANCH  26  27
ENDBRANCH  25  26
ENDBRANCH  22  25
ENDBRANCH  16  19
ENDBRANCH   9  16
BRANCH  15  36
HETATM   36  C20 UNL     1      18.649  24.038  16.008  1.00  0.00     0.088 C 
HETATM   37  C21 UNL     1      20.058  23.973  16.469  1.00  0.00     0.025 C 
HETATM   38  C22 UNL     1      20.739  25.243  16.810  1.00  0.00     0.002 C 
HETATM   39  C23 UNL     1      20.714  26.311  15.769  1.00  0.00     0.000 C 
HETATM   40  C24 UNL     1      20.577  25.781  14.381  1.00  0.00     0.000 C 
HETATM   41  C25 UNL     1      19.201  25.332  14.027  1.00  0.00     0.002 C 
HETATM   42  C26 UNL     1      18.274  25.256  15.217  1.00  0.00     0.025 C 
ENDBRANCH  15  36
TORSDOF 7
ENDMDL
MODEL 5
REMARK VINA RESULT: -9.686995269      4.704     12.321
REMARK  7 active torsions:
REMARK  status: ('A' for Active; 'I' for Inactive)
REMARK    1  A    between atoms: C6_9  and  S1_10 
REMARK    2  A    between atoms: S1_10  and  N2_13 
REMARK       I    between atoms: N2_13  and  C7_15 
REMARK       I    between atoms: C7_15  and  N3_17 
REMARK    3  A    between atoms: N3_17  and  C8_19 
REMARK    4  A    between atoms: C8_19  and  C9_20 
REMARK    5  A    between atoms: C9_20  and  C10_21 
REMARK    6  A    between atoms: C10_21  and  C11_22 
REMARK    7  A    between atoms: N5_35  and  C20_36 
ROOT
HETATM    1  C1  UNL     1      16.227  24.954  18.506  1.00  0.00     0.042 C 
HETATM    2  C2  UNL     1      17.601  24.362  18.158  1.00  0.00     0.176 C 
HETATM    3  C3  UNL     1      17.899  23.394  19.249  1.00  0.00     0.244 C 
HETATM    4  O1  UNL     1      18.936  23.646  19.916  1.00  0.00    -0.271 OA
HETATM    5  N1  UNL     1      17.144  22.239  19.600  1.00  0.00    -0.324 N 
ATOM      6  H1  UNL     1      17.283  21.893  20.550  1.00  0.00     0.169 HD
HETATM    7  C4  UNL     1      16.220  21.501  18.805  1.00  0.00     0.052 A 
HETATM    8  C5  UNL     1      15.510  20.550  19.524  1.00  0.00     0.055 A 
HETATM    9  C6  UNL     1      14.585  19.768  18.869  1.00  0.00     0.082 A 
HETATM   10  C16 UNL     1      14.400  19.969  17.503  1.00  0.00     0.026 A 
HETATM   11  C17 UNL     1      15.096  20.904  16.788  1.00  0.00     0.021 A 
HETATM   12  C18 UNL     1      16.017  21.685  17.433  1.00  0.00     0.059 A 
HETATM   13  C19 UNL     1      16.681  22.625  16.562  1.00  0.00     0.257 C 
HETATM   14  O5  UNL     1      16.435  22.509  15.320  1.00  0.00    -0.267 OA
HETATM   15  N5  UNL     1      17.588  23.688  16.886  1.00  0.00    -0.330 N 
ENDROOT
BRANCH   9  16
HETATM   16  S1  UNL     1      13.653  18.551  19.707  1.00  0.00     0.266 S 
HETATM   17  O2  UNL     1      14.463  18.011  20.847  1.00  0.00    -0.200 OA
HETATM   18  O3  UNL     1      12.474  19.275  20.342  1.00  0.00    -0.200 OA
BRANCH  16  19
HETATM   19  N2  UNL     1      13.090  17.304  18.674  1.00  0.00    -0.232 N 
HETATM   20  C7  UNL     1      11.688  17.154  18.421  1.00  0.00     0.333 C 
HETATM   21  O4  UNL     1      10.937  17.962  18.981  1.00  0.00    -0.246 OA
HETATM   22  N3  UNL     1      11.237  16.136  17.579  1.00  0.00    -0.322 N 
ATOM     23  H3  UNL     1      11.983  15.544  17.215  1.00  0.00     0.169 HD
ATOM     24  H2  UNL     1      13.756  16.666  18.238  1.00  0.00     0.183 HD
BRANCH  22  25
HETATM   25  C8  UNL     1       9.949  15.767  17.133  1.00  0.00     0.065 C 
BRANCH  25  26
HETATM   26  C9  UNL     1       9.646  14.408  16.648  1.00  0.00     0.045 C 
BRANCH  26  27
HETATM   27  C10 UNL     1       9.877  14.158  15.219  1.00  0.00     0.010 C 
BRANCH  27  28
HETATM   28  C11 UNL     1       9.726  15.453  14.388  1.00  0.00    -0.011 C 
HETATM   29  C12 UNL     1      11.004  15.792  13.701  1.00  0.00     0.032 C 
HETATM   30  C13 UNL     1      10.782  16.607  12.470  1.00  0.00     0.232 C 
HETATM   31  N4  UNL     1       9.870  15.859  11.604  1.00  0.00    -0.075 N 
HETATM   32  C14 UNL     1       8.555  16.008  12.222  1.00  0.00     0.232 C 
ATOM     33  H42 UNL     1       9.902  16.144  10.625  1.00  0.00     0.277 HD
ATOM     34  H41 UNL     1      10.148  14.889  11.451  1.00  0.00     0.277 HD
HETATM   35  C15 UNL     1       8.551  15.234  13.498  1.00  0.00     0.032 C 
ENDBRANCH  27  28
ENDBRANCH  26  27
ENDBRANCH  25  26
ENDBRANCH  22  25
ENDBRANCH  16  19
ENDBRANCH   9  16
BRANCH  15  36
HETATM   36  C20 UNL     1      18.540  24.099  15.854  1.00  0.00     0.088 C 
HETATM   37  C21 UNL     1      19.956  24.006  16.290  1.00  0.00     0.025 C 
HETATM   38  C22 UNL     1      20.632  25.248  16.730  1.00  0.00     0.002 C 
HETATM   39  C23 UNL     1      20.586  26.400  15.783  1.00  0.00     0.000 C 
HETATM   40  C24 UNL     1      20.435  25.989  14.357  1.00  0.00     0.000 C 
HETATM   41  C25 UNL     1      19.057  25.560  13.984  1.00  0.00     0.002 C 
HETATM   42  C26 UNL     1      18.147  25.376  15.175  1.00  0.00     0.025 C 
ENDBRANCH  15  36
TORSDOF 7
ENDMDL
