MODEL 1
REMARK VINA RESULT: -10.044803087      0.000      0.000
REMARK  9 active torsions:
REMARK  status: ('A' for Active; 'I' for Inactive)
REMARK    1  A    between atoms: C3_5  and  N2_6 
REMARK    2  A    between atoms: C6_13  and  C7_14 
REMARK       I    between atoms: C7_14  and  N4_16 
REMARK    3  A    between atoms: N4_16  and  C8_18 
REMARK    4  A    between atoms: C14_24  and  C15_25 
REMARK       I    between atoms: C15_25  and  N5_27 
REMARK    5  A    between atoms: C16_29  and  C17_30 
REMARK    6  A    between atoms: C17_30  and  C18_31 
REMARK    7  A    between atoms: C18_31  and  C19_32 
REMARK    8  A    between atoms: C19_32  and  N6_33 
REMARK    9  A    between atoms: C28_42  and  O3_43 
ROOT
HETATM    1  C8  UNL     1      17.364  23.054  16.627  1.00  0.00     0.038 C 
HETATM    2  C9  UNL     1      17.703  23.266  15.191  1.00  0.00     0.036 C 
HETATM    3  C10 UNL     1      18.129  24.736  15.234  1.00  0.00    -0.002 C 
HETATM    4  C11 UNL     1      16.874  25.319  15.876  1.00  0.00     0.012 C 
HETATM    5  C12 UNL     1      16.757  24.385  17.061  1.00  0.00     0.015 C 
HETATM    6  C13 UNL     1      17.736  24.911  18.099  1.00  0.00     0.027 C 
HETATM    7  C14 UNL     1      19.053  24.424  17.490  1.00  0.00     0.052 C 
HETATM    8  C24 UNL     1      18.681  22.933  17.356  1.00  0.00     0.051 C 
HETATM    9  C25 UNL     1      19.311  24.977  16.141  1.00  0.00    -0.020 C 
HETATM   10  C26 UNL     1      20.540  24.395  15.526  1.00  0.00     0.013 C 
HETATM   11  C27 UNL     1      21.363  25.393  14.771  1.00  0.00     0.032 C 
HETATM   12  C28 UNL     1      20.550  26.379  13.964  1.00  0.00     0.118 C 
HETATM   13  C29 UNL     1      19.459  27.043  14.737  1.00  0.00     0.032 C 
HETATM   14  C30 UNL     1      19.507  26.488  16.170  1.00  0.00     0.013 C 
ENDROOT
BRANCH   1  15
HETATM   15  N4  UNL     1      16.455  21.949  16.876  1.00  0.00    -0.347 N 
HETATM   16  C7  UNL     1      15.167  22.136  17.379  1.00  0.00     0.256 C 
HETATM   17  O1  UNL     1      14.752  23.315  17.621  1.00  0.00    -0.267 OA
ATOM     18  H4  UNL     1      16.769  21.000  16.676  1.00  0.00     0.163 HD
BRANCH  16  19
HETATM   19  C6  UNL     1      14.209  21.083  17.661  1.00  0.00     0.077 A 
HETATM   20  C2  UNL     1      14.217  20.453  18.918  1.00  0.00     0.040 A 
HETATM   21  C1  UNL     1      15.170  20.952  19.940  1.00  0.00     0.070 C 
HETATM   22  N1  UNL     1      13.373  19.457  19.152  1.00  0.00    -0.195 N 
HETATM   23  C3  UNL     1      12.510  19.045  18.204  1.00  0.00     0.676 A 
ATOM     24  H1  UNL     1      13.376  18.998  20.062  1.00  0.00     0.184 HD
HETATM   25  N3  UNL     1      12.494  19.636  17.002  1.00  0.00    -0.195 N 
HETATM   26  C4  UNL     1      13.338  20.669  16.691  1.00  0.00     0.040 A 
ATOM     27  H3  UNL     1      11.834  19.307  16.298  1.00  0.00     0.184 HD
HETATM   28  C5  UNL     1      13.264  21.211  15.297  1.00  0.00     0.070 C 
BRANCH  23  29
HETATM   29  N2  UNL     1      11.681  18.078  18.413  1.00  0.00    -0.234 N 
ATOM     30  H22 UNL     1      12.055  17.195  18.759  1.00  0.00     0.174 HD
ATOM     31  H21 UNL     1      10.680  18.181  18.243  1.00  0.00     0.174 HD
ENDBRANCH  23  29
ENDBRANCH  16  19
ENDBRANCH   1  15
BRANCH   7  32
HETATM   32  C15 UNL     1      20.078  24.575  18.502  1.00  0.00     0.231 C 
HETATM   33  O2  UNL     1      20.721  23.607  18.954  1.00  0.00    -0.272 OA
HETATM   34  N5  UNL     1      20.390  25.847  19.021  1.00  0.00    -0.340 N 
HETATM   35  C16 UNL     1      21.382  26.585  18.790  1.00  0.00     0.064 C 
ATOM     36  H5  UNL     1      19.712  26.225  19.682  1.00  0.00     0.167 HD
BRANCH  35  37
HETATM   37  C17 UNL     1      22.523  26.308  17.882  1.00  0.00     0.046 C 
BRANCH  37  38
HETATM   38  C18 UNL     1      22.923  27.532  17.091  1.00  0.00     0.035 C 
BRANCH  38  39
HETATM   39  C19 UNL     1      24.436  27.758  17.209  1.00  0.00     0.272 C 
BRANCH  39  40
HETATM   40  N6  UNL     1      25.115  27.015  16.200  1.00  0.00     0.088 N 
HETATM   41  C20 UNL     1      25.895  27.842  15.339  1.00  0.00     0.272 C 
HETATM   42  C21 UNL     1      27.304  27.313  15.345  1.00  0.00     0.032 C 
HETATM   43  C22 UNL     1      27.128  25.874  15.781  1.00  0.00     0.032 C 
HETATM   44  C23 UNL     1      25.986  26.031  16.778  1.00  0.00     0.272 C 
ENDBRANCH  39  40
ENDBRANCH  38  39
ENDBRANCH  37  38
ENDBRANCH  35  37
ENDBRANCH   7  32
BRANCH  12  45
HETATM   45  O3  UNL     1      21.446  27.354  13.524  1.00  0.00    -0.396 OA
ATOM     46  H3  UNL     1      21.922  26.969  12.798  1.00  0.00     0.210 HD
ENDBRANCH  12  45
TORSDOF 9
ENDMDL
MODEL 2
REMARK VINA RESULT: -10.043664500      0.093      1.369
REMARK  9 active torsions:
REMARK  status: ('A' for Active; 'I' for Inactive)
REMARK    1  A    between atoms: C3_5  and  N2_6 
REMARK    2  A    between atoms: C6_13  and  C7_14 
REMARK       I    between atoms: C7_14  and  N4_16 
REMARK    3  A    between atoms: N4_16  and  C8_18 
REMARK    4  A    between atoms: C14_24  and  C15_25 
REMARK       I    between atoms: C15_25  and  N5_27 
REMARK    5  A    between atoms: C16_29  and  C17_30 
REMARK    6  A    between atoms: C17_30  and  C18_31 
REMARK    7  A    between atoms: C18_31  and  C19_32 
REMARK    8  A    between atoms: C19_32  and  N6_33 
REMARK    9  A    between atoms: C28_42  and  O3_43 
ROOT
HETATM    1  C8  UNL     1      17.376  23.021  16.629  1.00  0.00     0.038 C 
HETATM    2  C9  UNL     1      17.719  23.249  15.196  1.00  0.00     0.036 C 
HETATM    3  C10 UNL     1      18.141  24.720  15.255  1.00  0.00    -0.002 C 
HETATM    4  C11 UNL     1      16.880  25.292  15.899  1.00  0.00     0.012 C 
HETATM    5  C12 UNL     1      16.762  24.345  17.073  1.00  0.00     0.015 C 
HETATM    6  C13 UNL     1      17.735  24.865  18.120  1.00  0.00     0.027 C 
HETATM    7  C14 UNL     1      19.056  24.389  17.512  1.00  0.00     0.052 C 
HETATM    8  C24 UNL     1      18.689  22.898  17.362  1.00  0.00     0.051 C 
HETATM    9  C25 UNL     1      19.318  24.956  16.171  1.00  0.00    -0.020 C 
HETATM   10  C26 UNL     1      20.551  24.385  15.555  1.00  0.00     0.013 C 
HETATM   11  C27 UNL     1      21.374  25.393  14.814  1.00  0.00     0.032 C 
HETATM   12  C28 UNL     1      20.561  26.385  14.013  1.00  0.00     0.118 C 
HETATM   13  C29 UNL     1      19.464  27.036  14.788  1.00  0.00     0.032 C 
HETATM   14  C30 UNL     1      19.508  26.467  16.216  1.00  0.00     0.013 C 
ENDROOT
BRANCH   1  15
HETATM   15  N4  UNL     1      16.469  21.911  16.863  1.00  0.00    -0.347 N 
HETATM   16  C7  UNL     1      15.175  22.089  17.352  1.00  0.00     0.256 C 
HETATM   17  O1  UNL     1      14.752  23.264  17.595  1.00  0.00    -0.267 OA
ATOM     18  H4  UNL     1      16.790  20.965  16.662  1.00  0.00     0.163 HD
BRANCH  16  19
HETATM   19  C6  UNL     1      14.219  21.030  17.619  1.00  0.00     0.077 A 
HETATM   20  C2  UNL     1      13.298  20.658  16.624  1.00  0.00     0.040 A 
HETATM   21  C1  UNL     1      13.394  21.325  15.302  1.00  0.00     0.070 C 
HETATM   22  N1  UNL     1      12.395  19.724  16.891  1.00  0.00    -0.195 N 
HETATM   23  C3  UNL     1      12.351  19.129  18.097  1.00  0.00     0.676 A 
ATOM     24  H1  UNL     1      11.724  19.452  16.172  1.00  0.00     0.184 HD
HETATM   25  N3  UNL     1      13.223  19.475  19.054  1.00  0.00    -0.195 N 
HETATM   26  C4  UNL     1      14.181  20.432  18.849  1.00  0.00     0.040 A 
ATOM     27  H3  UNL     1      13.172  19.012  19.961  1.00  0.00     0.184 HD
HETATM   28  C5  UNL     1      15.062  20.772  20.011  1.00  0.00     0.070 C 
BRANCH  23  29
HETATM   29  N2  UNL     1      11.480  18.217  18.376  1.00  0.00    -0.234 N 
ATOM     30  H22 UNL     1      10.714  18.072  17.718  1.00  0.00     0.174 HD
ATOM     31  H21 UNL     1      11.544  17.652  19.222  1.00  0.00     0.174 HD
ENDBRANCH  23  29
ENDBRANCH  16  19
ENDBRANCH   1  15
BRANCH   7  32
HETATM   32  C15 UNL     1      20.076  24.533  18.530  1.00  0.00     0.231 C 
HETATM   33  O2  UNL     1      20.722  23.562  18.973  1.00  0.00    -0.272 OA
HETATM   34  N5  UNL     1      20.380  25.800  19.065  1.00  0.00    -0.340 N 
HETATM   35  C16 UNL     1      21.369  26.546  18.847  1.00  0.00     0.064 C 
ATOM     36  H5  UNL     1      19.697  26.167  19.728  1.00  0.00     0.167 HD
BRANCH  35  37
HETATM   37  C17 UNL     1      22.515  26.285  17.941  1.00  0.00     0.046 C 
BRANCH  37  38
HETATM   38  C18 UNL     1      22.898  27.514  17.150  1.00  0.00     0.035 C 
BRANCH  38  39
HETATM   39  C19 UNL     1      24.412  27.744  17.244  1.00  0.00     0.272 C 
BRANCH  39  40
HETATM   40  N6  UNL     1      25.078  26.994  16.231  1.00  0.00     0.088 N 
HETATM   41  C20 UNL     1      25.828  27.817  15.341  1.00  0.00     0.272 C 
HETATM   42  C21 UNL     1      27.243  27.305  15.323  1.00  0.00     0.032 C 
HETATM   43  C22 UNL     1      27.095  25.871  15.785  1.00  0.00     0.032 C 
HETATM   44  C23 UNL     1      25.974  26.030  16.805  1.00  0.00     0.272 C 
ENDBRANCH  39  40
ENDBRANCH  38  39
ENDBRANCH  37  38
ENDBRANCH  35  37
ENDBRANCH   7  32
BRANCH  12  45
HETATM   45  O3  UNL     1      21.455  27.367  13.586  1.00  0.00    -0.396 OA
ATOM     46  H3  UNL     1      21.313  27.467  12.652  1.00  0.00     0.210 HD
ENDBRANCH  12  45
TORSDOF 9
ENDMDL
MODEL 3
REMARK VINA RESULT: -9.833989931      2.040      3.175
REMARK  9 active torsions:
REMARK  status: ('A' for Active; 'I' for Inactive)
REMARK    1  A    between atoms: C3_5  and  N2_6 
REMARK    2  A    between atoms: C6_13  and  C7_14 
REMARK       I    between atoms: C7_14  and  N4_16 
REMARK    3  A    between atoms: N4_16  and  C8_18 
REMARK    4  A    between atoms: C14_24  and  C15_25 
REMARK       I    between atoms: C15_25  and  N5_27 
REMARK    5  A    between atoms: C16_29  and  C17_30 
REMARK    6  A    between atoms: C17_30  and  C18_31 
REMARK    7  A    between atoms: C18_31  and  C19_32 
REMARK    8  A    between atoms: C19_32  and  N6_33 
REMARK    9  A    between atoms: C28_42  and  O3_43 
ROOT
HETATM    1  C8  UNL     1      15.235  21.352  17.023  1.00  0.00     0.038 C 
HETATM    2  C9  UNL     1      15.865  21.594  15.693  1.00  0.00     0.036 C 
HETATM    3  C10 UNL     1      16.303  23.050  15.868  1.00  0.00    -0.002 C 
HETATM    4  C11 UNL     1      14.954  23.649  16.258  1.00  0.00     0.012 C 
HETATM    5  C12 UNL     1      14.578  22.687  17.364  1.00  0.00     0.015 C 
HETATM    6  C13 UNL     1      15.334  23.160  18.596  1.00  0.00     0.027 C 
HETATM    7  C14 UNL     1      16.738  22.656  18.255  1.00  0.00     0.052 C 
HETATM    8  C24 UNL     1      16.371  21.180  18.001  1.00  0.00     0.051 C 
HETATM    9  C25 UNL     1      17.278  23.238  17.005  1.00  0.00    -0.020 C 
HETATM   10  C26 UNL     1      18.594  22.641  16.636  1.00  0.00     0.013 C 
HETATM   11  C27 UNL     1      19.575  23.637  16.097  1.00  0.00     0.032 C 
HETATM   12  C28 UNL     1      18.964  24.664  15.172  1.00  0.00     0.118 C 
HETATM   13  C29 UNL     1      17.751  25.335  15.725  1.00  0.00     0.032 C 
HETATM   14  C30 UNL     1      17.493  24.741  17.120  1.00  0.00     0.013 C 
ENDROOT
BRANCH   1  15
HETATM   15  N4  UNL     1      14.272  20.266  17.047  1.00  0.00    -0.347 N 
HETATM   16  C7  UNL     1      13.619  19.866  18.213  1.00  0.00     0.256 C 
HETATM   17  O1  UNL     1      13.854  20.477  19.304  1.00  0.00    -0.267 OA
ATOM     18  H4  UNL     1      14.065  19.775  16.177  1.00  0.00     0.163 HD
BRANCH  16  19
HETATM   19  C6  UNL     1      12.655  18.786  18.313  1.00  0.00     0.077 A 
HETATM   20  C2  UNL     1      13.066  17.529  18.789  1.00  0.00     0.040 A 
HETATM   21  C1  UNL     1      14.470  17.382  19.244  1.00  0.00     0.070 C 
HETATM   22  N1  UNL     1      12.191  16.532  18.831  1.00  0.00    -0.195 N 
HETATM   23  C3  UNL     1      10.920  16.710  18.426  1.00  0.00     0.676 A 
ATOM     24  H1  UNL     1      12.486  15.619  19.176  1.00  0.00     0.184 HD
HETATM   25  N3  UNL     1      10.517  17.903  17.970  1.00  0.00    -0.195 N 
HETATM   26  C4  UNL     1      11.365  18.976  17.897  1.00  0.00     0.040 A 
ATOM     27  H3  UNL     1       9.549  18.016  17.667  1.00  0.00     0.184 HD
HETATM   28  C5  UNL     1      10.813  20.241  17.317  1.00  0.00     0.070 C 
BRANCH  23  29
HETATM   29  N2  UNL     1      10.055  15.752  18.460  1.00  0.00    -0.234 N 
ATOM     30  H22 UNL     1       9.887  15.292  19.354  1.00  0.00     0.174 HD
ATOM     31  H21 UNL     1       9.546  15.457  17.627  1.00  0.00     0.174 HD
ENDBRANCH  23  29
ENDBRANCH  16  19
ENDBRANCH   1  15
BRANCH   7  32
HETATM   32  C15 UNL     1      17.536  22.754  19.459  1.00  0.00     0.231 C 
HETATM   33  O2  UNL     1      18.139  21.777  19.944  1.00  0.00    -0.272 OA
HETATM   34  N5  UNL     1      17.661  23.983  20.138  1.00  0.00    -0.340 N 
HETATM   35  C16 UNL     1      18.630  24.783  20.173  1.00  0.00     0.064 C 
ATOM     36  H5  UNL     1      16.845  24.264  20.681  1.00  0.00     0.167 HD
BRANCH  35  37
HETATM   37  C17 UNL     1      19.940  24.648  19.489  1.00  0.00     0.046 C 
BRANCH  37  38
HETATM   38  C18 UNL     1      20.734  25.933  19.533  1.00  0.00     0.035 C 
BRANCH  38  39
HETATM   39  C19 UNL     1      20.788  26.561  18.134  1.00  0.00     0.272 C 
BRANCH  39  40
HETATM   40  N6  UNL     1      22.060  27.169  17.927  1.00  0.00     0.088 N 
HETATM   41  C20 UNL     1      23.136  26.237  18.010  1.00  0.00     0.272 C 
HETATM   42  C21 UNL     1      23.935  26.343  16.739  1.00  0.00     0.032 C 
HETATM   43  C22 UNL     1      23.592  27.728  16.233  1.00  0.00     0.032 C 
HETATM   44  C23 UNL     1      22.126  27.810  16.645  1.00  0.00     0.272 C 
ENDBRANCH  39  40
ENDBRANCH  38  39
ENDBRANCH  37  38
ENDBRANCH  35  37
ENDBRANCH   7  32
BRANCH  12  45
HETATM   45  O3  UNL     1      19.950  25.627  14.954  1.00  0.00    -0.396 OA
ATOM     46  H3  UNL     1      19.502  26.465  14.927  1.00  0.00     0.210 HD
ENDBRANCH  12  45
TORSDOF 9
ENDMDL
MODEL 4
REMARK VINA RESULT: -9.778372509      2.670      3.705
REMARK  9 active torsions:
REMARK  status: ('A' for Active; 'I' for Inactive)
REMARK    1  A    between atoms: C3_5  and  N2_6 
REMARK    2  A    between atoms: C6_13  and  C7_14 
REMARK       I    between atoms: C7_14  and  N4_16 
REMARK    3  A    between atoms: N4_16  and  C8_18 
REMARK    4  A    between atoms: C14_24  and  C15_25 
REMARK       I    between atoms: C15_25  and  N5_27 
REMARK    5  A    between atoms: C16_29  and  C17_30 
REMARK    6  A    between atoms: C17_30  and  C18_31 
REMARK    7  A    between atoms: C18_31  and  C19_32 
REMARK    8  A    between atoms: C19_32  and  N6_33 
REMARK    9  A    between atoms: C28_42  and  O3_43 
ROOT
HETATM    1  C8  UNL     1      15.757  21.280  17.400  1.00  0.00     0.038 C 
HETATM    2  C9  UNL     1      16.256  21.658  16.047  1.00  0.00     0.036 C 
HETATM    3  C10 UNL     1      16.677  23.105  16.314  1.00  0.00    -0.002 C 
HETATM    4  C11 UNL     1      15.358  23.626  16.879  1.00  0.00     0.012 C 
HETATM    5  C12 UNL     1      15.108  22.558  17.921  1.00  0.00     0.015 C 
HETATM    6  C13 UNL     1      15.964  22.941  19.118  1.00  0.00     0.027 C 
HETATM    7  C14 UNL     1      17.341  22.511  18.605  1.00  0.00     0.052 C 
HETATM    8  C24 UNL     1      16.983  21.053  18.251  1.00  0.00     0.051 C 
HETATM    9  C25 UNL     1      17.750  23.218  17.371  1.00  0.00    -0.020 C 
HETATM   10  C26 UNL     1      19.039  22.696  16.830  1.00  0.00     0.013 C 
HETATM   11  C27 UNL     1      19.943  23.765  16.299  1.00  0.00     0.032 C 
HETATM   12  C28 UNL     1      19.228  24.853  15.531  1.00  0.00     0.118 C 
HETATM   13  C29 UNL     1      18.058  25.435  16.252  1.00  0.00     0.032 C 
HETATM   14  C30 UNL     1      17.943  24.711  17.604  1.00  0.00     0.013 C 
ENDROOT
BRANCH   1  15
HETATM   15  N4  UNL     1      14.824  20.167  17.411  1.00  0.00    -0.347 N 
HETATM   16  C7  UNL     1      13.799  20.056  18.351  1.00  0.00     0.256 C 
HETATM   17  O1  UNL     1      13.654  20.963  19.231  1.00  0.00    -0.267 OA
ATOM     18  H4  UNL     1      14.921  19.439  16.704  1.00  0.00     0.163 HD
BRANCH  16  19
HETATM   19  C6  UNL     1      12.838  18.971  18.428  1.00  0.00     0.077 A 
HETATM   20  C2  UNL     1      11.745  18.947  17.544  1.00  0.00     0.040 A 
HETATM   21  C1  UNL     1      11.663  20.006  16.508  1.00  0.00     0.070 C 
HETATM   22  N1  UNL     1      10.843  17.980  17.652  1.00  0.00    -0.195 N 
HETATM   23  C3  UNL     1      10.961  17.026  18.594  1.00  0.00     0.676 A 
ATOM     24  H1  UNL     1      10.049  17.960  17.013  1.00  0.00     0.184 HD
HETATM   25  N3  UNL     1      11.998  17.039  19.443  1.00  0.00    -0.195 N 
HETATM   26  C4  UNL     1      12.966  18.007  19.390  1.00  0.00     0.040 A 
ATOM     27  H3  UNL     1      12.068  16.308  20.150  1.00  0.00     0.184 HD
HETATM   28  C5  UNL     1      14.043  17.948  20.427  1.00  0.00     0.070 C 
BRANCH  23  29
HETATM   29  N2  UNL     1      10.094  16.077  18.715  1.00  0.00    -0.234 N 
ATOM     30  H22 UNL     1       9.390  15.979  17.984  1.00  0.00     0.174 HD
ATOM     31  H21 UNL     1      10.103  15.438  19.510  1.00  0.00     0.174 HD
ENDBRANCH  23  29
ENDBRANCH  16  19
ENDBRANCH   1  15
BRANCH   7  32
HETATM   32  C15 UNL     1      18.245  22.523  19.736  1.00  0.00     0.231 C 
HETATM   33  O2  UNL     1      19.191  21.718  19.846  1.00  0.00    -0.272 OA
HETATM   34  N5  UNL     1      18.085  23.465  20.771  1.00  0.00    -0.340 N 
HETATM   35  C16 UNL     1      18.748  24.504  21.019  1.00  0.00     0.064 C 
ATOM     36  H5  UNL     1      17.317  23.277  21.415  1.00  0.00     0.167 HD
BRANCH  35  37
HETATM   37  C17 UNL     1      19.912  25.035  20.267  1.00  0.00     0.046 C 
BRANCH  37  38
HETATM   38  C18 UNL     1      21.224  24.598  20.878  1.00  0.00     0.035 C 
BRANCH  38  39
HETATM   39  C19 UNL     1      22.328  24.622  19.813  1.00  0.00     0.272 C 
BRANCH  39  40
HETATM   40  N6  UNL     1      23.561  24.194  20.387  1.00  0.00     0.088 N 
HETATM   41  C20 UNL     1      24.697  24.757  19.733  1.00  0.00     0.272 C 
HETATM   42  C21 UNL     1      25.537  25.439  20.779  1.00  0.00     0.032 C 
HETATM   43  C22 UNL     1      25.117  24.750  22.059  1.00  0.00     0.032 C 
HETATM   44  C23 UNL     1      23.634  24.539  21.778  1.00  0.00     0.272 C 
ENDBRANCH  39  40
ENDBRANCH  38  39
ENDBRANCH  37  38
ENDBRANCH  35  37
ENDBRANCH   7  32
BRANCH  12  45
HETATM   45  O3  UNL     1      20.169  25.860  15.314  1.00  0.00    -0.396 OA
ATOM     46  H3  UNL     1      20.233  26.344  16.130  1.00  0.00     0.210 HD
ENDBRANCH  12  45
TORSDOF 9
ENDMDL
MODEL 5
REMARK VINA RESULT: -9.688265675      2.687      3.445
REMARK  9 active torsions:
REMARK  status: ('A' for Active; 'I' for Inactive)
REMARK    1  A    between atoms: C3_5  and  N2_6 
REMARK    2  A    between atoms: C6_13  and  C7_14 
REMARK       I    between atoms: C7_14  and  N4_16 
REMARK    3  A    between atoms: N4_16  and  C8_18 
REMARK    4  A    between atoms: C14_24  and  C15_25 
REMARK       I    between atoms: C15_25  and  N5_27 
REMARK    5  A    between atoms: C16_29  and  C17_30 
REMARK    6  A    between atoms: C17_30  and  C18_31 
REMARK    7  A    between atoms: C18_31  and  C19_32 
REMARK    8  A    between atoms: C19_32  and  N6_33 
REMARK    9  A    between atoms: C28_42  and  O3_43 
ROOT
HETATM    1  C8  UNL     1      15.724  21.419  17.327  1.00  0.00     0.038 C 
HETATM    2  C9  UNL     1      16.256  21.786  15.983  1.00  0.00     0.036 C 
HETATM    3  C10 UNL     1      16.726  23.215  16.265  1.00  0.00    -0.002 C 
HETATM    4  C11 UNL     1      15.418  23.781  16.812  1.00  0.00     0.012 C 
HETATM    5  C12 UNL     1      15.113  22.718  17.845  1.00  0.00     0.015 C 
HETATM    6  C13 UNL     1      15.965  23.064  19.056  1.00  0.00     0.027 C 
HETATM    7  C14 UNL     1      17.333  22.587  18.562  1.00  0.00     0.052 C 
HETATM    8  C24 UNL     1      16.928  21.145  18.195  1.00  0.00     0.051 C 
HETATM    9  C25 UNL     1      17.786  23.284  17.338  1.00  0.00    -0.020 C 
HETATM   10  C26 UNL     1      19.063  22.718  16.814  1.00  0.00     0.013 C 
HETATM   11  C27 UNL     1      20.013  23.756  16.301  1.00  0.00     0.032 C 
HETATM   12  C28 UNL     1      19.350  24.872  15.529  1.00  0.00     0.118 C 
HETATM   13  C29 UNL     1      18.191  25.494  16.234  1.00  0.00     0.032 C 
HETATM   14  C30 UNL     1      18.029  24.768  17.581  1.00  0.00     0.013 C 
ENDROOT
BRANCH   1  15
HETATM   15  N4  UNL     1      14.751  20.342  17.318  1.00  0.00    -0.347 N 
HETATM   16  C7  UNL     1      13.849  20.135  18.363  1.00  0.00     0.256 C 
HETATM   17  O1  UNL     1      13.857  20.922  19.363  1.00  0.00    -0.267 OA
ATOM     18  H4  UNL     1      14.726  19.711  16.517  1.00  0.00     0.163 HD
BRANCH  16  19
HETATM   19  C6  UNL     1      12.858  19.077  18.426  1.00  0.00     0.077 A 
HETATM   20  C2  UNL     1      13.049  17.998  19.306  1.00  0.00     0.040 A 
HETATM   21  C1  UNL     1      14.235  18.027  20.197  1.00  0.00     0.070 C 
HETATM   22  N1  UNL     1      12.165  17.009  19.324  1.00  0.00    -0.195 N 
HETATM   23  C3  UNL     1      11.091  17.027  18.512  1.00  0.00     0.676 A 
ATOM     24  H1  UNL     1      12.300  16.224  19.961  1.00  0.00     0.184 HD
HETATM   25  N3  UNL     1      10.899  18.049  17.668  1.00  0.00    -0.195 N 
HETATM   26  C4  UNL     1      11.772  19.103  17.596  1.00  0.00     0.040 A 
ATOM     27  H3  UNL     1      10.080  18.043  17.061  1.00  0.00     0.184 HD
HETATM   28  C5  UNL     1      11.480  20.158  16.574  1.00  0.00     0.070 C 
BRANCH  23  29
HETATM   29  N2  UNL     1      10.219  16.074  18.515  1.00  0.00    -0.234 N 
ATOM     30  H22 UNL     1      10.446  15.219  18.009  1.00  0.00     0.174 HD
ATOM     31  H21 UNL     1       9.329  16.161  19.005  1.00  0.00     0.174 HD
ENDBRANCH  23  29
ENDBRANCH  16  19
ENDBRANCH   1  15
BRANCH   7  32
HETATM   32  C15 UNL     1      18.220  22.562  19.706  1.00  0.00     0.231 C 
HETATM   33  O2  UNL     1      19.161  21.750  19.807  1.00  0.00    -0.272 OA
HETATM   34  N5  UNL     1      18.046  23.473  20.767  1.00  0.00    -0.340 N 
HETATM   35  C16 UNL     1      18.710  24.501  21.057  1.00  0.00     0.064 C 
ATOM     36  H5  UNL     1      17.268  23.268  21.393  1.00  0.00     0.167 HD
BRANCH  35  37
HETATM   37  C17 UNL     1      19.887  25.049  20.339  1.00  0.00     0.046 C 
BRANCH  37  38
HETATM   38  C18 UNL     1      21.187  24.556  20.931  1.00  0.00     0.035 C 
BRANCH  38  39
HETATM   39  C19 UNL     1      22.280  24.546  19.853  1.00  0.00     0.272 C 
BRANCH  39  40
HETATM   40  N6  UNL     1      23.522  24.149  20.429  1.00  0.00     0.088 N 
HETATM   41  C20 UNL     1      24.645  24.729  19.769  1.00  0.00     0.272 C 
HETATM   42  C21 UNL     1      25.473  25.438  20.806  1.00  0.00     0.032 C 
HETATM   43  C22 UNL     1      25.068  24.754  22.094  1.00  0.00     0.032 C 
HETATM   44  C23 UNL     1      23.589  24.509  21.817  1.00  0.00     0.272 C 
ENDBRANCH  39  40
ENDBRANCH  38  39
ENDBRANCH  37  38
ENDBRANCH  35  37
ENDBRANCH   7  32
BRANCH  12  45
HETATM   45  O3  UNL     1      20.330  25.846  15.331  1.00  0.00    -0.396 OA
ATOM     46  H3  UNL     1      20.531  25.835  14.403  1.00  0.00     0.210 HD
ENDBRANCH  12  45
TORSDOF 9
ENDMDL
