MODEL 1
REMARK VINA RESULT: -7.523986013      0.000      0.000
REMARK  10 active torsions:
REMARK  status: ('A' for Active; 'I' for Inactive)
REMARK    1  A    between atoms: C2_2  and  C3_3 
REMARK    2  A    between atoms: C12_15  and  C13_16 
REMARK    3  A    between atoms: C13_16  and  C15_18 
REMARK    4  A    between atoms: C16_20  and  C17_21 
REMARK    5  A    between atoms: C17_21  and  C18_22 
REMARK    6  A    between atoms: C17_21  and  C21_25 
REMARK    7  A    between atoms: C25_29  and  O3_30 
REMARK    8  A    between atoms: C26_32  and  C27_33 
REMARK    9  A    between atoms: C27_33  and  O4_34 
REMARK   10  A    between atoms: C28_36  and  O5_37 
ROOT
HETATM    1  C3  UNL     1      14.671  22.123  16.719  1.00  0.00     0.177 C 
HETATM    2  N1  UNL     1      14.858  23.022  17.840  1.00  0.00    -0.346 N 
ATOM      3  H1  UNL     1      14.060  23.344  18.387  1.00  0.00     0.163 HD
HETATM    4  C4  UNL     1      16.176  23.446  18.161  1.00  0.00     0.228 C 
HETATM    5  O1  UNL     1      16.416  23.748  19.356  1.00  0.00    -0.273 OA
HETATM    6  C5  UNL     1      17.245  23.524  17.074  1.00  0.00     0.056 C 
HETATM    7  C6  UNL     1      16.547  24.305  15.937  1.00  0.00     0.027 C 
HETATM    8  C7  UNL     1      17.395  25.590  15.891  1.00  0.00     0.017 C 
HETATM    9  C8  UNL     1      17.623  25.689  17.355  1.00  0.00     0.014 C 
HETATM   10  C9  UNL     1      18.302  24.323  17.596  1.00  0.00     0.018 C 
HETATM   11  C10 UNL     1      19.676  24.379  17.125  1.00  0.00    -0.001 C 
HETATM   12  C11 UNL     1      20.337  22.992  16.993  1.00  0.00     0.021 C 
HETATM   13  C12 UNL     1      20.664  25.104  18.037  1.00  0.00    -0.060 C 
HETATM   14  C24 UNL     1      20.812  26.513  17.615  1.00  0.00     0.068 C 
HETATM   15  C25 UNL     1      20.547  26.443  16.125  1.00  0.00     0.136 C 
HETATM   16  C26 UNL     1      19.885  25.134  15.820  1.00  0.00     0.045 C 
HETATM   17  C28 UNL     1      18.583  25.279  15.067  1.00  0.00     0.136 C 
HETATM   18  C29 UNL     1      17.273  22.139  16.592  1.00  0.00     0.072 C 
HETATM   19  C30 UNL     1      17.374  21.092  17.695  1.00  0.00     0.019 C 
HETATM   20  C31 UNL     1      15.926  21.871  15.972  1.00  0.00     0.158 C 
HETATM   21  O6  UNL     1      15.781  21.435  14.834  1.00  0.00    -0.295 OA
ENDROOT
BRANCH  13  22
HETATM   22  C13 UNL     1      20.722  24.727  19.426  1.00  0.00    -0.033 C 
HETATM   23  C14 UNL     1      19.625  24.747  20.181  1.00  0.00     0.022 C 
BRANCH  22  24
HETATM   24  C15 UNL     1      21.881  24.202  20.193  1.00  0.00     0.184 A 
HETATM   25  O2  UNL     1      22.369  24.785  21.335  1.00  0.00    -0.370 OA
HETATM   26  C16 UNL     1      23.067  25.100  20.216  1.00  0.00     0.160 A 
BRANCH  26  27
HETATM   27  C17 UNL     1      24.453  24.549  19.935  1.00  0.00     0.024 C 
BRANCH  27  28
HETATM   28  C18 UNL     1      25.228  24.212  21.137  1.00  0.00    -0.016 C 
HETATM   29  C19 UNL     1      25.812  25.294  21.955  1.00  0.00     0.010 C 
HETATM   30  C20 UNL     1      26.181  23.052  20.855  1.00  0.00     0.010 C 
ENDBRANCH  27  28
BRANCH  27  31
HETATM   31  C21 UNL     1      25.076  25.421  18.903  1.00  0.00    -0.016 C 
HETATM   32  C22 UNL     1      26.009  24.714  17.953  1.00  0.00     0.010 C 
HETATM   33  C23 UNL     1      24.179  26.355  18.170  1.00  0.00     0.010 C 
ENDBRANCH  27  31
ENDBRANCH  26  27
ENDBRANCH  22  24
ENDBRANCH  13  22
BRANCH  16  34
HETATM   34  C27 UNL     1      20.813  24.409  14.856  1.00  0.00     0.179 C 
BRANCH  34  35
HETATM   35  O4  UNL     1      21.674  25.431  14.366  1.00  0.00    -0.400 OA
ATOM     36  H4  UNL     1      22.539  25.041  14.395  1.00  0.00     0.209 HD
ENDBRANCH  34  35
ENDBRANCH  16  34
BRANCH  15  37
HETATM   37  O3  UNL     1      19.796  27.565  15.782  1.00  0.00    -0.394 OA
ATOM     38  H3  UNL     1      18.898  27.396  16.042  1.00  0.00     0.210 HD
ENDBRANCH  15  37
BRANCH  17  39
HETATM   39  O5  UNL     1      18.707  26.294  14.095  1.00  0.00    -0.394 OA
ATOM     40  H5  UNL     1      18.033  26.151  13.442  1.00  0.00     0.210 HD
ENDBRANCH  17  39
BRANCH   1  41
HETATM   41  C2  UNL     1      14.066  20.829  17.120  1.00  0.00    -0.005 C 
HETATM   42  C1  UNL     1      13.779  20.514  18.370  1.00  0.00     0.009 C 
ENDBRANCH   1  41
TORSDOF 10
ENDMDL
MODEL 2
REMARK VINA RESULT: -6.428361435      2.157      4.735
REMARK  10 active torsions:
REMARK  status: ('A' for Active; 'I' for Inactive)
REMARK    1  A    between atoms: C2_2  and  C3_3 
REMARK    2  A    between atoms: C12_15  and  C13_16 
REMARK    3  A    between atoms: C13_16  and  C15_18 
REMARK    4  A    between atoms: C16_20  and  C17_21 
REMARK    5  A    between atoms: C17_21  and  C18_22 
REMARK    6  A    between atoms: C17_21  and  C21_25 
REMARK    7  A    between atoms: C25_29  and  O3_30 
REMARK    8  A    between atoms: C26_32  and  C27_33 
REMARK    9  A    between atoms: C27_33  and  O4_34 
REMARK   10  A    between atoms: C28_36  and  O5_37 
ROOT
HETATM    1  C3  UNL     1      13.726  20.609  16.025  1.00  0.00     0.177 C 
HETATM    2  N1  UNL     1      14.842  20.801  15.122  1.00  0.00    -0.346 N 
ATOM      3  H1  UNL     1      14.950  20.213  14.296  1.00  0.00     0.163 HD
HETATM    4  C4  UNL     1      15.783  21.826  15.410  1.00  0.00     0.228 C 
HETATM    5  O1  UNL     1      16.394  22.344  14.443  1.00  0.00    -0.273 OA
HETATM    6  C5  UNL     1      16.025  22.265  16.852  1.00  0.00     0.056 C 
HETATM    7  C6  UNL     1      16.235  20.930  17.604  1.00  0.00     0.027 C 
HETATM    8  C7  UNL     1      17.704  21.065  18.050  1.00  0.00     0.017 C 
HETATM    9  C8  UNL     1      18.182  21.761  16.828  1.00  0.00     0.014 C 
HETATM   10  C9  UNL     1      17.250  22.992  16.859  1.00  0.00     0.018 C 
HETATM   11  C10 UNL     1      17.714  23.922  17.875  1.00  0.00    -0.001 C 
HETATM   12  C11 UNL     1      16.679  25.006  18.233  1.00  0.00     0.021 C 
HETATM   13  C12 UNL     1      18.928  24.769  17.497  1.00  0.00    -0.060 C 
HETATM   14  C24 UNL     1      20.169  24.133  17.986  1.00  0.00     0.068 C 
HETATM   15  C25 UNL     1      19.697  23.385  19.215  1.00  0.00     0.136 C 
HETATM   16  C26 UNL     1      18.203  23.282  19.167  1.00  0.00     0.045 C 
HETATM   17  C28 UNL     1      17.693  21.865  19.293  1.00  0.00     0.136 C 
HETATM   18  C29 UNL     1      14.683  22.696  17.255  1.00  0.00     0.072 C 
HETATM   19  C30 UNL     1      14.003  23.639  16.269  1.00  0.00     0.019 C 
HETATM   20  C31 UNL     1      13.809  21.468  17.229  1.00  0.00     0.158 C 
HETATM   21  O6  UNL     1      13.124  21.107  18.182  1.00  0.00    -0.295 OA
ENDROOT
BRANCH  13  22
HETATM   22  C13 UNL     1      18.898  25.499  16.256  1.00  0.00    -0.033 C 
HETATM   23  C14 UNL     1      17.908  25.315  15.384  1.00  0.00     0.022 C 
BRANCH  22  24
HETATM   24  C15 UNL     1      19.819  26.567  15.790  1.00  0.00     0.184 A 
HETATM   25  O2  UNL     1      20.736  26.401  14.783  1.00  0.00    -0.370 OA
HETATM   26  C16 UNL     1      21.262  26.288  16.027  1.00  0.00     0.160 A 
BRANCH  26  27
HETATM   27  C17 UNL     1      22.160  27.350  16.634  1.00  0.00     0.024 C 
BRANCH  27  28
HETATM   28  C18 UNL     1      23.441  27.533  15.937  1.00  0.00    -0.016 C 
HETATM   29  C19 UNL     1      24.251  26.352  15.579  1.00  0.00     0.010 C 
HETATM   30  C20 UNL     1      24.237  28.675  16.566  1.00  0.00     0.010 C 
ENDBRANCH  27  28
BRANCH  27  31
HETATM   31  C21 UNL     1      22.171  27.134  18.106  1.00  0.00    -0.016 C 
HETATM   32  C22 UNL     1      20.871  27.445  18.804  1.00  0.00     0.010 C 
HETATM   33  C23 UNL     1      22.747  25.855  18.602  1.00  0.00     0.010 C 
ENDBRANCH  27  31
ENDBRANCH  26  27
ENDBRANCH  22  24
ENDBRANCH  13  22
BRANCH  16  34
HETATM   34  C27 UNL     1      17.692  23.993  20.412  1.00  0.00     0.179 C 
BRANCH  34  35
HETATM   35  O4  UNL     1      18.767  23.887  21.339  1.00  0.00    -0.400 OA
ATOM     36  H4  UNL     1      19.127  24.765  21.378  1.00  0.00     0.209 HD
ENDBRANCH  34  35
ENDBRANCH  16  34
BRANCH  15  37
HETATM   37  O3  UNL     1      20.361  22.160  19.239  1.00  0.00    -0.394 OA
ATOM     38  H3  UNL     1      20.156  21.742  20.067  1.00  0.00     0.210 HD
ENDBRANCH  15  37
BRANCH  17  39
HETATM   39  O5  UNL     1      18.454  21.170  20.256  1.00  0.00    -0.394 OA
ATOM     40  H5  UNL     1      18.653  21.777  20.959  1.00  0.00     0.210 HD
ENDBRANCH  17  39
BRANCH   1  41
HETATM   41  C2  UNL     1      12.413  20.811  15.363  1.00  0.00    -0.005 C 
HETATM   42  C1  UNL     1      12.281  21.253  14.126  1.00  0.00     0.009 C 
ENDBRANCH   1  41
TORSDOF 10
ENDMDL
MODEL 3
REMARK VINA RESULT: -6.363593990      1.177      1.593
REMARK  10 active torsions:
REMARK  status: ('A' for Active; 'I' for Inactive)
REMARK    1  A    between atoms: C2_2  and  C3_3 
REMARK    2  A    between atoms: C12_15  and  C13_16 
REMARK    3  A    between atoms: C13_16  and  C15_18 
REMARK    4  A    between atoms: C16_20  and  C17_21 
REMARK    5  A    between atoms: C17_21  and  C18_22 
REMARK    6  A    between atoms: C17_21  and  C21_25 
REMARK    7  A    between atoms: C25_29  and  O3_30 
REMARK    8  A    between atoms: C26_32  and  C27_33 
REMARK    9  A    between atoms: C27_33  and  O4_34 
REMARK   10  A    between atoms: C28_36  and  O5_37 
ROOT
HETATM    1  C3  UNL     1      15.343  22.048  17.671  1.00  0.00     0.177 C 
HETATM    2  N1  UNL     1      15.706  23.029  18.672  1.00  0.00    -0.346 N 
ATOM      3  H1  UNL     1      15.048  23.292  19.406  1.00  0.00     0.163 HD
HETATM    4  C4  UNL     1      16.997  23.619  18.613  1.00  0.00     0.228 C 
HETATM    5  O1  UNL     1      17.505  24.019  19.689  1.00  0.00    -0.273 OA
HETATM    6  C5  UNL     1      17.722  23.751  17.275  1.00  0.00     0.056 C 
HETATM    7  C6  UNL     1      16.655  24.376  16.348  1.00  0.00     0.027 C 
HETATM    8  C7  UNL     1      17.292  25.744  16.037  1.00  0.00     0.017 C 
HETATM    9  C8  UNL     1      17.886  25.957  17.382  1.00  0.00     0.014 C 
HETATM   10  C9  UNL     1      18.770  24.694  17.469  1.00  0.00     0.018 C 
HETATM   11  C10 UNL     1      19.952  24.877  16.642  1.00  0.00    -0.001 C 
HETATM   12  C11 UNL     1      20.723  23.569  16.377  1.00  0.00     0.021 C 
HETATM   13  C12 UNL     1      21.047  25.764  17.232  1.00  0.00    -0.060 C 
HETATM   14  C24 UNL     1      20.900  27.152  16.746  1.00  0.00     0.068 C 
HETATM   15  C25 UNL     1      20.261  26.961  15.386  1.00  0.00     0.136 C 
HETATM   16  C26 UNL     1      19.711  25.569  15.308  1.00  0.00     0.045 C 
HETATM   17  C28 UNL     1      18.249  25.519  14.932  1.00  0.00     0.136 C 
HETATM   18  C29 UNL     1      17.795  22.351  16.844  1.00  0.00     0.072 C 
HETATM   19  C30 UNL     1      18.315  21.392  17.908  1.00  0.00     0.019 C 
HETATM   20  C31 UNL     1      16.376  21.894  16.620  1.00  0.00     0.158 C 
HETATM   21  O6  UNL     1      15.991  21.376  15.576  1.00  0.00    -0.295 OA
ENDROOT
BRANCH  13  22
HETATM   22  C13 UNL     1      21.518  25.483  18.564  1.00  0.00    -0.033 C 
HETATM   23  C14 UNL     1      20.718  25.651  19.616  1.00  0.00     0.022 C 
BRANCH  22  24
HETATM   24  C15 UNL     1      22.825  24.913  18.981  1.00  0.00     0.184 A 
HETATM   25  O2  UNL     1      23.563  25.386  20.036  1.00  0.00    -0.370 OA
HETATM   26  C16 UNL     1      23.981  25.838  18.828  1.00  0.00     0.160 A 
BRANCH  26  27
HETATM   27  C17 UNL     1      25.266  25.361  18.176  1.00  0.00     0.024 C 
BRANCH  27  28
HETATM   28  C18 UNL     1      26.454  25.455  19.035  1.00  0.00    -0.016 C 
HETATM   29  C19 UNL     1      26.867  24.286  19.837  1.00  0.00     0.010 C 
HETATM   30  C20 UNL     1      26.463  26.778  19.799  1.00  0.00     0.010 C 
ENDBRANCH  27  28
BRANCH  27  31
HETATM   31  C21 UNL     1      25.319  25.956  16.813  1.00  0.00    -0.016 C 
HETATM   32  C22 UNL     1      24.600  27.273  16.666  1.00  0.00     0.010 C 
HETATM   33  C23 UNL     1      26.645  25.998  16.141  1.00  0.00     0.010 C 
ENDBRANCH  27  31
ENDBRANCH  26  27
ENDBRANCH  22  24
ENDBRANCH  13  22
BRANCH  16  34
HETATM   34  C27 UNL     1      20.434  24.896  14.151  1.00  0.00     0.179 C 
BRANCH  34  35
HETATM   35  O4  UNL     1      20.767  25.970  13.277  1.00  0.00    -0.400 OA
ATOM     36  H4  UNL     1      20.907  25.550  12.437  1.00  0.00     0.209 HD
ENDBRANCH  34  35
ENDBRANCH  16  34
BRANCH  15  37
HETATM   37  O3  UNL     1      19.310  27.968  15.227  1.00  0.00    -0.394 OA
ATOM     38  H3  UNL     1      19.072  27.991  14.307  1.00  0.00     0.210 HD
ENDBRANCH  15  37
BRANCH  17  39
HETATM   39  O5  UNL     1      17.982  26.480  13.934  1.00  0.00    -0.394 OA
ATOM     40  H5  UNL     1      18.086  26.056  13.090  1.00  0.00     0.210 HD
ENDBRANCH  17  39
BRANCH   1  41
HETATM   41  C2  UNL     1      15.033  20.720  18.257  1.00  0.00    -0.005 C 
HETATM   42  C1  UNL     1      14.989  20.489  19.556  1.00  0.00     0.009 C 
ENDBRANCH   1  41
TORSDOF 10
ENDMDL
MODEL 4
REMARK VINA RESULT: -6.246450450      0.454      1.511
REMARK  10 active torsions:
REMARK  status: ('A' for Active; 'I' for Inactive)
REMARK    1  A    between atoms: C2_2  and  C3_3 
REMARK    2  A    between atoms: C12_15  and  C13_16 
REMARK    3  A    between atoms: C13_16  and  C15_18 
REMARK    4  A    between atoms: C16_20  and  C17_21 
REMARK    5  A    between atoms: C17_21  and  C18_22 
REMARK    6  A    between atoms: C17_21  and  C21_25 
REMARK    7  A    between atoms: C25_29  and  O3_30 
REMARK    8  A    between atoms: C26_32  and  C27_33 
REMARK    9  A    between atoms: C27_33  and  O4_34 
REMARK   10  A    between atoms: C28_36  and  O5_37 
ROOT
HETATM    1  C3  UNL     1      14.776  22.041  16.996  1.00  0.00     0.177 C 
HETATM    2  N1  UNL     1      15.029  22.916  18.123  1.00  0.00    -0.346 N 
ATOM      3  H1  UNL     1      14.268  23.207  18.736  1.00  0.00     0.163 HD
HETATM    4  C4  UNL     1      16.358  23.362  18.355  1.00  0.00     0.228 C 
HETATM    5  O1  UNL     1      16.681  23.640  19.536  1.00  0.00    -0.273 OA
HETATM    6  C5  UNL     1      17.340  23.491  17.193  1.00  0.00     0.056 C 
HETATM    7  C6  UNL     1      16.542  24.284  16.133  1.00  0.00     0.027 C 
HETATM    8  C7  UNL     1      17.358  25.589  16.057  1.00  0.00     0.017 C 
HETATM    9  C8  UNL     1      17.694  25.656  17.502  1.00  0.00     0.014 C 
HETATM   10  C9  UNL     1      18.417  24.300  17.656  1.00  0.00     0.018 C 
HETATM   11  C10 UNL     1      19.750  24.399  17.085  1.00  0.00    -0.001 C 
HETATM   12  C11 UNL     1      20.428  23.031  16.868  1.00  0.00     0.021 C 
HETATM   13  C12 UNL     1      20.789  25.123  17.939  1.00  0.00    -0.060 C 
HETATM   14  C24 UNL     1      20.875  26.545  17.544  1.00  0.00     0.068 C 
HETATM   15  C25 UNL     1      20.501  26.506  16.077  1.00  0.00     0.136 C 
HETATM   16  C26 UNL     1      19.845  25.190  15.788  1.00  0.00     0.045 C 
HETATM   17  C28 UNL     1      18.487  25.325  15.139  1.00  0.00     0.136 C 
HETATM   18  C29 UNL     1      17.360  22.119  16.675  1.00  0.00     0.072 C 
HETATM   19  C30 UNL     1      17.566  21.048  17.740  1.00  0.00     0.019 C 
HETATM   20  C31 UNL     1      15.976  21.836  16.151  1.00  0.00     0.158 C 
HETATM   21  O6  UNL     1      15.755  21.425  15.015  1.00  0.00    -0.295 OA
ENDROOT
BRANCH  13  22
HETATM   22  C13 UNL     1      20.959  24.714  19.310  1.00  0.00    -0.033 C 
HETATM   23  C14 UNL     1      19.906  24.583  20.114  1.00  0.00     0.022 C 
BRANCH  22  24
HETATM   24  C15 UNL     1      22.207  24.304  20.003  1.00  0.00     0.184 A 
HETATM   25  O2  UNL     1      22.664  24.882  21.160  1.00  0.00    -0.370 OA
HETATM   26  C16 UNL     1      23.267  25.347  20.039  1.00  0.00     0.160 A 
BRANCH  26  27
HETATM   27  C17 UNL     1      24.700  25.001  19.677  1.00  0.00     0.024 C 
BRANCH  27  28
HETATM   28  C18 UNL     1      25.020  25.153  18.251  1.00  0.00    -0.016 C 
HETATM   29  C19 UNL     1      26.423  25.043  17.803  1.00  0.00     0.010 C 
HETATM   30  C20 UNL     1      24.258  26.333  17.651  1.00  0.00     0.010 C 
ENDBRANCH  27  28
BRANCH  27  31
HETATM   31  C21 UNL     1      25.030  23.716  20.352  1.00  0.00    -0.016 C 
HETATM   32  C22 UNL     1      25.396  22.586  19.423  1.00  0.00     0.010 C 
HETATM   33  C23 UNL     1      25.961  23.775  21.510  1.00  0.00     0.010 C 
ENDBRANCH  27  31
ENDBRANCH  26  27
ENDBRANCH  22  24
ENDBRANCH  13  22
BRANCH  16  34
HETATM   34  C27 UNL     1      20.712  24.510  14.739  1.00  0.00     0.179 C 
BRANCH  34  35
HETATM   35  O4  UNL     1      21.589  25.539  14.292  1.00  0.00    -0.400 OA
ATOM     36  H4  UNL     1      22.172  25.100  13.686  1.00  0.00     0.209 HD
ENDBRANCH  34  35
ENDBRANCH  16  34
BRANCH  15  37
HETATM   37  O3  UNL     1      19.703  27.619  15.821  1.00  0.00    -0.394 OA
ATOM     38  H3  UNL     1      19.547  27.647  14.884  1.00  0.00     0.210 HD
ENDBRANCH  15  37
BRANCH  17  39
HETATM   39  O5  UNL     1      18.516  26.366  14.187  1.00  0.00    -0.394 OA
ATOM     40  H5  UNL     1      19.204  26.968  14.441  1.00  0.00     0.210 HD
ENDBRANCH  17  39
BRANCH   1  41
HETATM   41  C2  UNL     1      14.230  20.724  17.407  1.00  0.00    -0.005 C 
HETATM   42  C1  UNL     1      14.007  20.387  18.664  1.00  0.00     0.009 C 
ENDBRANCH   1  41
TORSDOF 10
ENDMDL
MODEL 5
REMARK VINA RESULT: -6.078001767      2.692      8.323
REMARK  10 active torsions:
REMARK  status: ('A' for Active; 'I' for Inactive)
REMARK    1  A    between atoms: C2_2  and  C3_3 
REMARK    2  A    between atoms: C12_15  and  C13_16 
REMARK    3  A    between atoms: C13_16  and  C15_18 
REMARK    4  A    between atoms: C16_20  and  C17_21 
REMARK    5  A    between atoms: C17_21  and  C18_22 
REMARK    6  A    between atoms: C17_21  and  C21_25 
REMARK    7  A    between atoms: C25_29  and  O3_30 
REMARK    8  A    between atoms: C26_32  and  C27_33 
REMARK    9  A    between atoms: C27_33  and  O4_34 
REMARK   10  A    between atoms: C28_36  and  O5_37 
ROOT
HETATM    1  C3  UNL     1      23.618  27.677  16.452  1.00  0.00     0.177 C 
HETATM    2  N1  UNL     1      22.307  28.250  16.229  1.00  0.00    -0.346 N 
ATOM      3  H1  UNL     1      22.200  29.247  16.041  1.00  0.00     0.163 HD
HETATM    4  C4  UNL     1      21.172  27.396  16.279  1.00  0.00     0.228 C 
HETATM    5  O1  UNL     1      20.168  27.722  15.600  1.00  0.00    -0.273 OA
HETATM    6  C5  UNL     1      21.197  26.133  17.136  1.00  0.00     0.056 C 
HETATM    7  C6  UNL     1      21.721  26.634  18.502  1.00  0.00     0.027 C 
HETATM    8  C7  UNL     1      20.496  26.383  19.402  1.00  0.00     0.017 C 
HETATM    9  C8  UNL     1      19.471  26.735  18.387  1.00  0.00     0.014 C 
HETATM   10  C9  UNL     1      19.845  25.715  17.289  1.00  0.00     0.018 C 
HETATM   11  C10 UNL     1      19.371  24.397  17.676  1.00  0.00    -0.001 C 
HETATM   12  C11 UNL     1      19.982  23.255  16.839  1.00  0.00     0.021 C 
HETATM   13  C12 UNL     1      17.875  24.145  17.491  1.00  0.00    -0.060 C 
HETATM   14  C24 UNL     1      17.152  24.411  18.753  1.00  0.00     0.068 C 
HETATM   15  C25 UNL     1      18.192  24.092  19.806  1.00  0.00     0.136 C 
HETATM   16  C26 UNL     1      19.538  24.052  19.149  1.00  0.00     0.045 C 
HETATM   17  C28 UNL     1      20.554  24.960  19.802  1.00  0.00     0.136 C 
HETATM   18  C29 UNL     1      22.336  25.412  16.558  1.00  0.00     0.072 C 
HETATM   19  C30 UNL     1      22.309  25.309  15.038  1.00  0.00     0.019 C 
HETATM   20  C31 UNL     1      23.561  26.247  16.834  1.00  0.00     0.158 C 
HETATM   21  O6  UNL     1      24.568  25.808  17.382  1.00  0.00    -0.295 OA
ENDROOT
BRANCH  13  22
HETATM   22  C13 UNL     1      17.281  24.435  16.211  1.00  0.00    -0.033 C 
HETATM   23  C14 UNL     1      17.562  25.571  15.575  1.00  0.00     0.022 C 
BRANCH  22  24
HETATM   24  C15 UNL     1      16.404  23.569  15.383  1.00  0.00     0.184 A 
HETATM   25  O2  UNL     1      15.086  23.845  15.120  1.00  0.00    -0.370 OA
HETATM   26  C16 UNL     1      15.269  22.950  16.121  1.00  0.00     0.160 A 
BRANCH  26  27
HETATM   27  C17 UNL     1      14.964  21.472  15.963  1.00  0.00     0.024 C 
BRANCH  27  28
HETATM   28  C18 UNL     1      13.750  21.182  15.187  1.00  0.00    -0.016 C 
HETATM   29  C19 UNL     1      12.657  20.407  15.807  1.00  0.00     0.010 C 
HETATM   30  C20 UNL     1      14.110  20.741  13.770  1.00  0.00     0.010 C 
ENDBRANCH  27  28
BRANCH  27  31
HETATM   31  C21 UNL     1      15.128  20.839  17.299  1.00  0.00    -0.016 C 
HETATM   32  C22 UNL     1      16.557  20.620  17.729  1.00  0.00     0.010 C 
HETATM   33  C23 UNL     1      14.316  21.391  18.417  1.00  0.00     0.010 C 
ENDBRANCH  27  31
ENDBRANCH  26  27
ENDBRANCH  22  24
ENDBRANCH  13  22
BRANCH  16  34
HETATM   34  C27 UNL     1      20.073  22.645  19.374  1.00  0.00     0.179 C 
BRANCH  34  35
HETATM   35  O4  UNL     1      19.210  22.099  20.365  1.00  0.00    -0.400 OA
ATOM     36  H4  UNL     1      19.769  21.513  20.861  1.00  0.00     0.209 HD
ENDBRANCH  34  35
ENDBRANCH  16  34
BRANCH  15  37
HETATM   37  O3  UNL     1      18.069  25.045  20.815  1.00  0.00    -0.394 OA
ATOM     38  H3  UNL     1      18.041  24.580  21.643  1.00  0.00     0.210 HD
ENDBRANCH  15  37
BRANCH  17  39
HETATM   39  O5  UNL     1      20.410  24.905  21.204  1.00  0.00    -0.394 OA
ATOM     40  H5  UNL     1      20.417  23.989  21.459  1.00  0.00     0.210 HD
ENDBRANCH  17  39
BRANCH   1  41
HETATM   41  C2  UNL     1      24.519  27.839  15.283  1.00  0.00    -0.005 C 
HETATM   42  C1  UNL     1      25.806  28.113  15.387  1.00  0.00     0.009 C 
ENDBRANCH   1  41
TORSDOF 10
ENDMDL
