MODEL 1
REMARK VINA RESULT: -8.138830413      0.000      0.000
REMARK  9 active torsions:
REMARK  status: ('A' for Active; 'I' for Inactive)
REMARK    1  A    between atoms: C2_2  and  O1_5 
REMARK    2  A    between atoms: O1_5  and  C5_6 
REMARK       I    between atoms: C5_6  and  N1_8 
REMARK    3  A    between atoms: N1_8  and  C6_10 
REMARK    4  A    between atoms: C6_10  and  C7_11 
REMARK    5  A    between atoms: C7_11  and  C8_12 
REMARK    6  A    between atoms: C8_12  and  C9_13 
REMARK    7  A    between atoms: C9_13  and  C10_14 
REMARK    8  A    between atoms: C13_20  and  C14_21 
REMARK    9  A    between atoms: C16_24  and  C17_25 
ROOT
HETATM    1  C10 UNL     1      19.683  24.776  17.366  1.00  0.00     0.176 C 
HETATM    2  N2  UNL     1      18.333  24.981  17.086  1.00  0.00    -0.348 N 
ATOM      3  H2  UNL     1      17.917  25.645  17.740  1.00  0.00     0.163 HD
HETATM    4  C11 UNL     1      17.397  24.531  16.165  1.00  0.00     0.218 C 
HETATM    5  O3  UNL     1      16.716  25.398  15.493  1.00  0.00    -0.274 OA
HETATM    6  C12 UNL     1      17.066  23.141  15.843  1.00  0.00     0.108 C 
HETATM    7  C13 UNL     1      15.678  22.691  16.048  1.00  0.00     0.006 C 
HETATM    8  C15 UNL     1      15.718  21.511  16.986  1.00  0.00     0.031 C 
HETATM    9  C16 UNL     1      15.822  21.904  18.446  1.00  0.00     0.089 C 
HETATM   10  N3  UNL     1      17.006  21.351  19.071  1.00  0.00    -0.354 N 
ATOM     11  H3  UNL     1      16.970  20.345  19.234  1.00  0.00     0.162 HD
HETATM   12  C21 UNL     1      18.184  21.964  19.488  1.00  0.00     0.241 C 
HETATM   13  O4  UNL     1      19.264  21.386  19.064  1.00  0.00    -0.271 OA
HETATM   14  C22 UNL     1      18.459  23.111  20.298  1.00  0.00     0.179 C 
HETATM   15  C23 UNL     1      17.403  24.077  20.661  1.00  0.00     0.037 C 
HETATM   16  C24 UNL     1      18.259  25.043  21.513  1.00  0.00     0.022 C 
HETATM   17  C25 UNL     1      19.691  24.587  21.290  1.00  0.00     0.127 C 
HETATM   18  N4  UNL     1      19.519  24.035  19.910  1.00  0.00    -0.337 N 
HETATM   19  C26 UNL     1      20.129  24.282  18.671  1.00  0.00     0.243 C 
HETATM   20  O5  UNL     1      21.375  24.008  18.702  1.00  0.00    -0.271 OA
ENDROOT
BRANCH   1  21
HETATM   21  C9  UNL     1      20.350  24.035  16.223  1.00  0.00     0.035 C 
BRANCH  21  22
HETATM   22  C8  UNL     1      21.240  24.808  15.366  1.00  0.00     0.004 C 
BRANCH  22  23
HETATM   23  C7  UNL     1      20.376  25.625  14.402  1.00  0.00     0.020 C 
BRANCH  23  24
HETATM   24  C6  UNL     1      20.443  27.077  14.622  1.00  0.00     0.125 C 
BRANCH  24  25
HETATM   25  N1  UNL     1      21.746  27.520  15.018  1.00  0.00    -0.337 N 
HETATM   26  C5  UNL     1      22.048  27.880  16.351  1.00  0.00     0.361 C 
HETATM   27  O2  UNL     1      21.220  27.852  17.300  1.00  0.00    -0.238 OA
ATOM     28  H1  UNL     1      22.481  27.578  14.314  1.00  0.00     0.164 HD
BRANCH  26  29
HETATM   29  O1  UNL     1      23.347  28.308  16.702  1.00  0.00    -0.294 OA
BRANCH  29  30
HETATM   30  C2  UNL     1      24.305  27.334  17.027  1.00  0.00     0.061 C 
HETATM   31  C1  UNL     1      23.791  26.284  17.968  1.00  0.00     0.046 C 
HETATM   32  C3  UNL     1      24.835  26.664  15.772  1.00  0.00     0.046 C 
HETATM   33  C4  UNL     1      25.455  28.050  17.724  1.00  0.00     0.046 C 
ENDBRANCH  29  30
ENDBRANCH  26  29
ENDBRANCH  24  25
ENDBRANCH  23  24
ENDBRANCH  22  23
ENDBRANCH  21  22
ENDBRANCH   1  21
BRANCH   7  34
HETATM   34  C14 UNL     1      14.970  22.262  14.786  1.00  0.00     0.091 C 
HETATM   35  S1  UNL     1      13.177  22.526  14.905  1.00  0.00    -0.097 SA
ENDBRANCH   7  34
BRANCH   9  36
HETATM   36  C17 UNL     1      14.647  21.212  19.125  1.00  0.00     0.008 C 
HETATM   37  C18 UNL     1      15.052  20.225  20.196  1.00  0.00     0.007 C 
HETATM   38  C19 UNL     1      13.889  19.347  19.716  1.00  0.00     0.001 C 
HETATM   39  C20 UNL     1      14.037  20.073  18.372  1.00  0.00     0.007 C 
ENDBRANCH   9  36
TORSDOF 9
ENDMDL
MODEL 2
REMARK VINA RESULT: -7.797446871      3.161      9.043
REMARK  9 active torsions:
REMARK  status: ('A' for Active; 'I' for Inactive)
REMARK    1  A    between atoms: C2_2  and  O1_5 
REMARK    2  A    between atoms: O1_5  and  C5_6 
REMARK       I    between atoms: C5_6  and  N1_8 
REMARK    3  A    between atoms: N1_8  and  C6_10 
REMARK    4  A    between atoms: C6_10  and  C7_11 
REMARK    5  A    between atoms: C7_11  and  C8_12 
REMARK    6  A    between atoms: C8_12  and  C9_13 
REMARK    7  A    between atoms: C9_13  and  C10_14 
REMARK    8  A    between atoms: C13_20  and  C14_21 
REMARK    9  A    between atoms: C16_24  and  C17_25 
ROOT
HETATM    1  C10 UNL     1      19.093  24.759  17.522  1.00  0.00     0.176 C 
HETATM    2  N2  UNL     1      19.867  25.696  18.204  1.00  0.00    -0.348 N 
ATOM      3  H2  UNL     1      19.532  26.645  18.033  1.00  0.00     0.163 HD
HETATM    4  C11 UNL     1      20.966  25.698  19.051  1.00  0.00     0.218 C 
HETATM    5  O3  UNL     1      20.883  26.314  20.182  1.00  0.00    -0.274 OA
HETATM    6  C12 UNL     1      22.266  25.064  18.818  1.00  0.00     0.108 C 
HETATM    7  C13 UNL     1      23.466  25.919  18.810  1.00  0.00     0.006 C 
HETATM    8  C15 UNL     1      24.152  25.724  17.482  1.00  0.00     0.031 C 
HETATM    9  C16 UNL     1      23.542  26.543  16.361  1.00  0.00     0.089 C 
HETATM   10  N3  UNL     1      23.075  25.706  15.274  1.00  0.00    -0.354 N 
ATOM     11  H3  UNL     1      23.815  25.289  14.711  1.00  0.00     0.162 HD
HETATM   12  C21 UNL     1      21.784  25.378  14.870  1.00  0.00     0.241 C 
HETATM   13  O4  UNL     1      21.583  24.108  14.707  1.00  0.00    -0.271 OA
HETATM   14  C22 UNL     1      20.616  26.157  14.591  1.00  0.00     0.179 C 
HETATM   15  C23 UNL     1      20.524  27.582  14.968  1.00  0.00     0.037 C 
HETATM   16  C24 UNL     1      19.106  27.872  14.424  1.00  0.00     0.022 C 
HETATM   17  C25 UNL     1      18.552  26.509  14.047  1.00  0.00     0.127 C 
HETATM   18  N4  UNL     1      19.310  25.694  15.048  1.00  0.00    -0.337 N 
HETATM   19  C26 UNL     1      18.944  24.801  16.065  1.00  0.00     0.243 C 
HETATM   20  O5  UNL     1      18.333  23.785  15.597  1.00  0.00    -0.271 OA
ENDROOT
BRANCH   1  21
HETATM   21  C9  UNL     1      19.405  23.359  18.018  1.00  0.00     0.035 C 
BRANCH  21  22
HETATM   22  C8  UNL     1      18.596  22.854  19.119  1.00  0.00     0.004 C 
BRANCH  22  23
HETATM   23  C7  UNL     1      17.907  21.570  18.648  1.00  0.00     0.020 C 
BRANCH  23  24
HETATM   24  C6  UNL     1      16.499  21.752  18.267  1.00  0.00     0.125 C 
BRANCH  24  25
HETATM   25  N1  UNL     1      16.310  21.823  16.849  1.00  0.00    -0.337 N 
HETATM   26  C5  UNL     1      15.236  22.531  16.265  1.00  0.00     0.361 C 
HETATM   27  O2  UNL     1      14.355  23.152  16.918  1.00  0.00    -0.238 OA
ATOM     28  H1  UNL     1      16.975  21.346  16.241  1.00  0.00     0.164 HD
BRANCH  26  29
HETATM   29  O1  UNL     1      15.087  22.580  14.862  1.00  0.00    -0.294 OA
BRANCH  29  30
HETATM   30  C2  UNL     1      14.185  21.691  14.256  1.00  0.00     0.061 C 
HETATM   31  C1  UNL     1      13.874  20.489  15.100  1.00  0.00     0.046 C 
HETATM   32  C3  UNL     1      12.890  22.400  13.900  1.00  0.00     0.046 C 
HETATM   33  C4  UNL     1      14.840  21.192  12.974  1.00  0.00     0.046 C 
ENDBRANCH  29  30
ENDBRANCH  26  29
ENDBRANCH  24  25
ENDBRANCH  23  24
ENDBRANCH  22  23
ENDBRANCH  21  22
ENDBRANCH   1  21
BRANCH   7  34
HETATM   34  C14 UNL     1      24.461  25.608  19.901  1.00  0.00     0.091 C 
HETATM   35  S1  UNL     1      25.963  24.837  19.234  1.00  0.00    -0.097 SA
ENDBRANCH   7  34
BRANCH   9  36
HETATM   36  C17 UNL     1      24.701  27.345  15.783  1.00  0.00     0.008 C 
HETATM   37  C18 UNL     1      26.028  26.624  15.827  1.00  0.00     0.007 C 
HETATM   38  C19 UNL     1      26.667  27.983  16.141  1.00  0.00     0.001 C 
HETATM   39  C20 UNL     1      25.288  28.384  16.684  1.00  0.00     0.007 C 
ENDBRANCH   9  36
TORSDOF 9
ENDMDL
MODEL 3
REMARK VINA RESULT: -7.780028426      1.358      1.800
REMARK  9 active torsions:
REMARK  status: ('A' for Active; 'I' for Inactive)
REMARK    1  A    between atoms: C2_2  and  O1_5 
REMARK    2  A    between atoms: O1_5  and  C5_6 
REMARK       I    between atoms: C5_6  and  N1_8 
REMARK    3  A    between atoms: N1_8  and  C6_10 
REMARK    4  A    between atoms: C6_10  and  C7_11 
REMARK    5  A    between atoms: C7_11  and  C8_12 
REMARK    6  A    between atoms: C8_12  and  C9_13 
REMARK    7  A    between atoms: C9_13  and  C10_14 
REMARK    8  A    between atoms: C13_20  and  C14_21 
REMARK    9  A    between atoms: C16_24  and  C17_25 
ROOT
HETATM    1  C10 UNL     1      19.677  24.784  17.329  1.00  0.00     0.176 C 
HETATM    2  N2  UNL     1      18.325  24.964  17.046  1.00  0.00    -0.348 N 
ATOM      3  H2  UNL     1      17.902  25.641  17.682  1.00  0.00     0.163 HD
HETATM    4  C11 UNL     1      17.393  24.480  16.139  1.00  0.00     0.218 C 
HETATM    5  O3  UNL     1      16.701  25.319  15.445  1.00  0.00    -0.274 OA
HETATM    6  C12 UNL     1      17.079  23.077  15.854  1.00  0.00     0.108 C 
HETATM    7  C13 UNL     1      15.696  22.616  16.073  1.00  0.00     0.006 C 
HETATM    8  C15 UNL     1      15.751  21.462  17.042  1.00  0.00     0.031 C 
HETATM    9  C16 UNL     1      15.852  21.896  18.491  1.00  0.00     0.089 C 
HETATM   10  N3  UNL     1      17.043  21.374  19.129  1.00  0.00    -0.354 N 
ATOM     11  H3  UNL     1      17.020  20.372  19.319  1.00  0.00     0.162 HD
HETATM   12  C21 UNL     1      18.215  22.011  19.527  1.00  0.00     0.241 C 
HETATM   13  O4  UNL     1      19.301  21.436  19.117  1.00  0.00    -0.271 OA
HETATM   14  C22 UNL     1      18.477  23.183  20.306  1.00  0.00     0.179 C 
HETATM   15  C23 UNL     1      17.410  24.146  20.644  1.00  0.00     0.037 C 
HETATM   16  C24 UNL     1      18.255  25.145  21.469  1.00  0.00     0.022 C 
HETATM   17  C25 UNL     1      19.692  24.700  21.256  1.00  0.00     0.127 C 
HETATM   18  N4  UNL     1      19.526  24.109  19.892  1.00  0.00    -0.337 N 
HETATM   19  C26 UNL     1      20.131  24.330  18.646  1.00  0.00     0.243 C 
HETATM   20  O5  UNL     1      21.380  24.072  18.682  1.00  0.00    -0.271 OA
ENDROOT
BRANCH   1  21
HETATM   21  C9  UNL     1      20.352  24.020  16.205  1.00  0.00     0.035 C 
BRANCH  21  22
HETATM   22  C8  UNL     1      20.858  24.804  15.086  1.00  0.00     0.004 C 
BRANCH  22  23
HETATM   23  C7  UNL     1      21.318  26.160  15.628  1.00  0.00     0.020 C 
BRANCH  23  24
HETATM   24  C6  UNL     1      22.771  26.265  15.823  1.00  0.00     0.125 C 
BRANCH  24  25
HETATM   25  N1  UNL     1      23.181  25.922  17.151  1.00  0.00    -0.337 N 
HETATM   26  C5  UNL     1      24.192  26.634  17.836  1.00  0.00     0.361 C 
HETATM   27  O2  UNL     1      24.820  27.615  17.356  1.00  0.00    -0.238 OA
ATOM     28  H1  UNL     1      22.729  25.137  17.618  1.00  0.00     0.164 HD
BRANCH  26  29
HETATM   29  O1  UNL     1      24.565  26.267  19.147  1.00  0.00    -0.294 OA
BRANCH  29  30
HETATM   30  C2  UNL     1      25.539  25.269  19.308  1.00  0.00     0.061 C 
HETATM   31  C1  UNL     1      26.139  24.807  18.012  1.00  0.00     0.046 C 
HETATM   32  C3  UNL     1      26.648  25.744  20.230  1.00  0.00     0.046 C 
HETATM   33  C4  UNL     1      24.851  24.069  19.947  1.00  0.00     0.046 C 
ENDBRANCH  29  30
ENDBRANCH  26  29
ENDBRANCH  24  25
ENDBRANCH  23  24
ENDBRANCH  22  23
ENDBRANCH  21  22
ENDBRANCH   1  21
BRANCH   7  34
HETATM   34  C14 UNL     1      14.991  22.146  14.824  1.00  0.00     0.091 C 
HETATM   35  S1  UNL     1      13.217  22.529  14.875  1.00  0.00    -0.097 SA
ENDBRANCH   7  34
BRANCH   9  36
HETATM   36  C17 UNL     1      14.686  21.208  19.190  1.00  0.00     0.008 C 
HETATM   37  C18 UNL     1      15.104  20.258  20.289  1.00  0.00     0.007 C 
HETATM   38  C19 UNL     1      13.952  19.352  19.835  1.00  0.00     0.001 C 
HETATM   39  C20 UNL     1      14.091  20.040  18.470  1.00  0.00     0.007 C 
ENDBRANCH   9  36
TORSDOF 9
ENDMDL
MODEL 4
REMARK VINA RESULT: -7.753194362      1.549      2.005
REMARK  9 active torsions:
REMARK  status: ('A' for Active; 'I' for Inactive)
REMARK    1  A    between atoms: C2_2  and  O1_5 
REMARK    2  A    between atoms: O1_5  and  C5_6 
REMARK       I    between atoms: C5_6  and  N1_8 
REMARK    3  A    between atoms: N1_8  and  C6_10 
REMARK    4  A    between atoms: C6_10  and  C7_11 
REMARK    5  A    between atoms: C7_11  and  C8_12 
REMARK    6  A    between atoms: C8_12  and  C9_13 
REMARK    7  A    between atoms: C9_13  and  C10_14 
REMARK    8  A    between atoms: C13_20  and  C14_21 
REMARK    9  A    between atoms: C16_24  and  C17_25 
ROOT
HETATM    1  C10 UNL     1      17.557  24.524  16.352  1.00  0.00     0.176 C 
HETATM    2  N2  UNL     1      16.188  24.346  16.545  1.00  0.00    -0.348 N 
ATOM      3  H2  UNL     1      15.894  24.708  17.452  1.00  0.00     0.163 HD
HETATM    4  C11 UNL     1      15.114  23.814  15.845  1.00  0.00     0.218 C 
HETATM    5  O3  UNL     1      14.059  24.537  15.676  1.00  0.00    -0.274 OA
HETATM    6  C12 UNL     1      15.019  22.479  15.248  1.00  0.00     0.108 C 
HETATM    7  C13 UNL     1      13.939  21.588  15.707  1.00  0.00     0.006 C 
HETATM    8  C15 UNL     1      14.582  20.322  16.214  1.00  0.00     0.031 C 
HETATM    9  C16 UNL     1      15.109  20.438  17.631  1.00  0.00     0.089 C 
HETATM   10  N3  UNL     1      16.532  20.173  17.702  1.00  0.00    -0.354 N 
ATOM     11  H3  UNL     1      16.788  19.194  17.572  1.00  0.00     0.162 HD
HETATM   12  C21 UNL     1      17.606  21.030  17.917  1.00  0.00     0.241 C 
HETATM   13  O4  UNL     1      18.565  20.912  17.053  1.00  0.00    -0.271 OA
HETATM   14  C22 UNL     1      17.882  22.026  18.906  1.00  0.00     0.179 C 
HETATM   15  C23 UNL     1      16.835  22.525  19.820  1.00  0.00     0.037 C 
HETATM   16  C24 UNL     1      17.692  23.527  20.628  1.00  0.00     0.022 C 
HETATM   17  C25 UNL     1      19.013  23.593  19.880  1.00  0.00     0.127 C 
HETATM   18  N4  UNL     1      18.490  23.292  18.510  1.00  0.00    -0.337 N 
HETATM   19  C26 UNL     1      18.542  23.951  17.274  1.00  0.00     0.243 C 
HETATM   20  O5  UNL     1      19.743  24.080  16.863  1.00  0.00    -0.271 OA
ENDROOT
BRANCH   1  21
HETATM   21  C9  UNL     1      17.922  24.263  14.903  1.00  0.00     0.035 C 
BRANCH  21  22
HETATM   22  C8  UNL     1      18.099  25.430  14.047  1.00  0.00     0.004 C 
BRANCH  22  23
HETATM   23  C7  UNL     1      19.541  25.920  14.209  1.00  0.00     0.020 C 
BRANCH  23  24
HETATM   24  C6  UNL     1      19.658  27.367  14.437  1.00  0.00     0.125 C 
BRANCH  24  25
HETATM   25  N1  UNL     1      20.974  27.763  14.839  1.00  0.00    -0.337 N 
HETATM   26  C5  UNL     1      21.382  27.763  16.192  1.00  0.00     0.361 C 
HETATM   27  O2  UNL     1      20.643  27.429  17.157  1.00  0.00    -0.238 OA
ATOM     28  H1  UNL     1      21.640  28.053  14.124  1.00  0.00     0.164 HD
BRANCH  26  29
HETATM   29  O1  UNL     1      22.690  28.156  16.547  1.00  0.00    -0.294 OA
BRANCH  29  30
HETATM   30  C2  UNL     1      23.713  27.196  16.492  1.00  0.00     0.061 C 
HETATM   31  C1  UNL     1      23.313  25.940  15.773  1.00  0.00     0.046 C 
HETATM   32  C3  UNL     1      24.955  27.772  15.836  1.00  0.00     0.046 C 
HETATM   33  C4  UNL     1      24.049  26.814  17.928  1.00  0.00     0.046 C 
ENDBRANCH  29  30
ENDBRANCH  26  29
ENDBRANCH  24  25
ENDBRANCH  23  24
ENDBRANCH  22  23
ENDBRANCH  21  22
ENDBRANCH   1  21
BRANCH   7  34
HETATM   34  C14 UNL     1      12.945  21.211  14.636  1.00  0.00     0.091 C 
HETATM   35  S1  UNL     1      13.663  20.053  13.436  1.00  0.00    -0.097 SA
ENDBRANCH   7  34
BRANCH   9  36
HETATM   36  C17 UNL     1      14.448  19.296  18.392  1.00  0.00     0.008 C 
HETATM   37  C18 UNL     1      12.938  19.364  18.411  1.00  0.00     0.007 C 
HETATM   38  C19 UNL     1      13.010  18.839  19.850  1.00  0.00     0.001 C 
HETATM   39  C20 UNL     1      14.425  19.432  19.882  1.00  0.00     0.007 C 
ENDBRANCH   9  36
TORSDOF 9
ENDMDL
MODEL 5
REMARK VINA RESULT: -7.722709142      3.090      9.530
REMARK  9 active torsions:
REMARK  status: ('A' for Active; 'I' for Inactive)
REMARK    1  A    between atoms: C2_2  and  O1_5 
REMARK    2  A    between atoms: O1_5  and  C5_6 
REMARK       I    between atoms: C5_6  and  N1_8 
REMARK    3  A    between atoms: N1_8  and  C6_10 
REMARK    4  A    between atoms: C6_10  and  C7_11 
REMARK    5  A    between atoms: C7_11  and  C8_12 
REMARK    6  A    between atoms: C8_12  and  C9_13 
REMARK    7  A    between atoms: C9_13  and  C10_14 
REMARK    8  A    between atoms: C13_20  and  C14_21 
REMARK    9  A    between atoms: C16_24  and  C17_25 
ROOT
HETATM    1  C10 UNL     1      18.972  24.682  17.523  1.00  0.00     0.176 C 
HETATM    2  N2  UNL     1      19.740  25.614  18.218  1.00  0.00    -0.348 N 
ATOM      3  H2  UNL     1      19.407  26.564  18.052  1.00  0.00     0.163 HD
HETATM    4  C11 UNL     1      20.833  25.609  19.074  1.00  0.00     0.218 C 
HETATM    5  O3  UNL     1      20.741  26.216  20.209  1.00  0.00    -0.274 OA
HETATM    6  C12 UNL     1      22.134  24.975  18.847  1.00  0.00     0.108 C 
HETATM    7  C13 UNL     1      23.334  25.830  18.855  1.00  0.00     0.006 C 
HETATM    8  C15 UNL     1      24.031  25.645  17.531  1.00  0.00     0.031 C 
HETATM    9  C16 UNL     1      23.430  26.472  16.411  1.00  0.00     0.089 C 
HETATM   10  N3  UNL     1      22.972  25.645  15.314  1.00  0.00    -0.354 N 
ATOM     11  H3  UNL     1      23.716  25.231  14.754  1.00  0.00     0.162 HD
HETATM   12  C21 UNL     1      21.684  25.320  14.898  1.00  0.00     0.241 C 
HETATM   13  O4  UNL     1      21.484  24.052  14.723  1.00  0.00    -0.271 OA
HETATM   14  C22 UNL     1      20.519  26.101  14.615  1.00  0.00     0.179 C 
HETATM   15  C23 UNL     1      20.425  27.523  15.002  1.00  0.00     0.037 C 
HETATM   16  C24 UNL     1      19.011  27.818  14.449  1.00  0.00     0.022 C 
HETATM   17  C25 UNL     1      18.460  26.458  14.057  1.00  0.00     0.127 C 
HETATM   18  N4  UNL     1      19.209  25.636  15.058  1.00  0.00    -0.337 N 
HETATM   19  C26 UNL     1      18.835  24.735  16.065  1.00  0.00     0.243 C 
HETATM   20  O5  UNL     1      18.227  23.722  15.584  1.00  0.00    -0.271 OA
ENDROOT
BRANCH   1  21
HETATM   21  C9  UNL     1      19.279  23.278  18.011  1.00  0.00     0.035 C 
BRANCH  21  22
HETATM   22  C8  UNL     1      18.537  22.806  19.172  1.00  0.00     0.004 C 
BRANCH  22  23
HETATM   23  C7  UNL     1      17.522  21.765  18.693  1.00  0.00     0.020 C 
BRANCH  23  24
HETATM   24  C6  UNL     1      16.194  22.319  18.393  1.00  0.00     0.125 C 
BRANCH  24  25
HETATM   25  N1  UNL     1      15.135  21.613  19.049  1.00  0.00    -0.337 N 
HETATM   26  C5  UNL     1      14.399  20.591  18.410  1.00  0.00     0.361 C 
HETATM   27  O2  UNL     1      14.594  20.210  17.224  1.00  0.00    -0.238 OA
ATOM     28  H1  UNL     1      14.905  21.857  20.012  1.00  0.00     0.164 HD
BRANCH  26  29
HETATM   29  O1  UNL     1      13.365  19.915  19.093  1.00  0.00    -0.294 OA
BRANCH  29  30
HETATM   30  C2  UNL     1      13.699  18.792  19.866  1.00  0.00     0.061 C 
HETATM   31  C1  UNL     1      14.319  17.682  19.067  1.00  0.00     0.046 C 
HETATM   32  C3  UNL     1      14.637  19.178  20.996  1.00  0.00     0.046 C 
HETATM   33  C4  UNL     1      12.405  18.257  20.465  1.00  0.00     0.046 C 
ENDBRANCH  29  30
ENDBRANCH  26  29
ENDBRANCH  24  25
ENDBRANCH  23  24
ENDBRANCH  22  23
ENDBRANCH  21  22
ENDBRANCH   1  21
BRANCH   7  34
HETATM   34  C14 UNL     1      24.320  25.510  19.952  1.00  0.00     0.091 C 
HETATM   35  S1  UNL     1      25.857  24.810  19.284  1.00  0.00    -0.097 SA
ENDBRANCH   7  34
BRANCH   9  36
HETATM   36  C17 UNL     1      24.594  27.279  15.849  1.00  0.00     0.008 C 
HETATM   37  C18 UNL     1      25.920  26.555  15.894  1.00  0.00     0.007 C 
HETATM   38  C19 UNL     1      26.559  27.910  16.226  1.00  0.00     0.001 C 
HETATM   39  C20 UNL     1      25.177  28.308  16.764  1.00  0.00     0.007 C 
ENDBRANCH   9  36
TORSDOF 9
ENDMDL
