MODEL 1
REMARK VINA RESULT: -9.655399392      0.000      0.000
REMARK  11 active torsions:
REMARK  status: ('A' for Active; 'I' for Inactive)
REMARK    1  A    between atoms: C2_2  and  N1_3 
REMARK    2  A    between atoms: N1_3  and  C3_4 
REMARK    3  A    between atoms: N1_3  and  C26_38 
REMARK    4  A    between atoms: C5_6  and  C6_7 
REMARK    5  A    between atoms: C7_8  and  C8_9 
REMARK    6  A    between atoms: C8_9  and  N2_11 
REMARK    7  A    between atoms: C13_15  and  C14_16 
REMARK    8  A    between atoms: C14_16  and  O1_17 
REMARK    9  A    between atoms: C14_16  and  C15_19 
REMARK   10  A    between atoms: C15_19  and  O2_20 
REMARK   11  A    between atoms: N5_30  and  C20_32 
ROOT
HETATM    1  C3  UNL     1      17.121  24.281  17.039  1.00  0.00     0.076 C 
HETATM    2  C4  UNL     1      18.228  25.102  17.354  1.00  0.00     0.055 C 
HETATM    3  C5  UNL     1      19.146  25.735  16.567  1.00  0.00     0.046 C 
HETATM    4  C16 UNL     1      18.971  26.044  15.221  1.00  0.00     0.131 C 
HETATM    5  C17 UNL     1      19.860  27.021  14.662  1.00  0.00     0.106 C 
HETATM    6  N3  UNL     1      20.562  27.816  14.227  1.00  0.00    -0.191 NA
HETATM    7  C18 UNL     1      18.026  25.499  14.377  1.00  0.00     0.269 C 
HETATM    8  O3  UNL     1      18.054  25.943  13.186  1.00  0.00    -0.266 OA
HETATM    9  N4  UNL     1      17.070  24.574  14.587  1.00  0.00    -0.307 N 
ATOM     10  H4  UNL     1      16.475  24.340  13.792  1.00  0.00     0.170 HD
HETATM   11  C19 UNL     1      16.816  23.918  15.759  1.00  0.00     0.131 C 
HETATM   12  N5  UNL     1      16.210  22.823  15.641  1.00  0.00    -0.370 N 
ATOM     13  H5  UNL     1      16.013  22.330  16.512  1.00  0.00     0.161 HD
ENDROOT
BRANCH   3  14
HETATM   14  C6  UNL     1      20.402  26.126  17.138  1.00  0.00    -0.063 C 
HETATM   15  C7  UNL     1      21.445  26.450  17.638  1.00  0.00    -0.065 C 
BRANCH  15  16
HETATM   16  C8  UNL     1      22.706  26.840  18.274  1.00  0.00     0.298 C 
HETATM   17  C9  UNL     1      22.917  25.886  19.459  1.00  0.00     0.057 C 
BRANCH  16  18
HETATM   18  N2  UNL     1      23.835  26.678  17.417  1.00  0.00     0.111 N 
HETATM   19  C10 UNL     1      23.546  26.783  16.026  1.00  0.00     0.275 C 
HETATM   20  C11 UNL     1      24.696  27.513  15.401  1.00  0.00     0.033 C 
HETATM   21  C12 UNL     1      25.186  28.403  16.527  1.00  0.00     0.040 C 
HETATM   22  C13 UNL     1      24.968  27.494  17.727  1.00  0.00     0.255 C 
BRANCH  22  23
HETATM   23  C14 UNL     1      26.241  26.698  17.891  1.00  0.00     0.175 C 
BRANCH  23  24
HETATM   24  O1  UNL     1      27.025  27.310  18.866  1.00  0.00    -0.391 OA
ATOM     25  H1  UNL     1      26.945  28.252  18.771  1.00  0.00     0.210 HD
ENDBRANCH  23  24
BRANCH  23  26
HETATM   26  C15 UNL     1      26.013  25.277  18.286  1.00  0.00     0.198 C 
BRANCH  26  27
HETATM   27  O2  UNL     1      26.203  24.399  17.221  1.00  0.00    -0.398 OA
ATOM     28  H2  UNL     1      25.718  23.590  17.332  1.00  0.00     0.209 HD
ENDBRANCH  26  27
ENDBRANCH  23  26
ENDBRANCH  22  23
ENDBRANCH  16  18
ENDBRANCH  15  16
ENDBRANCH   3  14
BRANCH   1  29
HETATM   29  N1  UNL     1      16.356  23.863  18.153  1.00  0.00    -0.373 N 
BRANCH  29  30
HETATM   30  C2  UNL     1      14.924  23.825  18.071  1.00  0.00     0.119 C 
HETATM   31  C1  UNL     1      14.260  22.562  18.486  1.00  0.00     0.026 C 
ENDBRANCH  29  30
BRANCH  29  32
HETATM   32  C26 UNL     1      17.070  23.433  19.332  1.00  0.00     0.084 C 
HETATM   33  C27 UNL     1      17.560  24.594  20.165  1.00  0.00     0.025 C 
HETATM   34  C28 UNL     1      18.992  24.531  20.530  1.00  0.00     0.002 C 
HETATM   35  C29 UNL     1      19.564  23.219  20.901  1.00  0.00     0.000 C 
HETATM   36  C30 UNL     1      18.767  22.045  20.444  1.00  0.00     0.002 C 
HETATM   37  C31 UNL     1      18.184  22.442  19.070  1.00  0.00     0.025 C 
ENDBRANCH  29  32
ENDBRANCH   1  29
BRANCH  12  38
HETATM   38  C20 UNL     1      15.762  22.183  14.458  1.00  0.00     0.083 C 
HETATM   39  C21 UNL     1      14.388  21.565  14.584  1.00  0.00     0.025 C 
HETATM   40  C22 UNL     1      14.325  20.465  13.545  1.00  0.00     0.002 C 
HETATM   41  C23 UNL     1      14.517  21.108  12.189  1.00  0.00     0.000 C 
HETATM   42  C24 UNL     1      14.661  22.598  12.251  1.00  0.00     0.002 C 
HETATM   43  C25 UNL     1      15.704  23.076  13.231  1.00  0.00     0.025 C 
ENDBRANCH  12  38
TORSDOF 11
ENDMDL
MODEL 2
REMARK VINA RESULT: -9.478423909      8.782     13.892
REMARK  11 active torsions:
REMARK  status: ('A' for Active; 'I' for Inactive)
REMARK    1  A    between atoms: C2_2  and  N1_3 
REMARK    2  A    between atoms: N1_3  and  C3_4 
REMARK    3  A    between atoms: N1_3  and  C26_38 
REMARK    4  A    between atoms: C5_6  and  C6_7 
REMARK    5  A    between atoms: C7_8  and  C8_9 
REMARK    6  A    between atoms: C8_9  and  N2_11 
REMARK    7  A    between atoms: C13_15  and  C14_16 
REMARK    8  A    between atoms: C14_16  and  O1_17 
REMARK    9  A    between atoms: C14_16  and  C15_19 
REMARK   10  A    between atoms: C15_19  and  O2_20 
REMARK   11  A    between atoms: N5_30  and  C20_32 
ROOT
HETATM    1  C3  UNL     1      11.341  19.326  15.285  1.00  0.00     0.076 C 
HETATM    2  C4  UNL     1      10.755  18.431  14.361  1.00  0.00     0.055 C 
HETATM    3  C5  UNL     1      10.330  17.140  14.487  1.00  0.00     0.046 C 
HETATM    4  C16 UNL     1      10.009  16.515  15.689  1.00  0.00     0.131 C 
HETATM    5  C17 UNL     1       9.237  15.309  15.604  1.00  0.00     0.106 C 
HETATM    6  N3  UNL     1       8.605  14.356  15.529  1.00  0.00    -0.191 NA
HETATM    7  C18 UNL     1      10.363  16.947  16.950  1.00  0.00     0.269 C 
HETATM    8  O3  UNL     1       9.949  16.212  17.902  1.00  0.00    -0.266 OA
HETATM    9  N4  UNL     1      11.074  18.014  17.361  1.00  0.00    -0.307 N 
ATOM     10  H4  UNL     1      11.194  18.126  18.368  1.00  0.00     0.170 HD
HETATM   11  C19 UNL     1      11.652  18.962  16.564  1.00  0.00     0.131 C 
HETATM   12  N5  UNL     1      12.603  19.596  17.087  1.00  0.00    -0.370 N 
ATOM     13  H5  UNL     1      13.036  20.309  16.498  1.00  0.00     0.161 HD
ENDROOT
BRANCH   3  14
HETATM   14  C6  UNL     1      10.193  16.333  13.309  1.00  0.00    -0.063 C 
HETATM   15  C7  UNL     1      10.056  15.667  12.319  1.00  0.00    -0.065 C 
BRANCH  15  16
HETATM   16  C8  UNL     1       9.865  14.867  11.107  1.00  0.00     0.298 C 
HETATM   17  C9  UNL     1       8.362  14.890  10.794  1.00  0.00     0.057 C 
BRANCH  16  18
HETATM   18  N2  UNL     1      10.525  15.415   9.968  1.00  0.00     0.111 N 
HETATM   19  C10 UNL     1      11.883  15.788  10.189  1.00  0.00     0.275 C 
HETATM   20  C11 UNL     1      12.637  15.425   8.946  1.00  0.00     0.033 C 
HETATM   21  C12 UNL     1      11.862  14.237   8.412  1.00  0.00     0.040 C 
HETATM   22  C13 UNL     1      10.438  14.639   8.770  1.00  0.00     0.255 C 
BRANCH  22  23
HETATM   23  C14 UNL     1       9.913  15.426   7.594  1.00  0.00     0.175 C 
BRANCH  23  24
HETATM   24  O1  UNL     1       8.854  14.722   7.025  1.00  0.00    -0.391 OA
ATOM     25  H1  UNL     1       8.047  15.189   7.208  1.00  0.00     0.210 HD
ENDBRANCH  23  24
BRANCH  23  26
HETATM   26  C15 UNL     1       9.438  16.795   7.952  1.00  0.00     0.198 C 
BRANCH  26  27
HETATM   27  O2  UNL     1      10.315  17.786   7.516  1.00  0.00    -0.398 OA
ATOM     28  H2  UNL     1       9.924  18.651   7.553  1.00  0.00     0.209 HD
ENDBRANCH  26  27
ENDBRANCH  23  26
ENDBRANCH  22  23
ENDBRANCH  16  18
ENDBRANCH  15  16
ENDBRANCH   3  14
BRANCH   1  29
HETATM   29  N1  UNL     1      11.582  20.625  14.782  1.00  0.00    -0.373 N 
BRANCH  29  30
HETATM   30  C2  UNL     1      10.555  21.625  14.842  1.00  0.00     0.119 C 
HETATM   31  C1  UNL     1       9.264  21.305  14.180  1.00  0.00     0.026 C 
ENDBRANCH  29  30
BRANCH  29  32
HETATM   32  C26 UNL     1      12.900  20.910  14.267  1.00  0.00     0.084 C 
HETATM   33  C27 UNL     1      13.216  22.387  14.277  1.00  0.00     0.025 C 
HETATM   34  C28 UNL     1      13.722  22.919  12.992  1.00  0.00     0.002 C 
HETATM   35  C29 UNL     1      14.667  22.090  12.213  1.00  0.00     0.000 C 
HETATM   36  C30 UNL     1      14.664  20.644  12.575  1.00  0.00     0.002 C 
HETATM   37  C31 UNL     1      13.197  20.298  12.914  1.00  0.00     0.025 C 
ENDBRANCH  29  32
ENDBRANCH   1  29
BRANCH  12  38
HETATM   38  C20 UNL     1      13.155  19.452  18.384  1.00  0.00     0.083 C 
HETATM   39  C21 UNL     1      14.123  18.298  18.509  1.00  0.00     0.025 C 
HETATM   40  C22 UNL     1      14.134  17.913  19.974  1.00  0.00     0.002 C 
HETATM   41  C23 UNL     1      14.609  19.117  20.757  1.00  0.00     0.000 C 
HETATM   42  C24 UNL     1      14.968  20.286  19.892  1.00  0.00     0.002 C 
HETATM   43  C25 UNL     1      13.897  20.672  18.902  1.00  0.00     0.025 C 
ENDBRANCH  12  38
TORSDOF 11
ENDMDL
MODEL 3
REMARK VINA RESULT: -9.222755601      2.598      9.540
REMARK  11 active torsions:
REMARK  status: ('A' for Active; 'I' for Inactive)
REMARK    1  A    between atoms: C2_2  and  N1_3 
REMARK    2  A    between atoms: N1_3  and  C3_4 
REMARK    3  A    between atoms: N1_3  and  C26_38 
REMARK    4  A    between atoms: C5_6  and  C6_7 
REMARK    5  A    between atoms: C7_8  and  C8_9 
REMARK    6  A    between atoms: C8_9  and  N2_11 
REMARK    7  A    between atoms: C13_15  and  C14_16 
REMARK    8  A    between atoms: C14_16  and  O1_17 
REMARK    9  A    between atoms: C14_16  and  C15_19 
REMARK   10  A    between atoms: C15_19  and  O2_20 
REMARK   11  A    between atoms: N5_30  and  C20_32 
ROOT
HETATM    1  C3  UNL     1      20.962  25.822  17.494  1.00  0.00     0.076 C 
HETATM    2  C4  UNL     1      19.767  25.125  17.200  1.00  0.00     0.055 C 
HETATM    3  C5  UNL     1      19.076  24.170  17.888  1.00  0.00     0.046 C 
HETATM    4  C16 UNL     1      19.182  23.933  19.256  1.00  0.00     0.131 C 
HETATM    5  C17 UNL     1      18.131  23.167  19.862  1.00  0.00     0.106 C 
HETATM    6  N3  UNL     1      17.279  22.570  20.342  1.00  0.00    -0.191 NA
HETATM    7  C18 UNL     1      20.200  24.366  20.081  1.00  0.00     0.269 C 
HETATM    8  O3  UNL     1      20.076  24.032  21.301  1.00  0.00    -0.266 OA
HETATM    9  N4  UNL     1      21.310  25.084  19.826  1.00  0.00    -0.307 N 
ATOM     10  H4  UNL     1      21.916  25.290  20.621  1.00  0.00     0.170 HD
HETATM   11  C19 UNL     1      21.706  25.565  18.610  1.00  0.00     0.131 C 
HETATM   12  N5  UNL     1      22.934  25.811  18.504  1.00  0.00    -0.370 N 
ATOM     13  H5  UNL     1      23.237  26.175  17.600  1.00  0.00     0.161 HD
ENDROOT
BRANCH   3  14
HETATM   14  C6  UNL     1      18.162  23.324  17.178  1.00  0.00    -0.063 C 
HETATM   15  C7  UNL     1      17.407  22.596  16.592  1.00  0.00    -0.065 C 
BRANCH  15  16
HETATM   16  C8  UNL     1      16.499  21.686  15.890  1.00  0.00     0.298 C 
HETATM   17  C9  UNL     1      15.641  21.002  16.964  1.00  0.00     0.057 C 
BRANCH  16  18
HETATM   18  N2  UNL     1      15.594  22.363  15.020  1.00  0.00     0.111 N 
HETATM   19  C10 UNL     1      16.195  22.926  13.857  1.00  0.00     0.275 C 
HETATM   20  C11 UNL     1      15.229  22.720  12.730  1.00  0.00     0.033 C 
HETATM   21  C12 UNL     1      14.506  21.448  13.130  1.00  0.00     0.040 C 
HETATM   22  C13 UNL     1      14.431  21.624  14.639  1.00  0.00     0.255 C 
BRANCH  22  23
HETATM   23  C14 UNL     1      13.145  22.364  14.916  1.00  0.00     0.175 C 
BRANCH  23  24
HETATM   24  O1  UNL     1      12.431  21.667  15.888  1.00  0.00    -0.391 OA
ATOM     25  H1  UNL     1      11.883  21.022  15.457  1.00  0.00     0.210 HD
ENDBRANCH  23  24
BRANCH  23  26
HETATM   26  C15 UNL     1      13.348  23.765  15.387  1.00  0.00     0.198 C 
BRANCH  26  27
HETATM   27  O2  UNL     1      13.622  23.826  16.751  1.00  0.00    -0.398 OA
ATOM     28  H2  UNL     1      13.440  24.685  17.115  1.00  0.00     0.209 HD
ENDBRANCH  26  27
ENDBRANCH  23  26
ENDBRANCH  22  23
ENDBRANCH  16  18
ENDBRANCH  15  16
ENDBRANCH   3  14
BRANCH   1  29
HETATM   29  N1  UNL     1      21.326  26.803  16.543  1.00  0.00    -0.373 N 
BRANCH  29  30
HETATM   30  C2  UNL     1      22.167  27.901  16.925  1.00  0.00     0.119 C 
HETATM   31  C1  UNL     1      23.462  28.036  16.210  1.00  0.00     0.026 C 
ENDBRANCH  29  30
BRANCH  29  32
HETATM   32  C26 UNL     1      20.869  26.622  15.186  1.00  0.00     0.084 C 
HETATM   33  C27 UNL     1      19.603  27.395  14.897  1.00  0.00     0.025 C 
HETATM   34  C28 UNL     1      18.521  26.598  14.278  1.00  0.00     0.002 C 
HETATM   35  C29 UNL     1      18.885  25.601  13.249  1.00  0.00     0.000 C 
HETATM   36  C30 UNL     1      20.319  25.192  13.263  1.00  0.00     0.002 C 
HETATM   37  C31 UNL     1      20.736  25.178  14.750  1.00  0.00     0.025 C 
ENDBRANCH  29  32
ENDBRANCH   1  29
BRANCH  12  38
HETATM   38  C20 UNL     1      23.955  25.652  19.474  1.00  0.00     0.083 C 
HETATM   39  C21 UNL     1      25.001  24.629  19.095  1.00  0.00     0.025 C 
HETATM   40  C22 UNL     1      25.612  24.149  20.395  1.00  0.00     0.002 C 
HETATM   41  C23 UNL     1      26.236  25.349  21.074  1.00  0.00     0.000 C 
HETATM   42  C24 UNL     1      26.121  26.611  20.277  1.00  0.00     0.002 C 
HETATM   43  C25 UNL     1      24.720  26.921  19.811  1.00  0.00     0.025 C 
ENDBRANCH  12  38
TORSDOF 11
ENDMDL
MODEL 4
REMARK VINA RESULT: -9.182351289      1.316      1.727
REMARK  11 active torsions:
REMARK  status: ('A' for Active; 'I' for Inactive)
REMARK    1  A    between atoms: C2_2  and  N1_3 
REMARK    2  A    between atoms: N1_3  and  C3_4 
REMARK    3  A    between atoms: N1_3  and  C26_38 
REMARK    4  A    between atoms: C5_6  and  C6_7 
REMARK    5  A    between atoms: C7_8  and  C8_9 
REMARK    6  A    between atoms: C8_9  and  N2_11 
REMARK    7  A    between atoms: C13_15  and  C14_16 
REMARK    8  A    between atoms: C14_16  and  O1_17 
REMARK    9  A    between atoms: C14_16  and  C15_19 
REMARK   10  A    between atoms: C15_19  and  O2_20 
REMARK   11  A    between atoms: N5_30  and  C20_32 
ROOT
HETATM    1  C3  UNL     1      17.313  24.362  17.390  1.00  0.00     0.076 C 
HETATM    2  C4  UNL     1      18.409  25.121  17.862  1.00  0.00     0.055 C 
HETATM    3  C5  UNL     1      19.367  25.842  17.209  1.00  0.00     0.046 C 
HETATM    4  C16 UNL     1      19.257  26.330  15.910  1.00  0.00     0.131 C 
HETATM    5  C17 UNL     1      20.175  27.362  15.527  1.00  0.00     0.106 C 
HETATM    6  N3  UNL     1      20.901  28.200  15.236  1.00  0.00    -0.191 NA
HETATM    7  C18 UNL     1      18.348  25.914  14.959  1.00  0.00     0.269 C 
HETATM    8  O3  UNL     1      18.434  26.512  13.841  1.00  0.00    -0.266 OA
HETATM    9  N4  UNL     1      17.378  24.980  14.999  1.00  0.00    -0.307 N 
ATOM     10  H4  UNL     1      16.820  24.862  14.154  1.00  0.00     0.170 HD
HETATM   11  C19 UNL     1      17.067  24.177  16.060  1.00  0.00     0.131 C 
HETATM   12  N5  UNL     1      16.460  23.115  15.769  1.00  0.00    -0.370 N 
ATOM     13  H5  UNL     1      16.221  22.512  16.557  1.00  0.00     0.161 HD
ENDROOT
BRANCH   3  14
HETATM   14  C6  UNL     1      20.597  26.138  17.884  1.00  0.00    -0.063 C 
HETATM   15  C7  UNL     1      21.626  26.365  18.460  1.00  0.00    -0.065 C 
BRANCH  15  16
HETATM   16  C8  UNL     1      22.879  26.617  19.176  1.00  0.00     0.298 C 
HETATM   17  C9  UNL     1      23.409  25.250  19.634  1.00  0.00     0.057 C 
BRANCH  16  18
HETATM   18  N2  UNL     1      23.890  27.186  18.347  1.00  0.00     0.111 N 
HETATM   19  C10 UNL     1      25.152  27.365  18.984  1.00  0.00     0.275 C 
HETATM   20  C11 UNL     1      26.200  27.034  17.965  1.00  0.00     0.033 C 
HETATM   21  C12 UNL     1      25.508  26.008  17.088  1.00  0.00     0.040 C 
HETATM   22  C13 UNL     1      24.086  26.547  17.083  1.00  0.00     0.255 C 
BRANCH  22  23
HETATM   23  C14 UNL     1      24.000  27.505  15.918  1.00  0.00     0.175 C 
BRANCH  23  24
HETATM   24  O1  UNL     1      23.502  28.721  16.379  1.00  0.00    -0.391 OA
ATOM     25  H1  UNL     1      22.567  28.748  16.214  1.00  0.00     0.210 HD
ENDBRANCH  23  24
BRANCH  23  26
HETATM   26  C15 UNL     1      25.309  27.749  15.245  1.00  0.00     0.198 C 
BRANCH  26  27
HETATM   27  O2  UNL     1      25.566  29.108  15.075  1.00  0.00    -0.398 OA
ATOM     28  H2  UNL     1      24.810  29.576  14.740  1.00  0.00     0.209 HD
ENDBRANCH  26  27
ENDBRANCH  23  26
ENDBRANCH  22  23
ENDBRANCH  16  18
ENDBRANCH  15  16
ENDBRANCH   3  14
BRANCH   1  29
HETATM   29  N1  UNL     1      16.495  23.809  18.402  1.00  0.00    -0.373 N 
BRANCH  29  30
HETATM   30  C2  UNL     1      15.079  23.696  18.204  1.00  0.00     0.119 C 
HETATM   31  C1  UNL     1      14.439  22.423  18.625  1.00  0.00     0.026 C 
ENDBRANCH  29  30
BRANCH  29  32
HETATM   32  C26 UNL     1      17.145  23.320  19.595  1.00  0.00     0.084 C 
HETATM   33  C27 UNL     1      17.585  24.439  20.511  1.00  0.00     0.025 C 
HETATM   34  C28 UNL     1      18.996  24.359  20.950  1.00  0.00     0.002 C 
HETATM   35  C29 UNL     1      19.550  23.030  21.286  1.00  0.00     0.000 C 
HETATM   36  C30 UNL     1      18.783  21.880  20.730  1.00  0.00     0.002 C 
HETATM   37  C31 UNL     1      18.275  22.344  19.346  1.00  0.00     0.025 C 
ENDBRANCH  29  32
ENDBRANCH   1  29
BRANCH  12  38
HETATM   38  C20 UNL     1      16.064  22.644  14.492  1.00  0.00     0.083 C 
HETATM   39  C21 UNL     1      14.747  21.902  14.499  1.00  0.00     0.025 C 
HETATM   40  C22 UNL     1      14.772  20.987  13.293  1.00  0.00     0.002 C 
HETATM   41  C23 UNL     1      14.907  21.859  12.063  1.00  0.00     0.000 C 
HETATM   42  C24 UNL     1      14.926  23.324  12.372  1.00  0.00     0.002 C 
HETATM   43  C25 UNL     1      15.929  23.719  13.428  1.00  0.00     0.025 C 
ENDBRANCH  12  38
TORSDOF 11
ENDMDL
MODEL 5
REMARK VINA RESULT: -9.182249663      2.583      9.406
REMARK  11 active torsions:
REMARK  status: ('A' for Active; 'I' for Inactive)
REMARK    1  A    between atoms: C2_2  and  N1_3 
REMARK    2  A    between atoms: N1_3  and  C3_4 
REMARK    3  A    between atoms: N1_3  and  C26_38 
REMARK    4  A    between atoms: C5_6  and  C6_7 
REMARK    5  A    between atoms: C7_8  and  C8_9 
REMARK    6  A    between atoms: C8_9  and  N2_11 
REMARK    7  A    between atoms: C13_15  and  C14_16 
REMARK    8  A    between atoms: C14_16  and  O1_17 
REMARK    9  A    between atoms: C14_16  and  C15_19 
REMARK   10  A    between atoms: C15_19  and  O2_20 
REMARK   11  A    between atoms: N5_30  and  C20_32 
ROOT
HETATM    1  C3  UNL     1      20.828  25.676  17.649  1.00  0.00     0.076 C 
HETATM    2  C4  UNL     1      19.649  24.951  17.361  1.00  0.00     0.055 C 
HETATM    3  C5  UNL     1      18.998  23.963  18.041  1.00  0.00     0.046 C 
HETATM    4  C16 UNL     1      19.135  23.701  19.402  1.00  0.00     0.131 C 
HETATM    5  C17 UNL     1      18.118  22.893  20.010  1.00  0.00     0.106 C 
HETATM    6  N3  UNL     1      17.292  22.262  20.491  1.00  0.00    -0.191 NA
HETATM    7  C18 UNL     1      20.154  24.147  20.217  1.00  0.00     0.269 C 
HETATM    8  O3  UNL     1      20.062  23.785  21.432  1.00  0.00    -0.266 OA
HETATM    9  N4  UNL     1      21.239  24.902  19.959  1.00  0.00    -0.307 N 
ATOM     10  H4  UNL     1      21.853  25.109  20.747  1.00  0.00     0.170 HD
HETATM   11  C19 UNL     1      21.599  25.419  18.746  1.00  0.00     0.131 C 
HETATM   12  N5  UNL     1      22.818  25.703  18.625  1.00  0.00    -0.370 N 
ATOM     13  H5  UNL     1      23.093  26.093  17.723  1.00  0.00     0.161 HD
ENDROOT
BRANCH   3  14
HETATM   14  C6  UNL     1      18.096  23.105  17.329  1.00  0.00    -0.063 C 
HETATM   15  C7  UNL     1      17.323  22.402  16.737  1.00  0.00    -0.065 C 
BRANCH  15  16
HETATM   16  C8  UNL     1      16.360  21.565  16.016  1.00  0.00     0.298 C 
HETATM   17  C9  UNL     1      15.519  20.845  17.080  1.00  0.00     0.057 C 
BRANCH  16  18
HETATM   18  N2  UNL     1      15.448  22.322  15.222  1.00  0.00     0.111 N 
HETATM   19  C10 UNL     1      15.249  23.663  15.659  1.00  0.00     0.275 C 
HETATM   20  C11 UNL     1      15.143  24.507  14.425  1.00  0.00     0.033 C 
HETATM   21  C12 UNL     1      16.001  23.756  13.425  1.00  0.00     0.040 C 
HETATM   22  C13 UNL     1      15.703  22.316  13.815  1.00  0.00     0.255 C 
BRANCH  22  23
HETATM   23  C14 UNL     1      14.502  21.897  13.001  1.00  0.00     0.175 C 
BRANCH  23  24
HETATM   24  O1  UNL     1      14.622  22.438  11.722  1.00  0.00    -0.391 OA
ATOM     25  H1  UNL     1      13.872  22.995  11.557  1.00  0.00     0.210 HD
ENDBRANCH  23  24
BRANCH  23  26
HETATM   26  C15 UNL     1      14.345  20.418  12.880  1.00  0.00     0.198 C 
BRANCH  26  27
HETATM   27  O2  UNL     1      13.562  19.889  13.903  1.00  0.00    -0.398 OA
ATOM     28  H2  UNL     1      14.076  19.384  14.523  1.00  0.00     0.209 HD
ENDBRANCH  26  27
ENDBRANCH  23  26
ENDBRANCH  22  23
ENDBRANCH  16  18
ENDBRANCH  15  16
ENDBRANCH   3  14
BRANCH   1  29
HETATM   29  N1  UNL     1      21.147  26.687  16.713  1.00  0.00    -0.373 N 
BRANCH  29  30
HETATM   30  C2  UNL     1      21.851  27.865  17.133  1.00  0.00     0.119 C 
HETATM   31  C1  UNL     1      23.109  28.190  16.414  1.00  0.00     0.026 C 
ENDBRANCH  29  30
BRANCH  29  32
HETATM   32  C26 UNL     1      20.790  26.458  15.333  1.00  0.00     0.084 C 
HETATM   33  C27 UNL     1      19.619  27.305  14.893  1.00  0.00     0.025 C 
HETATM   34  C28 UNL     1      18.530  26.556  14.227  1.00  0.00     0.002 C 
HETATM   35  C29 UNL     1      18.896  25.472  13.290  1.00  0.00     0.000 C 
HETATM   36  C30 UNL     1      20.286  24.958  13.451  1.00  0.00     0.002 C 
HETATM   37  C31 UNL     1      20.578  25.004  14.968  1.00  0.00     0.025 C 
ENDBRANCH  29  32
ENDBRANCH   1  29
BRANCH  12  38
HETATM   38  C20 UNL     1      23.860  25.554  19.574  1.00  0.00     0.083 C 
HETATM   39  C21 UNL     1      24.884  24.509  19.193  1.00  0.00     0.025 C 
HETATM   40  C22 UNL     1      25.521  24.052  20.489  1.00  0.00     0.002 C 
HETATM   41  C23 UNL     1      26.176  25.259  21.125  1.00  0.00     0.000 C 
HETATM   42  C24 UNL     1      26.056  26.504  20.301  1.00  0.00     0.002 C 
HETATM   43  C25 UNL     1      24.647  26.820  19.862  1.00  0.00     0.025 C 
ENDBRANCH  12  38
TORSDOF 11
ENDMDL
