MODEL 1
REMARK VINA RESULT: -9.589197327      0.000      0.000
REMARK  8 active torsions:
REMARK  status: ('A' for Active; 'I' for Inactive)
REMARK    1  A    between atoms: C2_2  and  C3_3 
REMARK       I    between atoms: C3_3  and  N1_5 
REMARK    2  A    between atoms: N1_5  and  C4_7 
REMARK    3  A    between atoms: C4_7  and  C6_9 
REMARK    4  A    between atoms: C6_9  and  N2_10 
REMARK    5  A    between atoms: C10_14  and  N3_15 
REMARK       I    between atoms: N3_15  and  C11_17 
REMARK    6  A    between atoms: C11_17  and  C12_19 
REMARK    7  A    between atoms: C13_22  and  N5_23 
REMARK    8  A    between atoms: N7_30  and  C16_31 
ROOT
HETATM    1  C12 UNL     1      21.619  26.237  18.655  1.00  0.00     0.177 A 
HETATM    2  N4  UNL     1      21.235  26.919  17.566  1.00  0.00    -0.324 N 
ATOM      3  H4  UNL     1      20.238  27.023  17.378  1.00  0.00     0.169 HD
HETATM    4  C13 UNL     1      22.132  27.483  16.697  1.00  0.00     0.110 A 
HETATM    5  C14 UNL     1      23.467  27.337  16.958  1.00  0.00     0.029 A 
HETATM    6  C15 UNL     1      23.828  26.623  18.099  1.00  0.00     0.115 A 
HETATM    7  N6  UNL     1      22.922  26.085  18.923  1.00  0.00    -0.324 N 
ATOM      8  H6  UNL     1      23.221  25.566  19.748  1.00  0.00     0.169 HD
HETATM    9  N7  UNL     1      25.207  26.467  18.420  1.00  0.00    -0.362 N 
HETATM   10  C25 UNL     1      26.167  26.373  17.288  1.00  0.00     0.125 C 
HETATM   11  C26 UNL     1      25.694  26.934  16.034  1.00  0.00     0.025 C 
HETATM   12  C27 UNL     1      24.540  27.886  16.054  1.00  0.00     0.048 C 
ENDROOT
BRANCH   1  13
HETATM   13  C11 UNL     1      20.622  25.662  19.541  1.00  0.00     0.286 C 
HETATM   14  N3  UNL     1      19.897  24.487  19.194  1.00  0.00    -0.350 N 
ATOM     15  H3  UNL     1      20.086  24.040  18.297  1.00  0.00     0.163 HD
HETATM   16  O2  UNL     1      20.408  26.235  20.641  1.00  0.00    -0.264 OA
BRANCH  14  17
HETATM   17  C10 UNL     1      18.896  23.900  20.071  1.00  0.00     0.086 C 
HETATM   18  C9  UNL     1      18.874  22.405  19.968  1.00  0.00     0.030 C 
HETATM   19  C8  UNL     1      17.542  21.958  19.426  1.00  0.00     0.046 C 
HETATM   20  C7  UNL     1      17.377  22.444  17.990  1.00  0.00     0.058 C 
HETATM   21  N2  UNL     1      16.622  23.606  17.880  1.00  0.00    -0.388 N 
HETATM   22  C29 UNL     1      17.086  24.780  18.539  1.00  0.00     0.124 C 
HETATM   23  C28 UNL     1      17.574  24.576  19.952  1.00  0.00     0.045 C 
BRANCH  21  24
HETATM   24  C6  UNL     1      16.090  23.911  16.610  1.00  0.00     0.174 C 
BRANCH  24  25
HETATM   25  C4  UNL     1      16.718  23.323  15.395  1.00  0.00     0.004 C 
HETATM   26  C5  UNL     1      15.837  22.587  14.453  1.00  0.00     0.065 C 
BRANCH  25  27
HETATM   27  N1  UNL     1      17.690  24.204  14.778  1.00  0.00    -0.330 N 
HETATM   28  C3  UNL     1      19.034  24.349  15.188  1.00  0.00     0.244 C 
HETATM   29  O1  UNL     1      19.469  23.685  16.155  1.00  0.00    -0.268 OA
ATOM     30  H1  UNL     1      17.378  24.764  13.985  1.00  0.00     0.168 HD
BRANCH  28  31
HETATM   31  C2  UNL     1      19.906  25.258  14.493  1.00  0.00     0.064 C 
HETATM   32  C1  UNL     1      21.157  24.924  14.261  1.00  0.00     0.017 C 
ENDBRANCH  28  31
ENDBRANCH  25  27
ENDBRANCH  24  25
ENDBRANCH  21  24
ENDBRANCH  14  17
ENDBRANCH   1  13
BRANCH   4  33
HETATM   33  N5  UNL     1      21.725  28.128  15.677  1.00  0.00    -0.385 N 
ATOM     34  H52 UNL     1      22.207  28.968  15.355  1.00  0.00     0.157 HD
ATOM     35  H51 UNL     1      20.903  27.815  15.161  1.00  0.00     0.157 HD
ENDBRANCH   4  33
BRANCH   9  36
HETATM   36  C16 UNL     1      25.754  26.376  19.679  1.00  0.00     0.090 C 
HETATM   37  C17 UNL     1      26.951  26.858  20.271  1.00  0.00     0.026 C 
HETATM   38  C18 UNL     1      26.931  26.104  21.645  1.00  0.00     0.007 C 
HETATM   39  C19 UNL     1      26.991  24.769  21.062  1.00  0.00    -0.008 C 
HETATM   40  C20 UNL     1      26.708  23.576  21.858  1.00  0.00     0.005 C 
HETATM   41  C24 UNL     1      25.888  24.868  19.979  1.00  0.00     0.012 C 
HETATM   42  C21 UNL     1      26.468  22.444  20.845  1.00  0.00     0.000 C 
HETATM   43  C22 UNL     1      27.125  22.803  19.506  1.00  0.00     0.000 C 
HETATM   44  C23 UNL     1      26.439  24.029  18.890  1.00  0.00     0.007 C 
ENDBRANCH   9  36
TORSDOF 8
ENDMDL
MODEL 2
REMARK VINA RESULT: -9.532211761      5.152     11.969
REMARK  8 active torsions:
REMARK  status: ('A' for Active; 'I' for Inactive)
REMARK    1  A    between atoms: C2_2  and  C3_3 
REMARK       I    between atoms: C3_3  and  N1_5 
REMARK    2  A    between atoms: N1_5  and  C4_7 
REMARK    3  A    between atoms: C4_7  and  C6_9 
REMARK    4  A    between atoms: C6_9  and  N2_10 
REMARK    5  A    between atoms: C10_14  and  N3_15 
REMARK       I    between atoms: N3_15  and  C11_17 
REMARK    6  A    between atoms: C11_17  and  C12_19 
REMARK    7  A    between atoms: C13_22  and  N5_23 
REMARK    8  A    between atoms: N7_30  and  C16_31 
ROOT
HETATM    1  C12 UNL     1      14.055  20.933  16.551  1.00  0.00     0.177 A 
HETATM    2  N4  UNL     1      14.157  21.689  15.448  1.00  0.00    -0.324 N 
ATOM      3  H4  UNL     1      15.036  22.171  15.263  1.00  0.00     0.169 HD
HETATM    4  C13 UNL     1      13.124  21.838  14.560  1.00  0.00     0.110 A 
HETATM    5  C14 UNL     1      11.948  21.188  14.819  1.00  0.00     0.029 A 
HETATM    6  C15 UNL     1      11.880  20.411  15.973  1.00  0.00     0.115 A 
HETATM    7  N6  UNL     1      12.911  20.291  16.817  1.00  0.00    -0.324 N 
ATOM      8  H6  UNL     1      12.825  19.716  17.655  1.00  0.00     0.169 HD
HETATM    9  N7  UNL     1      10.681  19.699  16.268  1.00  0.00    -0.362 N 
HETATM   10  C25 UNL     1       9.397  20.320  15.849  1.00  0.00     0.125 C 
HETATM   11  C26 UNL     1       9.507  21.297  14.780  1.00  0.00     0.025 C 
HETATM   12  C27 UNL     1      10.737  21.308  13.930  1.00  0.00     0.048 C 
ENDROOT
BRANCH   1  13
HETATM   13  C11 UNL     1      15.185  20.811  17.455  1.00  0.00     0.286 C 
HETATM   14  N3  UNL     1      16.078  21.894  17.691  1.00  0.00    -0.350 N 
ATOM     15  H3  UNL     1      15.916  22.778  17.209  1.00  0.00     0.163 HD
HETATM   16  O2  UNL     1      15.362  19.708  18.035  1.00  0.00    -0.264 OA
BRANCH  14  17
HETATM   17  C10 UNL     1      17.214  21.786  18.594  1.00  0.00     0.086 C 
HETATM   18  C9  UNL     1      16.941  22.444  19.912  1.00  0.00     0.030 C 
HETATM   19  C8  UNL     1      17.886  23.602  20.103  1.00  0.00     0.046 C 
HETATM   20  C7  UNL     1      17.596  24.683  19.067  1.00  0.00     0.058 C 
HETATM   21  N2  UNL     1      18.446  24.640  17.967  1.00  0.00    -0.388 N 
HETATM   22  C29 UNL     1      18.462  23.462  17.169  1.00  0.00     0.124 C 
HETATM   23  C28 UNL     1      18.496  22.163  17.937  1.00  0.00     0.045 C 
BRANCH  21  24
HETATM   24  C6  UNL     1      18.522  25.800  17.167  1.00  0.00     0.174 C 
BRANCH  24  25
HETATM   25  C4  UNL     1      19.251  25.746  15.871  1.00  0.00     0.004 C 
HETATM   26  C5  UNL     1      18.477  26.021  14.634  1.00  0.00     0.065 C 
BRANCH  25  27
HETATM   27  N1  UNL     1      20.562  26.362  15.934  1.00  0.00    -0.330 N 
HETATM   28  C3  UNL     1      21.730  25.854  15.324  1.00  0.00     0.244 C 
HETATM   29  O1  UNL     1      21.682  24.791  14.666  1.00  0.00    -0.268 OA
ATOM     30  H1  UNL     1      20.647  27.231  16.460  1.00  0.00     0.168 HD
BRANCH  28  31
HETATM   31  C2  UNL     1      22.978  26.558  15.458  1.00  0.00     0.064 C 
HETATM   32  C1  UNL     1      23.065  27.600  16.256  1.00  0.00     0.017 C 
ENDBRANCH  28  31
ENDBRANCH  25  27
ENDBRANCH  24  25
ENDBRANCH  21  24
ENDBRANCH  14  17
ENDBRANCH   1  13
BRANCH   4  33
HETATM   33  N5  UNL     1      13.264  22.563  13.522  1.00  0.00    -0.385 N 
ATOM     34  H52 UNL     1      13.244  22.156  12.586  1.00  0.00     0.157 HD
ATOM     35  H51 UNL     1      13.402  23.570  13.608  1.00  0.00     0.157 HD
ENDBRANCH   4  33
BRANCH   9  36
HETATM   36  C16 UNL     1      10.580  18.492  16.920  1.00  0.00     0.090 C 
HETATM   37  C17 UNL     1      11.497  17.677  17.633  1.00  0.00     0.026 C 
HETATM   38  C18 UNL     1      10.651  16.372  17.826  1.00  0.00     0.007 C 
HETATM   39  C19 UNL     1      10.513  16.094  16.401  1.00  0.00    -0.008 C 
HETATM   40  C20 UNL     1       9.547  15.115  15.906  1.00  0.00     0.005 C 
HETATM   41  C24 UNL     1      10.073  17.481  15.870  1.00  0.00     0.012 C 
HETATM   42  C21 UNL     1       9.404  15.394  14.400  1.00  0.00     0.000 C 
HETATM   43  C22 UNL     1      10.644  16.144  13.895  1.00  0.00     0.000 C 
HETATM   44  C23 UNL     1      10.726  17.532  14.542  1.00  0.00     0.007 C 
ENDBRANCH   9  36
TORSDOF 8
ENDMDL
MODEL 3
REMARK VINA RESULT: -9.530842913      5.164     11.036
REMARK  8 active torsions:
REMARK  status: ('A' for Active; 'I' for Inactive)
REMARK    1  A    between atoms: C2_2  and  C3_3 
REMARK       I    between atoms: C3_3  and  N1_5 
REMARK    2  A    between atoms: N1_5  and  C4_7 
REMARK    3  A    between atoms: C4_7  and  C6_9 
REMARK    4  A    between atoms: C6_9  and  N2_10 
REMARK    5  A    between atoms: C10_14  and  N3_15 
REMARK       I    between atoms: N3_15  and  C11_17 
REMARK    6  A    between atoms: C11_17  and  C12_19 
REMARK    7  A    between atoms: C13_22  and  N5_23 
REMARK    8  A    between atoms: N7_30  and  C16_31 
ROOT
HETATM    1  C12 UNL     1      14.071  20.235  18.726  1.00  0.00     0.177 A 
HETATM    2  N4  UNL     1      13.437  19.407  19.569  1.00  0.00    -0.324 N 
ATOM      3  H4  UNL     1      13.847  19.232  20.485  1.00  0.00     0.169 HD
HETATM    4  C13 UNL     1      12.258  18.787  19.244  1.00  0.00     0.110 A 
HETATM    5  C14 UNL     1      11.718  19.027  18.011  1.00  0.00     0.029 A 
HETATM    6  C15 UNL     1      12.403  19.895  17.163  1.00  0.00     0.115 A 
HETATM    7  N6  UNL     1      13.553  20.481  17.515  1.00  0.00    -0.324 N 
ATOM      8  H6  UNL     1      14.030  21.108  16.869  1.00  0.00     0.169 HD
HETATM    9  N7  UNL     1      11.863  20.191  15.878  1.00  0.00    -0.362 N 
HETATM   10  C25 UNL     1      11.096  19.115  15.195  1.00  0.00     0.125 C 
HETATM   11  C26 UNL     1      10.562  18.089  16.072  1.00  0.00     0.025 C 
HETATM   12  C27 UNL     1      10.445  18.375  17.536  1.00  0.00     0.048 C 
ENDROOT
BRANCH   1  13
HETATM   13  C11 UNL     1      15.316  20.866  19.126  1.00  0.00     0.286 C 
HETATM   14  N3  UNL     1      16.147  21.546  18.191  1.00  0.00    -0.350 N 
ATOM     15  H3  UNL     1      15.854  21.589  17.214  1.00  0.00     0.163 HD
HETATM   16  O2  UNL     1      15.653  20.796  20.336  1.00  0.00    -0.264 OA
BRANCH  14  17
HETATM   17  C10 UNL     1      17.397  22.182  18.576  1.00  0.00     0.086 C 
HETATM   18  C9  UNL     1      17.168  23.364  19.467  1.00  0.00     0.030 C 
HETATM   19  C8  UNL     1      17.641  24.616  18.775  1.00  0.00     0.046 C 
HETATM   20  C7  UNL     1      16.777  24.886  17.548  1.00  0.00     0.058 C 
HETATM   21  N2  UNL     1      17.349  24.448  16.359  1.00  0.00    -0.388 N 
HETATM   22  C29 UNL     1      17.637  23.062  16.217  1.00  0.00     0.124 C 
HETATM   23  C28 UNL     1      18.295  22.415  17.411  1.00  0.00     0.045 C 
BRANCH  21  24
HETATM   24  C6  UNL     1      16.835  24.987  15.160  1.00  0.00     0.174 C 
BRANCH  24  25
HETATM   25  C4  UNL     1      17.737  25.153  13.989  1.00  0.00     0.004 C 
HETATM   26  C5  UNL     1      17.122  25.128  12.637  1.00  0.00     0.065 C 
BRANCH  25  27
HETATM   27  N1  UNL     1      18.747  26.174  14.193  1.00  0.00    -0.330 N 
HETATM   28  C3  UNL     1      20.141  25.951  14.196  1.00  0.00     0.244 C 
HETATM   29  O1  UNL     1      20.592  24.798  14.011  1.00  0.00    -0.268 OA
ATOM     30  H1  UNL     1      18.424  27.129  14.347  1.00  0.00     0.168 HD
BRANCH  28  31
HETATM   31  C2  UNL     1      21.047  27.048  14.410  1.00  0.00     0.064 C 
HETATM   32  C1  UNL     1      20.739  28.001  15.263  1.00  0.00     0.017 C 
ENDBRANCH  28  31
ENDBRANCH  25  27
ENDBRANCH  24  25
ENDBRANCH  21  24
ENDBRANCH  14  17
ENDBRANCH   1  13
BRANCH   4  33
HETATM   33  N5  UNL     1      11.687  18.010  20.076  1.00  0.00    -0.385 N 
ATOM     34  H52 UNL     1      12.226  17.476  20.758  1.00  0.00     0.157 HD
ATOM     35  H51 UNL     1      10.672  17.906  20.073  1.00  0.00     0.157 HD
ENDBRANCH   4  33
BRANCH   9  36
HETATM   36  C16 UNL     1      11.987  21.373  15.185  1.00  0.00     0.090 C 
HETATM   37  C17 UNL     1      11.150  22.079  14.282  1.00  0.00     0.026 C 
HETATM   38  C18 UNL     1      12.135  23.182  13.760  1.00  0.00     0.007 C 
HETATM   39  C19 UNL     1      13.078  22.242  13.165  1.00  0.00    -0.008 C 
HETATM   40  C20 UNL     1      14.413  22.665  12.747  1.00  0.00     0.005 C 
HETATM   41  C24 UNL     1      13.260  21.230  14.324  1.00  0.00     0.012 C 
HETATM   42  C21 UNL     1      15.225  21.371  12.567  1.00  0.00     0.000 C 
HETATM   43  C22 UNL     1      14.270  20.190  12.345  1.00  0.00     0.000 C 
HETATM   44  C23 UNL     1      13.423  19.948  13.601  1.00  0.00     0.007 C 
ENDBRANCH   9  36
TORSDOF 8
ENDMDL
MODEL 4
REMARK VINA RESULT: -9.440114298      2.990      9.825
REMARK  8 active torsions:
REMARK  status: ('A' for Active; 'I' for Inactive)
REMARK    1  A    between atoms: C2_2  and  C3_3 
REMARK       I    between atoms: C3_3  and  N1_5 
REMARK    2  A    between atoms: N1_5  and  C4_7 
REMARK    3  A    between atoms: C4_7  and  C6_9 
REMARK    4  A    between atoms: C6_9  and  N2_10 
REMARK    5  A    between atoms: C10_14  and  N3_15 
REMARK       I    between atoms: N3_15  and  C11_17 
REMARK    6  A    between atoms: C11_17  and  C12_19 
REMARK    7  A    between atoms: C13_22  and  N5_23 
REMARK    8  A    between atoms: N7_30  and  C16_31 
ROOT
HETATM    1  C12 UNL     1      15.641  23.404  14.396  1.00  0.00     0.177 A 
HETATM    2  N4  UNL     1      15.438  22.761  13.237  1.00  0.00    -0.324 N 
ATOM      3  H4  UNL     1      15.890  23.114  12.394  1.00  0.00     0.169 HD
HETATM    4  C13 UNL     1      14.646  21.646  13.143  1.00  0.00     0.110 A 
HETATM    5  C14 UNL     1      14.044  21.182  14.280  1.00  0.00     0.029 A 
HETATM    6  C15 UNL     1      14.279  21.874  15.465  1.00  0.00     0.115 A 
HETATM    7  N6  UNL     1      15.059  22.961  15.517  1.00  0.00    -0.324 N 
ATOM      8  H6  UNL     1      15.207  23.446  16.402  1.00  0.00     0.169 HD
HETATM    9  N7  UNL     1      13.689  21.411  16.677  1.00  0.00    -0.362 N 
HETATM   10  C25 UNL     1      12.357  20.758  16.582  1.00  0.00     0.125 C 
HETATM   11  C26 UNL     1      12.027  20.222  15.273  1.00  0.00     0.025 C 
HETATM   12  C27 UNL     1      13.127  19.986  14.287  1.00  0.00     0.048 C 
ENDROOT
BRANCH   1  13
HETATM   13  C11 UNL     1      16.493  24.580  14.435  1.00  0.00     0.286 C 
HETATM   14  N3  UNL     1      17.870  24.521  14.080  1.00  0.00    -0.350 N 
ATOM     15  H3  UNL     1      18.265  23.626  13.791  1.00  0.00     0.163 HD
HETATM   16  O2  UNL     1      15.980  25.671  14.796  1.00  0.00    -0.264 OA
BRANCH  14  17
HETATM   17  C10 UNL     1      18.736  25.689  14.115  1.00  0.00     0.086 C 
HETATM   18  C9  UNL     1      20.102  25.386  13.579  1.00  0.00     0.030 C 
HETATM   19  C8  UNL     1      21.122  25.558  14.675  1.00  0.00     0.046 C 
HETATM   20  C7  UNL     1      20.894  24.513  15.762  1.00  0.00     0.058 C 
HETATM   21  N2  UNL     1      20.177  24.992  16.852  1.00  0.00    -0.388 N 
HETATM   22  C29 UNL     1      18.859  25.482  16.632  1.00  0.00     0.124 C 
HETATM   23  C28 UNL     1      18.697  26.383  15.432  1.00  0.00     0.045 C 
BRANCH  21  24
HETATM   24  C6  UNL     1      20.252  24.250  18.049  1.00  0.00     0.174 C 
BRANCH  24  25
HETATM   25  C4  UNL     1      20.662  24.932  19.307  1.00  0.00     0.004 C 
HETATM   26  C5  UNL     1      19.945  24.563  20.554  1.00  0.00     0.065 C 
BRANCH  25  27
HETATM   27  N1  UNL     1      22.100  25.070  19.433  1.00  0.00    -0.330 N 
HETATM   28  C3  UNL     1      22.858  26.163  18.959  1.00  0.00     0.244 C 
HETATM   29  O1  UNL     1      22.290  27.113  18.376  1.00  0.00    -0.268 OA
ATOM     30  H1  UNL     1      22.604  24.317  19.902  1.00  0.00     0.168 HD
BRANCH  28  31
HETATM   31  C2  UNL     1      24.284  26.186  19.144  1.00  0.00     0.064 C 
HETATM   32  C1  UNL     1      24.915  25.104  19.548  1.00  0.00     0.017 C 
ENDBRANCH  28  31
ENDBRANCH  25  27
ENDBRANCH  24  25
ENDBRANCH  21  24
ENDBRANCH  14  17
ENDBRANCH   1  13
BRANCH   4  33
HETATM   33  N5  UNL     1      14.483  21.062  12.023  1.00  0.00    -0.385 N 
ATOM     34  H52 UNL     1      14.618  21.560  11.142  1.00  0.00     0.157 HD
ATOM     35  H51 UNL     1      14.210  20.080  11.987  1.00  0.00     0.157 HD
ENDBRANCH   4  33
BRANCH   9  36
HETATM   36  C16 UNL     1      14.217  21.516  17.943  1.00  0.00     0.090 C 
HETATM   37  C17 UNL     1      15.522  21.752  18.450  1.00  0.00     0.026 C 
HETATM   38  C18 UNL     1      15.307  21.463  19.976  1.00  0.00     0.007 C 
HETATM   39  C19 UNL     1      14.928  20.066  19.791  1.00  0.00    -0.008 C 
HETATM   40  C20 UNL     1      14.310  19.296  20.869  1.00  0.00     0.005 C 
HETATM   41  C24 UNL     1      13.880  20.190  18.657  1.00  0.00     0.012 C 
HETATM   42  C21 UNL     1      13.698  18.055  20.198  1.00  0.00     0.000 C 
HETATM   43  C22 UNL     1      14.393  17.800  18.854  1.00  0.00     0.000 C 
HETATM   44  C23 UNL     1      14.108  18.950  17.881  1.00  0.00     0.007 C 
ENDBRANCH   9  36
TORSDOF 8
ENDMDL
MODEL 5
REMARK VINA RESULT: -9.381506120      3.085     10.632
REMARK  8 active torsions:
REMARK  status: ('A' for Active; 'I' for Inactive)
REMARK    1  A    between atoms: C2_2  and  C3_3 
REMARK       I    between atoms: C3_3  and  N1_5 
REMARK    2  A    between atoms: N1_5  and  C4_7 
REMARK    3  A    between atoms: C4_7  and  C6_9 
REMARK    4  A    between atoms: C6_9  and  N2_10 
REMARK    5  A    between atoms: C10_14  and  N3_15 
REMARK       I    between atoms: N3_15  and  C11_17 
REMARK    6  A    between atoms: C11_17  and  C12_19 
REMARK    7  A    between atoms: C13_22  and  N5_23 
REMARK    8  A    between atoms: N7_30  and  C16_31 
ROOT
HETATM    1  C12 UNL     1      16.886  23.571  16.439  1.00  0.00     0.177 A 
HETATM    2  N4  UNL     1      17.185  23.692  17.741  1.00  0.00    -0.324 N 
ATOM      3  H4  UNL     1      17.893  24.369  18.021  1.00  0.00     0.169 HD
HETATM    4  C13 UNL     1      16.574  22.938  18.709  1.00  0.00     0.110 A 
HETATM    5  C14 UNL     1      15.627  22.030  18.322  1.00  0.00     0.029 A 
HETATM    6  C15 UNL     1      15.341  21.934  16.962  1.00  0.00     0.115 A 
HETATM    7  N6  UNL     1      15.960  22.687  16.045  1.00  0.00    -0.324 N 
ATOM      8  H6  UNL     1      15.729  22.589  15.057  1.00  0.00     0.169 HD
HETATM    9  N7  UNL     1      14.344  21.018  16.518  1.00  0.00    -0.362 N 
HETATM   10  C25 UNL     1      14.187  19.754  17.286  1.00  0.00     0.125 C 
HETATM   11  C26 UNL     1      14.688  19.797  18.649  1.00  0.00     0.025 C 
HETATM   12  C27 UNL     1      14.917  21.126  19.297  1.00  0.00     0.048 C 
ENDROOT
BRANCH   1  13
HETATM   13  C11 UNL     1      17.565  24.399  15.458  1.00  0.00     0.286 C 
HETATM   14  N3  UNL     1      18.981  24.545  15.450  1.00  0.00    -0.350 N 
ATOM     15  H3  UNL     1      19.530  24.053  16.155  1.00  0.00     0.163 HD
HETATM   16  O2  UNL     1      16.864  24.996  14.600  1.00  0.00    -0.264 OA
BRANCH  14  17
HETATM   17  C10 UNL     1      19.675  25.370  14.474  1.00  0.00     0.086 C 
HETATM   18  C9  UNL     1      21.032  24.824  14.147  1.00  0.00     0.030 C 
HETATM   19  C8  UNL     1      22.088  25.806  14.581  1.00  0.00     0.046 C 
HETATM   20  C7  UNL     1      22.081  25.936  16.100  1.00  0.00     0.058 C 
HETATM   21  N2  UNL     1      21.378  27.044  16.560  1.00  0.00    -0.388 N 
HETATM   22  C29 UNL     1      19.993  27.144  16.249  1.00  0.00     0.124 C 
HETATM   23  C28 UNL     1      19.628  26.818  14.821  1.00  0.00     0.045 C 
BRANCH  21  24
HETATM   24  C6  UNL     1      21.636  27.468  17.881  1.00  0.00     0.174 C 
BRANCH  24  25
HETATM   25  C4  UNL     1      22.179  26.494  18.867  1.00  0.00     0.004 C 
HETATM   26  C5  UNL     1      23.566  26.710  19.353  1.00  0.00     0.065 C 
BRANCH  25  27
HETATM   27  N1  UNL     1      21.214  26.121  19.882  1.00  0.00    -0.330 N 
HETATM   28  C3  UNL     1      20.187  25.167  19.717  1.00  0.00     0.244 C 
HETATM   29  O1  UNL     1      20.056  24.569  18.626  1.00  0.00    -0.268 OA
ATOM     30  H1  UNL     1      21.284  26.583  20.788  1.00  0.00     0.168 HD
BRANCH  28  31
HETATM   31  C2  UNL     1      19.287  24.879  20.803  1.00  0.00     0.064 C 
HETATM   32  C1  UNL     1      19.563  23.909  21.648  1.00  0.00     0.017 C 
ENDBRANCH  28  31
ENDBRANCH  25  27
ENDBRANCH  24  25
ENDBRANCH  21  24
ENDBRANCH  14  17
ENDBRANCH   1  13
BRANCH   4  33
HETATM   33  N5  UNL     1      16.885  23.087  19.935  1.00  0.00    -0.385 N 
ATOM     34  H52 UNL     1      17.857  23.049  20.243  1.00  0.00     0.157 HD
ATOM     35  H51 UNL     1      16.161  23.245  20.637  1.00  0.00     0.157 HD
ENDBRANCH   4  33
BRANCH   9  36
HETATM   36  C16 UNL     1      13.511  21.169  15.434  1.00  0.00     0.090 C 
HETATM   37  C17 UNL     1      12.805  22.268  14.879  1.00  0.00     0.026 C 
HETATM   38  C18 UNL     1      11.901  21.542  13.824  1.00  0.00     0.007 C 
HETATM   39  C19 UNL     1      11.179  20.738  14.803  1.00  0.00    -0.008 C 
HETATM   40  C20 UNL     1      10.355  19.601  14.396  1.00  0.00     0.005 C 
HETATM   41  C24 UNL     1      12.349  20.175  15.647  1.00  0.00     0.012 C 
HETATM   42  C21 UNL     1      10.106  18.785  15.676  1.00  0.00     0.000 C 
HETATM   43  C22 UNL     1      10.302  19.682  16.905  1.00  0.00     0.000 C 
HETATM   44  C23 UNL     1      11.765  20.132  17.007  1.00  0.00     0.007 C 
ENDBRANCH   9  36
TORSDOF 8
ENDMDL
