MODEL 1
REMARK VINA RESULT: -11.077860360      0.000      0.000
REMARK  8 active torsions:
REMARK  status: ('A' for Active; 'I' for Inactive)
REMARK    1  A    between atoms: C1_2  and  C2_4 
REMARK    2  A    between atoms: C2_4  and  C3_5 
REMARK       I    between atoms: N1_8  and  C6_9 
REMARK    3  A    between atoms: C6_9  and  C7_11 
REMARK    4  A    between atoms: N2_15  and  C11_16 
REMARK    5  A    between atoms: C11_16  and  O4_17 
REMARK    6  A    between atoms: C11_16  and  C12_19 
REMARK    7  A    between atoms: C13_22  and  C14_23 
REMARK    8  A    between atoms: C15_24  and  C16_25 
ROOT
HETATM    1  C11 UNL     1      19.612  23.978  20.259  1.00  0.00     0.293 C 
ENDROOT
BRANCH   1   2
HETATM    2  N2  UNL     1      18.371  23.729  19.622  1.00  0.00    -0.341 N 
HETATM    3  C10 UNL     1      17.589  22.652  20.013  1.00  0.00     0.066 C 
HETATM    4  C9  UNL     1      16.898  21.856  18.949  1.00  0.00     0.046 C 
HETATM    5  C8  UNL     1      17.152  22.326  17.549  1.00  0.00     0.019 C 
HETATM    6  C7  UNL     1      16.471  23.657  17.269  1.00  0.00     0.083 C 
HETATM    7  C26 UNL     1      16.347  24.453  18.558  1.00  0.00     0.059 C 
HETATM    8  C25 UNL     1      17.733  24.814  19.016  1.00  0.00     0.067 C 
BRANCH   6   9
HETATM    9  C6  UNL     1      15.119  23.441  16.722  1.00  0.00     0.224 C 
HETATM   10  N1  UNL     1      14.771  23.541  15.359  1.00  0.00    -0.352 N 
HETATM   11  C5  UNL     1      15.777  23.822  14.369  1.00  0.00     0.126 C 
HETATM   12  C27 UNL     1      13.411  23.382  14.909  1.00  0.00     0.126 C 
HETATM   13  C4  UNL     1      15.704  22.699  13.348  1.00  0.00     0.025 C 
HETATM   14  C3  UNL     1      14.383  22.453  12.763  1.00  0.00    -0.002 C 
HETATM   15  C28 UNL     1      13.209  22.617  13.669  1.00  0.00     0.025 C 
HETATM   16  O3  UNL     1      14.194  23.146  17.549  1.00  0.00    -0.273 OA
BRANCH  14  17
HETATM   17  C2  UNL     1      14.315  21.066  12.181  1.00  0.00     0.117 C 
BRANCH  17  18
HETATM   18  C1  UNL     1      13.918  20.025  13.137  1.00  0.00     0.172 C 
HETATM   19  O1  UNL     1      13.994  20.125  14.374  1.00  0.00    -0.648 OA
HETATM   20  O2  UNL     1      13.416  18.830  12.623  1.00  0.00    -0.648 OA
ENDBRANCH  17  18
ENDBRANCH  14  17
ENDBRANCH   6   9
ENDBRANCH   1   2
BRANCH   1  21
HETATM   21  O4  UNL     1      19.428  24.357  21.612  1.00  0.00    -0.369 OA
ATOM     22  H4  UNL     1      20.257  24.571  22.025  1.00  0.00     0.212 HD
ENDBRANCH   1  21
BRANCH   1  23
HETATM   23  C12 UNL     1      20.344  25.139  19.628  1.00  0.00     0.147 A 
HETATM   24  N3  UNL     1      21.044  25.140  18.487  1.00  0.00    -0.326 N 
HETATM   25  C13 UNL     1      21.557  26.380  18.275  1.00  0.00     0.134 A 
ATOM     26  H3  UNL     1      21.172  24.335  17.873  1.00  0.00     0.169 HD
HETATM   27  N5  UNL     1      21.134  27.096  19.327  1.00  0.00    -0.283 N 
HETATM   28  N6  UNL     1      20.396  26.359  20.159  1.00  0.00    -0.284 N 
ATOM     29  H5  UNL     1      21.349  28.082  19.473  1.00  0.00     0.188 HD
ATOM     30  H6  UNL     1      19.959  26.668  21.028  1.00  0.00     0.188 HD
BRANCH  25  31
HETATM   31  C14 UNL     1      22.378  26.830  17.171  1.00  0.00     0.041 A 
HETATM   32  C15 UNL     1      21.943  27.351  15.975  1.00  0.00     0.028 A 
HETATM   33  N4  UNL     1      23.013  27.654  15.212  1.00  0.00    -0.361 N 
HETATM   34  C19 UNL     1      24.163  27.341  15.885  1.00  0.00     0.016 A 
ATOM     35  H4  UNL     1      22.971  28.056  14.275  1.00  0.00     0.165 HD
HETATM   36  C20 UNL     1      23.745  26.831  17.097  1.00  0.00    -0.020 A 
HETATM   37  C24 UNL     1      25.603  27.443  15.560  1.00  0.00     0.057 C 
HETATM   38  C21 UNL     1      24.811  26.407  18.039  1.00  0.00     0.042 C 
HETATM   39  C22 UNL     1      25.799  27.583  18.076  1.00  0.00     0.005 C 
HETATM   40  C23 UNL     1      26.385  27.894  16.744  1.00  0.00     0.006 C 
BRANCH  32  41
HETATM   41  C16 UNL     1      20.526  27.545  15.589  1.00  0.00     0.036 A 
HETATM   42  C17 UNL     1      20.287  27.867  14.120  1.00  0.00     0.011 A 
HETATM   43  C18 UNL     1      19.910  26.552  14.665  1.00  0.00     0.011 A 
ENDBRANCH  32  41
ENDBRANCH  25  31
ENDBRANCH   1  23
TORSDOF 8
ENDMDL
MODEL 2
REMARK VINA RESULT: -11.072643584      2.030      2.625
REMARK  8 active torsions:
REMARK  status: ('A' for Active; 'I' for Inactive)
REMARK    1  A    between atoms: C1_2  and  C2_4 
REMARK    2  A    between atoms: C2_4  and  C3_5 
REMARK       I    between atoms: N1_8  and  C6_9 
REMARK    3  A    between atoms: C6_9  and  C7_11 
REMARK    4  A    between atoms: N2_15  and  C11_16 
REMARK    5  A    between atoms: C11_16  and  O4_17 
REMARK    6  A    between atoms: C11_16  and  C12_19 
REMARK    7  A    between atoms: C13_22  and  C14_23 
REMARK    8  A    between atoms: C15_24  and  C16_25 
ROOT
HETATM    1  C11 UNL     1      18.680  24.278  19.546  1.00  0.00     0.293 C 
ENDROOT
BRANCH   1   2
HETATM    2  N2  UNL     1      18.053  23.912  18.330  1.00  0.00    -0.341 N 
HETATM    3  C10 UNL     1      17.658  24.888  17.426  1.00  0.00     0.066 C 
HETATM    4  C9  UNL     1      16.342  24.718  16.732  1.00  0.00     0.046 C 
HETATM    5  C8  UNL     1      15.582  23.485  17.117  1.00  0.00     0.019 C 
HETATM    6  C7  UNL     1      16.246  22.225  16.585  1.00  0.00     0.083 C 
HETATM    7  C26 UNL     1      17.744  22.447  16.455  1.00  0.00     0.059 C 
HETATM    8  C25 UNL     1      18.308  22.629  17.838  1.00  0.00     0.067 C 
BRANCH   6   9
HETATM    9  C6  UNL     1      15.709  21.879  15.256  1.00  0.00     0.224 C 
HETATM   10  N1  UNL     1      14.626  21.007  15.022  1.00  0.00    -0.352 N 
HETATM   11  C5  UNL     1      13.915  20.415  16.125  1.00  0.00     0.126 C 
HETATM   12  C27 UNL     1      14.201  20.664  13.688  1.00  0.00     0.126 C 
HETATM   13  C4  UNL     1      12.452  20.785  15.943  1.00  0.00     0.025 C 
HETATM   14  C3  UNL     1      11.866  20.449  14.642  1.00  0.00    -0.002 C 
HETATM   15  C28 UNL     1      12.751  20.598  13.450  1.00  0.00     0.025 C 
HETATM   16  O3  UNL     1      16.274  22.408  14.242  1.00  0.00    -0.273 OA
BRANCH  14  17
HETATM   17  C2  UNL     1      10.631  21.273  14.393  1.00  0.00     0.117 C 
BRANCH  17  18
HETATM   18  C1  UNL     1       9.501  20.957  15.275  1.00  0.00     0.172 C 
HETATM   19  O1  UNL     1       8.662  21.779  15.682  1.00  0.00    -0.648 OA
HETATM   20  O2  UNL     1       9.352  19.635  15.691  1.00  0.00    -0.648 OA
ENDBRANCH  17  18
ENDBRANCH  14  17
ENDBRANCH   6   9
ENDBRANCH   1   2
BRANCH   1  21
HETATM   21  O4  UNL     1      17.772  24.929  20.417  1.00  0.00    -0.369 OA
ATOM     22  H4  UNL     1      17.771  25.868  20.274  1.00  0.00     0.212 HD
ENDBRANCH   1  21
BRANCH   1  23
HETATM   23  C12 UNL     1      19.790  25.281  19.325  1.00  0.00     0.147 A 
HETATM   24  N3  UNL     1      20.566  25.413  18.244  1.00  0.00    -0.326 N 
HETATM   25  C13 UNL     1      21.450  26.425  18.446  1.00  0.00     0.134 A 
ATOM     26  H3  UNL     1      20.503  24.844  17.399  1.00  0.00     0.169 HD
HETATM   27  N5  UNL     1      21.162  26.873  19.677  1.00  0.00    -0.283 N 
HETATM   28  N6  UNL     1      20.156  26.190  20.227  1.00  0.00    -0.284 N 
ATOM     29  H5  UNL     1      21.652  27.640  20.137  1.00  0.00     0.188 HD
ATOM     30  H6  UNL     1      19.751  26.334  21.151  1.00  0.00     0.188 HD
BRANCH  25  31
HETATM   31  C14 UNL     1      22.474  26.909  17.545  1.00  0.00     0.041 A 
HETATM   32  C15 UNL     1      22.283  27.548  16.342  1.00  0.00     0.028 A 
HETATM   33  N4  UNL     1      23.484  27.845  15.805  1.00  0.00    -0.361 N 
HETATM   34  C19 UNL     1      24.481  27.411  16.637  1.00  0.00     0.016 A 
ATOM     35  H4  UNL     1      23.628  28.320  14.915  1.00  0.00     0.165 HD
HETATM   36  C20 UNL     1      23.831  26.834  17.709  1.00  0.00    -0.020 A 
HETATM   37  C24 UNL     1      25.958  27.452  16.578  1.00  0.00     0.057 C 
HETATM   38  C21 UNL     1      24.692  26.275  18.781  1.00  0.00     0.042 C 
HETATM   39  C22 UNL     1      25.710  27.382  19.092  1.00  0.00     0.005 C 
HETATM   40  C23 UNL     1      26.537  27.761  17.914  1.00  0.00     0.006 C 
BRANCH  32  41
HETATM   41  C16 UNL     1      20.967  27.856  15.734  1.00  0.00     0.036 A 
HETATM   42  C17 UNL     1      20.892  27.694  14.222  1.00  0.00     0.011 A 
HETATM   43  C18 UNL     1      20.206  26.739  15.108  1.00  0.00     0.011 A 
ENDBRANCH  32  41
ENDBRANCH  25  31
ENDBRANCH   1  23
TORSDOF 8
ENDMDL
MODEL 3
REMARK VINA RESULT: -11.068454910      3.635      9.725
REMARK  8 active torsions:
REMARK  status: ('A' for Active; 'I' for Inactive)
REMARK    1  A    between atoms: C1_2  and  C2_4 
REMARK    2  A    between atoms: C2_4  and  C3_5 
REMARK       I    between atoms: N1_8  and  C6_9 
REMARK    3  A    between atoms: C6_9  and  C7_11 
REMARK    4  A    between atoms: N2_15  and  C11_16 
REMARK    5  A    between atoms: C11_16  and  O4_17 
REMARK    6  A    between atoms: C11_16  and  C12_19 
REMARK    7  A    between atoms: C13_22  and  C14_23 
REMARK    8  A    between atoms: C15_24  and  C16_25 
ROOT
HETATM    1  C11 UNL     1      11.758  20.393  14.282  1.00  0.00     0.293 C 
ENDROOT
BRANCH   1   2
HETATM    2  N2  UNL     1      12.783  21.210  13.744  1.00  0.00    -0.341 N 
HETATM    3  C10 UNL     1      13.516  20.780  12.647  1.00  0.00     0.066 C 
HETATM    4  C9  UNL     1      14.991  21.043  12.635  1.00  0.00     0.046 C 
HETATM    5  C8  UNL     1      15.513  21.750  13.849  1.00  0.00     0.019 C 
HETATM    6  C7  UNL     1      15.057  23.200  13.896  1.00  0.00     0.083 C 
HETATM    7  C26 UNL     1      13.723  23.344  13.181  1.00  0.00     0.059 C 
HETATM    8  C25 UNL     1      12.690  22.586  13.969  1.00  0.00     0.067 C 
BRANCH   6   9
HETATM    9  C6  UNL     1      16.040  24.074  13.230  1.00  0.00     0.224 C 
HETATM   10  N1  UNL     1      16.945  24.928  13.892  1.00  0.00    -0.352 N 
HETATM   11  C5  UNL     1      16.998  24.960  15.331  1.00  0.00     0.126 C 
HETATM   12  C27 UNL     1      17.831  25.804  13.169  1.00  0.00     0.126 C 
HETATM   13  C4  UNL     1      18.437  24.663  15.716  1.00  0.00     0.025 C 
HETATM   14  C3  UNL     1      19.454  25.515  15.090  1.00  0.00    -0.002 C 
HETATM   15  C28 UNL     1      19.206  25.925  13.678  1.00  0.00     0.025 C 
HETATM   16  O3  UNL     1      16.068  24.055  11.954  1.00  0.00    -0.273 OA
BRANCH  14  17
HETATM   17  C2  UNL     1      20.802  24.845  15.137  1.00  0.00     0.117 C 
BRANCH  17  18
HETATM   18  C1  UNL     1      21.862  25.654  15.751  1.00  0.00     0.172 C 
HETATM   19  O1  UNL     1      22.955  25.919  15.222  1.00  0.00    -0.648 OA
HETATM   20  O2  UNL     1      21.629  26.168  17.027  1.00  0.00    -0.648 OA
ENDBRANCH  17  18
ENDBRANCH  14  17
ENDBRANCH   6   9
ENDBRANCH   1   2
BRANCH   1  21
HETATM   21  O4  UNL     1      10.485  20.994  14.123  1.00  0.00    -0.369 OA
ATOM     22  H4  UNL     1      10.176  20.915  13.228  1.00  0.00     0.212 HD
ENDBRANCH   1  21
BRANCH   1  23
HETATM   23  C12 UNL     1      11.914  20.206  15.773  1.00  0.00     0.147 A 
HETATM   24  N3  UNL     1      13.042  20.272  16.490  1.00  0.00    -0.326 N 
HETATM   25  C13 UNL     1      12.759  20.033  17.798  1.00  0.00     0.134 A 
ATOM     26  H3  UNL     1      13.970  20.470  16.114  1.00  0.00     0.169 HD
HETATM   27  N5  UNL     1      11.433  19.827  17.815  1.00  0.00    -0.283 N 
HETATM   28  N6  UNL     1      10.904  19.928  16.594  1.00  0.00    -0.284 N 
ATOM     29  H5  UNL     1      10.897  19.619  18.657  1.00  0.00     0.188 HD
ATOM     30  H6  UNL     1       9.922  19.815  16.341  1.00  0.00     0.188 HD
BRANCH  25  31
HETATM   31  C14 UNL     1      13.674  20.002  18.918  1.00  0.00     0.041 A 
HETATM   32  C15 UNL     1      13.811  18.997  19.847  1.00  0.00     0.028 A 
HETATM   33  N4  UNL     1      14.772  19.340  20.728  1.00  0.00    -0.361 N 
HETATM   34  C19 UNL     1      15.283  20.567  20.400  1.00  0.00     0.016 A 
ATOM     35  H4  UNL     1      15.073  18.772  21.520  1.00  0.00     0.165 HD
HETATM   36  C20 UNL     1      14.586  20.958  19.274  1.00  0.00    -0.020 A 
HETATM   37  C24 UNL     1      16.327  21.436  20.987  1.00  0.00     0.057 C 
HETATM   38  C21 UNL     1      14.950  22.276  18.696  1.00  0.00     0.042 C 
HETATM   39  C22 UNL     1      16.483  22.260  18.602  1.00  0.00     0.005 C 
HETATM   40  C23 UNL     1      17.146  22.077  19.922  1.00  0.00     0.006 C 
BRANCH  32  41
HETATM   41  C16 UNL     1      13.025  17.741  19.874  1.00  0.00     0.036 A 
HETATM   42  C17 UNL     1      12.534  17.308  21.249  1.00  0.00     0.011 A 
HETATM   43  C18 UNL     1      11.585  17.825  20.248  1.00  0.00     0.011 A 
ENDBRANCH  32  41
ENDBRANCH  25  31
ENDBRANCH   1  23
TORSDOF 8
ENDMDL
MODEL 4
REMARK VINA RESULT: -11.005994842      1.794      2.180
REMARK  8 active torsions:
REMARK  status: ('A' for Active; 'I' for Inactive)
REMARK    1  A    between atoms: C1_2  and  C2_4 
REMARK    2  A    between atoms: C2_4  and  C3_5 
REMARK       I    between atoms: N1_8  and  C6_9 
REMARK    3  A    between atoms: C6_9  and  C7_11 
REMARK    4  A    between atoms: N2_15  and  C11_16 
REMARK    5  A    between atoms: C11_16  and  O4_17 
REMARK    6  A    between atoms: C11_16  and  C12_19 
REMARK    7  A    between atoms: C13_22  and  C14_23 
REMARK    8  A    between atoms: C15_24  and  C16_25 
ROOT
HETATM    1  C11 UNL     1      18.289  24.269  19.686  1.00  0.00     0.293 C 
ENDROOT
BRANCH   1   2
HETATM    2  N2  UNL     1      17.705  23.793  18.486  1.00  0.00    -0.341 N 
HETATM    3  C10 UNL     1      17.904  22.480  18.085  1.00  0.00     0.066 C 
HETATM    4  C9  UNL     1      18.143  22.213  16.631  1.00  0.00     0.046 C 
HETATM    5  C8  UNL     1      18.150  23.433  15.760  1.00  0.00     0.019 C 
HETATM    6  C7  UNL     1      16.760  24.034  15.621  1.00  0.00     0.083 C 
HETATM    7  C26 UNL     1      15.939  23.726  16.863  1.00  0.00     0.059 C 
HETATM    8  C25 UNL     1      16.562  24.452  18.024  1.00  0.00     0.067 C 
BRANCH   6   9
HETATM    9  C6  UNL     1      16.065  23.467  14.451  1.00  0.00     0.224 C 
HETATM   10  N1  UNL     1      15.302  22.281  14.457  1.00  0.00    -0.352 N 
HETATM   11  C5  UNL     1      15.107  21.546  15.680  1.00  0.00     0.126 C 
HETATM   12  C27 UNL     1      14.708  21.753  13.255  1.00  0.00     0.126 C 
HETATM   13  C4  UNL     1      13.605  21.413  15.868  1.00  0.00     0.025 C 
HETATM   14  C3  UNL     1      12.869  20.840  14.737  1.00  0.00    -0.002 C 
HETATM   15  C28 UNL     1      13.347  21.209  13.372  1.00  0.00     0.025 C 
HETATM   16  O3  UNL     1      16.167  24.099  13.348  1.00  0.00    -0.273 OA
BRANCH  14  17
HETATM   17  C2  UNL     1      11.411  21.206  14.819  1.00  0.00     0.117 C 
BRANCH  17  18
HETATM   18  C1  UNL     1      10.496  20.058  14.853  1.00  0.00     0.172 C 
HETATM   19  O1  UNL     1      10.712  18.959  14.314  1.00  0.00    -0.648 OA
HETATM   20  O2  UNL     1       9.293  20.208  15.540  1.00  0.00    -0.648 OA
ENDBRANCH  17  18
ENDBRANCH  14  17
ENDBRANCH   6   9
ENDBRANCH   1   2
BRANCH   1  21
HETATM   21  O4  UNL     1      17.364  25.035  20.438  1.00  0.00    -0.369 OA
ATOM     22  H4  UNL     1      17.767  25.386  21.224  1.00  0.00     0.212 HD
ENDBRANCH   1  21
BRANCH   1  23
HETATM   23  C12 UNL     1      19.440  25.210  19.415  1.00  0.00     0.147 A 
HETATM   24  N3  UNL     1      20.097  25.385  18.263  1.00  0.00    -0.326 N 
HETATM   25  C13 UNL     1      21.075  26.313  18.439  1.00  0.00     0.134 A 
ATOM     26  H3  UNL     1      19.896  24.898  17.389  1.00  0.00     0.169 HD
HETATM   27  N5  UNL     1      20.963  26.668  19.727  1.00  0.00    -0.283 N 
HETATM   28  N6  UNL     1      19.976  26.009  20.336  1.00  0.00    -0.284 N 
ATOM     29  H5  UNL     1      21.559  27.357  20.185  1.00  0.00     0.188 HD
ATOM     30  H6  UNL     1      19.690  26.098  21.311  1.00  0.00     0.188 HD
BRANCH  25  31
HETATM   31  C14 UNL     1      22.024  26.804  17.464  1.00  0.00     0.041 A 
HETATM   32  C15 UNL     1      21.739  27.413  16.263  1.00  0.00     0.028 A 
HETATM   33  N4  UNL     1      22.894  27.729  15.644  1.00  0.00    -0.361 N 
HETATM   34  C19 UNL     1      23.954  27.339  16.418  1.00  0.00     0.016 A 
ATOM     35  H4  UNL     1      22.967  28.189  14.737  1.00  0.00     0.165 HD
HETATM   36  C20 UNL     1      23.391  26.768  17.541  1.00  0.00    -0.020 A 
HETATM   37  C24 UNL     1      25.423  27.417  16.261  1.00  0.00     0.057 C 
HETATM   38  C21 UNL     1      24.334  26.254  18.565  1.00  0.00     0.042 C 
HETATM   39  C22 UNL     1      25.339  27.394  18.788  1.00  0.00     0.005 C 
HETATM   40  C23 UNL     1      26.078  27.769  17.551  1.00  0.00     0.006 C 
BRANCH  32  41
HETATM   41  C16 UNL     1      20.379  27.673  15.737  1.00  0.00     0.036 A 
HETATM   42  C17 UNL     1      20.287  27.855  14.227  1.00  0.00     0.011 A 
HETATM   43  C18 UNL     1      19.754  26.638  14.865  1.00  0.00     0.011 A 
ENDBRANCH  32  41
ENDBRANCH  25  31
ENDBRANCH   1  23
TORSDOF 8
ENDMDL
MODEL 5
REMARK VINA RESULT: -10.889968911      3.444     10.287
REMARK  8 active torsions:
REMARK  status: ('A' for Active; 'I' for Inactive)
REMARK    1  A    between atoms: C1_2  and  C2_4 
REMARK    2  A    between atoms: C2_4  and  C3_5 
REMARK       I    between atoms: N1_8  and  C6_9 
REMARK    3  A    between atoms: C6_9  and  C7_11 
REMARK    4  A    between atoms: N2_15  and  C11_16 
REMARK    5  A    between atoms: C11_16  and  O4_17 
REMARK    6  A    between atoms: C11_16  and  C12_19 
REMARK    7  A    between atoms: C13_22  and  C14_23 
REMARK    8  A    between atoms: C15_24  and  C16_25 
ROOT
HETATM    1  C11 UNL     1      15.680  23.705  15.149  1.00  0.00     0.293 C 
ENDROOT
BRANCH   1   2
HETATM    2  N2  UNL     1      17.035  24.118  15.170  1.00  0.00    -0.341 N 
HETATM    3  C10 UNL     1      18.032  23.225  15.536  1.00  0.00     0.066 C 
HETATM    4  C9  UNL     1      19.145  23.726  16.405  1.00  0.00     0.046 C 
HETATM    5  C8  UNL     1      19.038  25.169  16.795  1.00  0.00     0.019 C 
HETATM    6  C7  UNL     1      19.285  26.092  15.611  1.00  0.00     0.083 C 
HETATM    7  C26 UNL     1      18.879  25.397  14.322  1.00  0.00     0.059 C 
HETATM    8  C25 UNL     1      17.389  25.195  14.353  1.00  0.00     0.067 C 
BRANCH   6   9
HETATM    9  C6  UNL     1      20.713  26.445  15.521  1.00  0.00     0.224 C 
HETATM   10  N1  UNL     1      21.485  26.978  16.574  1.00  0.00    -0.352 N 
HETATM   11  C5  UNL     1      20.905  27.169  17.878  1.00  0.00     0.126 C 
HETATM   12  C27 UNL     1      22.861  27.362  16.389  1.00  0.00     0.126 C 
HETATM   13  C4  UNL     1      21.784  26.409  18.856  1.00  0.00     0.025 C 
HETATM   14  C3  UNL     1      23.214  26.735  18.816  1.00  0.00    -0.002 C 
HETATM   15  C28 UNL     1      23.796  27.026  17.474  1.00  0.00     0.025 C 
HETATM   16  O3  UNL     1      21.292  26.257  14.399  1.00  0.00    -0.273 OA
BRANCH  14  17
HETATM   17  C2  UNL     1      24.024  25.623  19.429  1.00  0.00     0.117 C 
BRANCH  17  18
HETATM   18  C1  UNL     1      25.399  25.996  19.781  1.00  0.00     0.172 C 
HETATM   19  O1  UNL     1      26.421  25.398  19.400  1.00  0.00    -0.648 OA
HETATM   20  O2  UNL     1      25.580  27.106  20.605  1.00  0.00    -0.648 OA
ENDBRANCH  17  18
ENDBRANCH  14  17
ENDBRANCH   6   9
ENDBRANCH   1   2
BRANCH   1  21
HETATM   21  O4  UNL     1      14.821  24.778  14.804  1.00  0.00    -0.369 OA
ATOM     22  H4  UNL     1      13.908  24.514  14.842  1.00  0.00     0.212 HD
ENDBRANCH   1  21
BRANCH   1  23
HETATM   23  C12 UNL     1      15.209  23.255  16.513  1.00  0.00     0.147 A 
HETATM   24  N3  UNL     1      15.392  22.061  17.086  1.00  0.00    -0.326 N 
HETATM   25  C13 UNL     1      14.804  22.055  18.311  1.00  0.00     0.134 A 
ATOM     26  H3  UNL     1      15.894  21.276  16.669  1.00  0.00     0.169 HD
HETATM   27  N5  UNL     1      14.275  23.282  18.428  1.00  0.00    -0.283 N 
HETATM   28  N6  UNL     1      14.511  24.025  17.346  1.00  0.00    -0.284 N 
ATOM     29  H5  UNL     1      13.757  23.607  19.244  1.00  0.00     0.188 HD
ATOM     30  H6  UNL     1      14.216  24.989  17.188  1.00  0.00     0.188 HD
BRANCH  25  31
HETATM   31  C14 UNL     1      14.752  20.973  19.271  1.00  0.00     0.041 A 
HETATM   32  C15 UNL     1      15.447  20.883  20.455  1.00  0.00     0.028 A 
HETATM   33  N4  UNL     1      15.123  19.727  21.069  1.00  0.00    -0.361 N 
HETATM   34  C19 UNL     1      14.216  19.039  20.308  1.00  0.00     0.016 A 
ATOM     35  H4  UNL     1      15.498  19.412  21.963  1.00  0.00     0.165 HD
HETATM   36  C20 UNL     1      14.001  19.831  19.199  1.00  0.00    -0.020 A 
HETATM   37  C24 UNL     1      13.519  17.743  20.463  1.00  0.00     0.057 C 
HETATM   38  C21 UNL     1      13.038  19.314  18.194  1.00  0.00     0.042 C 
HETATM   39  C22 UNL     1      11.804  18.893  19.005  1.00  0.00     0.005 C 
HETATM   40  C23 UNL     1      12.102  17.844  20.018  1.00  0.00     0.006 C 
BRANCH  32  41
HETATM   41  C16 UNL     1      16.402  21.894  20.968  1.00  0.00     0.036 A 
HETATM   42  C17 UNL     1      17.816  21.388  21.217  1.00  0.00     0.011 A 
HETATM   43  C18 UNL     1      17.537  22.294  20.090  1.00  0.00     0.011 A 
ENDBRANCH  32  41
ENDBRANCH  25  31
ENDBRANCH   1  23
TORSDOF 8
ENDMDL
