MODEL 1
REMARK VINA RESULT: -7.727015375      0.000      0.000
REMARK  10 active torsions:
REMARK  status: ('A' for Active; 'I' for Inactive)
REMARK    1  A    between atoms: C2_2  and  C3_3 
REMARK    2  A    between atoms: C3_3  and  C4_4 
REMARK    3  A    between atoms: C4_4  and  C5_5 
REMARK    4  A    between atoms: C8_10  and  C9_11 
REMARK    5  A    between atoms: C9_11  and  C11_13 
REMARK    6  A    between atoms: C14_18  and  C15_19 
REMARK    7  A    between atoms: C15_19  and  C16_20 
REMARK    8  A    between atoms: C23_30  and  C24_31 
REMARK    9  A    between atoms: C24_31  and  C26_33 
REMARK   10  A    between atoms: C28_35  and  O4_36 
ROOT
HETATM    1  C5  UNL     1      19.482  25.279  18.559  1.00  0.00     0.093 C 
HETATM    2  C6  UNL     1      19.557  26.411  17.583  1.00  0.00     0.136 C 
HETATM    3  C7  UNL     1      20.717  27.315  17.774  1.00  0.00     0.261 C 
HETATM    4  O1  UNL     1      20.862  27.822  18.916  1.00  0.00    -0.265 OA
HETATM    5  O2  UNL     1      21.548  27.542  16.707  1.00  0.00    -0.314 OA
HETATM    6  C8  UNL     1      22.166  26.626  15.864  1.00  0.00     0.153 C 
HETATM    7  C13 UNL     1      23.576  26.246  16.261  1.00  0.00     0.147 C 
HETATM    8  N1  UNL     1      24.029  27.074  17.327  1.00  0.00    -0.407 N 
ATOM      9  H1  UNL     1      23.449  27.286  18.140  1.00  0.00     0.154 HD
HETATM   10  C14 UNL     1      25.374  27.596  17.175  1.00  0.00     0.169 C 
HETATM   11  C22 UNL     1      26.303  27.123  18.234  1.00  0.00     0.240 C 
HETATM   12  O3  UNL     1      27.526  27.024  17.832  1.00  0.00    -0.271 OA
HETATM   13  N2  UNL     1      26.005  26.794  19.550  1.00  0.00    -0.347 N 
ATOM     14  H2  UNL     1      26.543  27.295  20.257  1.00  0.00     0.163 HD
HETATM   15  C23 UNL     1      25.040  25.840  20.065  1.00  0.00     0.163 C 
HETATM   16  C28 UNL     1      23.864  26.460  20.697  1.00  0.00     0.137 C 
HETATM   17  N3  UNL     1      22.716  25.906  21.216  1.00  0.00    -0.355 N 
HETATM   18  C29 UNL     1      22.051  26.631  22.330  1.00  0.00     0.152 C 
HETATM   19  C30 UNL     1      21.974  24.713  20.889  1.00  0.00     0.173 C 
HETATM   20  C31 UNL     1      22.359  23.984  19.665  1.00  0.00     0.042 C 
HETATM   21  C32 UNL     1      20.500  24.986  20.907  1.00  0.00     0.240 C 
HETATM   22  O5  UNL     1      19.897  24.554  21.959  1.00  0.00    -0.271 OA
HETATM   23  N4  UNL     1      19.743  25.640  19.931  1.00  0.00    -0.354 N 
ATOM     24  H4  UNL     1      19.308  26.510  20.237  1.00  0.00     0.162 HD
ENDROOT
BRANCH  10  25
HETATM   25  C15 UNL     1      25.254  29.099  17.161  1.00  0.00     0.039 C 
BRANCH  25  26
HETATM   26  C16 UNL     1      25.795  29.804  15.996  1.00  0.00    -0.012 C 
HETATM   27  C17 UNL     1      27.251  30.161  16.336  1.00  0.00     0.005 C 
HETATM   28  C18 UNL     1      27.732  31.306  15.473  1.00  0.00     0.000 C 
HETATM   29  C19 UNL     1      27.129  32.619  15.964  1.00  0.00     0.000 C 
HETATM   30  C20 UNL     1      25.774  32.266  16.541  1.00  0.00     0.000 C 
HETATM   31  C21 UNL     1      25.092  31.134  15.806  1.00  0.00     0.005 C 
ENDBRANCH  25  26
ENDBRANCH  10  25
BRANCH   6  32
HETATM   32  C9  UNL     1      22.143  27.261  14.464  1.00  0.00     0.012 C 
HETATM   33  C10 UNL     1      22.454  28.760  14.624  1.00  0.00     0.012 C 
BRANCH  32  34
HETATM   34  C11 UNL     1      20.772  27.222  13.836  1.00  0.00     0.002 C 
HETATM   35  C12 UNL     1      20.623  28.568  13.115  1.00  0.00     0.005 C 
ENDBRANCH  32  34
ENDBRANCH   6  32
BRANCH  15  36
HETATM   36  C24 UNL     1      25.793  24.849  20.884  1.00  0.00     0.012 C 
HETATM   37  C25 UNL     1      25.402  25.007  22.378  1.00  0.00     0.012 C 
BRANCH  36  38
HETATM   38  C26 UNL     1      25.620  23.414  20.592  1.00  0.00     0.002 C 
HETATM   39  C27 UNL     1      26.001  22.939  19.224  1.00  0.00     0.005 C 
ENDBRANCH  36  38
ENDBRANCH  15  36
BRANCH  16  40
HETATM   40  O4  UNL     1      23.939  27.761  20.771  1.00  0.00    -0.348 OA
ATOM     41  H4  UNL     1      24.075  28.181  19.931  1.00  0.00     0.219 HD
ENDBRANCH  16  40
BRANCH   1  42
HETATM   42  C4  UNL     1      18.066  24.720  18.521  1.00  0.00     0.026 C 
BRANCH  42  43
HETATM   43  C3  UNL     1      18.005  23.245  18.299  1.00  0.00     0.002 C 
BRANCH  43  44
HETATM   44  C2  UNL     1      17.767  22.529  19.623  1.00  0.00    -0.004 C 
HETATM   45  C1  UNL     1      19.055  21.838  20.042  1.00  0.00     0.005 C 
ENDBRANCH  43  44
ENDBRANCH  42  43
ENDBRANCH   1  42
TORSDOF 10
ENDMDL
MODEL 2
REMARK VINA RESULT: -7.687008340      0.723      1.166
REMARK  10 active torsions:
REMARK  status: ('A' for Active; 'I' for Inactive)
REMARK    1  A    between atoms: C2_2  and  C3_3 
REMARK    2  A    between atoms: C3_3  and  C4_4 
REMARK    3  A    between atoms: C4_4  and  C5_5 
REMARK    4  A    between atoms: C8_10  and  C9_11 
REMARK    5  A    between atoms: C9_11  and  C11_13 
REMARK    6  A    between atoms: C14_18  and  C15_19 
REMARK    7  A    between atoms: C15_19  and  C16_20 
REMARK    8  A    between atoms: C23_30  and  C24_31 
REMARK    9  A    between atoms: C24_31  and  C26_33 
REMARK   10  A    between atoms: C28_35  and  O4_36 
ROOT
HETATM    1  C5  UNL     1      19.560  25.248  18.528  1.00  0.00     0.093 C 
HETATM    2  C6  UNL     1      19.629  26.402  17.580  1.00  0.00     0.136 C 
HETATM    3  C7  UNL     1      20.776  27.318  17.802  1.00  0.00     0.261 C 
HETATM    4  O1  UNL     1      20.903  27.801  18.957  1.00  0.00    -0.265 OA
HETATM    5  O2  UNL     1      21.614  27.580  16.749  1.00  0.00    -0.314 OA
HETATM    6  C8  UNL     1      22.252  26.692  15.891  1.00  0.00     0.153 C 
HETATM    7  C13 UNL     1      23.663  26.322  16.293  1.00  0.00     0.147 C 
HETATM    8  N1  UNL     1      24.094  27.131  17.383  1.00  0.00    -0.407 N 
ATOM      9  H1  UNL     1      23.504  27.316  18.194  1.00  0.00     0.154 HD
HETATM   10  C14 UNL     1      25.434  27.674  17.255  1.00  0.00     0.169 C 
HETATM   11  C22 UNL     1      26.359  27.190  18.312  1.00  0.00     0.240 C 
HETATM   12  O3  UNL     1      27.587  27.116  17.920  1.00  0.00    -0.271 OA
HETATM   13  N2  UNL     1      26.053  26.827  19.618  1.00  0.00    -0.347 N 
ATOM     14  H2  UNL     1      26.578  27.319  20.341  1.00  0.00     0.163 HD
HETATM   15  C23 UNL     1      25.096  25.848  20.101  1.00  0.00     0.163 C 
HETATM   16  C28 UNL     1      23.906  26.438  20.736  1.00  0.00     0.137 C 
HETATM   17  N3  UNL     1      22.761  25.858  21.231  1.00  0.00    -0.355 N 
HETATM   18  C29 UNL     1      22.075  26.548  22.355  1.00  0.00     0.152 C 
HETATM   19  C30 UNL     1      22.038  24.663  20.869  1.00  0.00     0.173 C 
HETATM   20  C31 UNL     1      22.445  23.967  19.633  1.00  0.00     0.042 C 
HETATM   21  C32 UNL     1      20.561  24.916  20.879  1.00  0.00     0.240 C 
HETATM   22  O5  UNL     1      19.954  24.452  21.915  1.00  0.00    -0.271 OA
HETATM   23  N4  UNL     1      19.804  25.581  19.911  1.00  0.00    -0.354 N 
ATOM     24  H4  UNL     1      19.354  26.438  20.232  1.00  0.00     0.162 HD
ENDROOT
BRANCH  10  25
HETATM   25  C15 UNL     1      25.293  29.175  17.274  1.00  0.00     0.039 C 
BRANCH  25  26
HETATM   26  C16 UNL     1      25.786  29.910  16.105  1.00  0.00    -0.012 C 
HETATM   27  C17 UNL     1      27.247  30.281  16.405  1.00  0.00     0.005 C 
HETATM   28  C18 UNL     1      27.685  31.449  15.549  1.00  0.00     0.000 C 
HETATM   29  C19 UNL     1      27.080  32.744  16.084  1.00  0.00     0.000 C 
HETATM   30  C20 UNL     1      25.749  32.361  16.698  1.00  0.00     0.000 C 
HETATM   31  C21 UNL     1      25.060  31.233  15.964  1.00  0.00     0.005 C 
ENDBRANCH  25  26
ENDBRANCH  10  25
BRANCH   6  32
HETATM   32  C9  UNL     1      22.233  27.358  14.506  1.00  0.00     0.012 C 
HETATM   33  C10 UNL     1      22.465  28.866  14.708  1.00  0.00     0.012 C 
BRANCH  32  34
HETATM   34  C11 UNL     1      20.883  27.266  13.840  1.00  0.00     0.002 C 
HETATM   35  C12 UNL     1      20.666  28.635  13.181  1.00  0.00     0.005 C 
ENDBRANCH  32  34
ENDBRANCH   6  32
BRANCH  15  36
HETATM   36  C24 UNL     1      25.854  24.849  20.905  1.00  0.00     0.012 C 
HETATM   37  C25 UNL     1      25.445  24.965  22.397  1.00  0.00     0.012 C 
BRANCH  36  38
HETATM   38  C26 UNL     1      25.707  23.419  20.576  1.00  0.00     0.002 C 
HETATM   39  C27 UNL     1      26.063  22.992  19.186  1.00  0.00     0.005 C 
ENDBRANCH  36  38
ENDBRANCH  15  36
BRANCH  16  40
HETATM   40  O4  UNL     1      23.962  27.738  20.840  1.00  0.00    -0.348 OA
ATOM     41  H4  UNL     1      24.777  28.054  21.213  1.00  0.00     0.219 HD
ENDBRANCH  16  40
BRANCH   1  42
HETATM   42  C4  UNL     1      18.153  24.671  18.464  1.00  0.00     0.026 C 
BRANCH  42  43
HETATM   43  C3  UNL     1      17.366  25.126  17.280  1.00  0.00     0.002 C 
BRANCH  43  44
HETATM   44  C2  UNL     1      17.361  24.040  16.211  1.00  0.00    -0.004 C 
HETATM   45  C1  UNL     1      17.770  24.660  14.884  1.00  0.00     0.005 C 
ENDBRANCH  43  44
ENDBRANCH  42  43
ENDBRANCH   1  42
TORSDOF 10
ENDMDL
MODEL 3
REMARK VINA RESULT: -7.616973744      1.665      7.351
REMARK  10 active torsions:
REMARK  status: ('A' for Active; 'I' for Inactive)
REMARK    1  A    between atoms: C2_2  and  C3_3 
REMARK    2  A    between atoms: C3_3  and  C4_4 
REMARK    3  A    between atoms: C4_4  and  C5_5 
REMARK    4  A    between atoms: C8_10  and  C9_11 
REMARK    5  A    between atoms: C9_11  and  C11_13 
REMARK    6  A    between atoms: C14_18  and  C15_19 
REMARK    7  A    between atoms: C15_19  and  C16_20 
REMARK    8  A    between atoms: C23_30  and  C24_31 
REMARK    9  A    between atoms: C24_31  and  C26_33 
REMARK   10  A    between atoms: C28_35  and  O4_36 
ROOT
HETATM    1  C5  UNL     1      25.512  28.259  16.676  1.00  0.00     0.093 C 
HETATM    2  C6  UNL     1      24.595  27.766  15.602  1.00  0.00     0.136 C 
HETATM    3  C7  UNL     1      23.848  26.531  15.946  1.00  0.00     0.261 C 
HETATM    4  O1  UNL     1      24.528  25.538  16.313  1.00  0.00    -0.265 OA
HETATM    5  O2  UNL     1      22.481  26.547  15.840  1.00  0.00    -0.314 OA
HETATM    6  C8  UNL     1      21.570  27.461  16.355  1.00  0.00     0.153 C 
HETATM    7  C13 UNL     1      20.978  27.084  17.695  1.00  0.00     0.147 C 
HETATM    8  N1  UNL     1      21.356  25.756  18.046  1.00  0.00    -0.407 N 
ATOM      9  H1  UNL     1      22.312  25.414  17.943  1.00  0.00     0.154 HD
HETATM   10  C14 UNL     1      20.284  24.925  18.560  1.00  0.00     0.169 C 
HETATM   11  C22 UNL     1      20.511  24.488  19.962  1.00  0.00     0.240 C 
HETATM   12  O3  UNL     1      19.418  24.320  20.628  1.00  0.00    -0.271 OA
HETATM   13  N2  UNL     1      21.722  24.250  20.600  1.00  0.00    -0.347 N 
ATOM     14  H2  UNL     1      21.821  23.325  21.017  1.00  0.00     0.163 HD
HETATM   15  C23 UNL     1      22.866  25.129  20.760  1.00  0.00     0.163 C 
HETATM   16  C28 UNL     1      24.030  24.751  19.943  1.00  0.00     0.137 C 
HETATM   17  N3  UNL     1      25.246  25.368  19.756  1.00  0.00    -0.355 N 
HETATM   18  C29 UNL     1      26.414  24.499  19.452  1.00  0.00     0.152 C 
HETATM   19  C30 UNL     1      25.653  26.751  19.785  1.00  0.00     0.173 C 
HETATM   20  C31 UNL     1      24.591  27.773  19.853  1.00  0.00     0.042 C 
HETATM   21  C32 UNL     1      26.607  27.045  18.667  1.00  0.00     0.240 C 
HETATM   22  O5  UNL     1      27.839  27.122  19.033  1.00  0.00    -0.271 OA
HETATM   23  N4  UNL     1      26.303  27.237  17.317  1.00  0.00    -0.354 N 
ATOM     24  H4  UNL     1      26.704  26.544  16.684  1.00  0.00     0.162 HD
ENDROOT
BRANCH  10  25
HETATM   25  C15 UNL     1      20.157  23.755  17.619  1.00  0.00     0.039 C 
BRANCH  25  26
HETATM   26  C16 UNL     1      18.837  23.508  17.030  1.00  0.00    -0.012 C 
HETATM   27  C17 UNL     1      17.875  24.522  17.670  1.00  0.00     0.005 C 
HETATM   28  C18 UNL     1      16.445  24.043  17.553  1.00  0.00     0.000 C 
HETATM   29  C19 UNL     1      16.186  22.923  18.557  1.00  0.00     0.000 C 
HETATM   30  C20 UNL     1      17.503  22.194  18.720  1.00  0.00     0.000 C 
HETATM   31  C21 UNL     1      18.316  22.147  17.446  1.00  0.00     0.005 C 
ENDBRANCH  25  26
ENDBRANCH  10  25
BRANCH   6  32
HETATM   32  C9  UNL     1      20.470  27.603  15.290  1.00  0.00     0.012 C 
HETATM   33  C10 UNL     1      20.291  26.231  14.616  1.00  0.00     0.012 C 
BRANCH  32  34
HETATM   34  C11 UNL     1      20.869  28.529  14.169  1.00  0.00     0.002 C 
HETATM   35  C12 UNL     1      19.959  28.152  12.993  1.00  0.00     0.005 C 
ENDBRANCH  32  34
ENDBRANCH   6  32
BRANCH  15  36
HETATM   36  C24 UNL     1      23.101  25.286  22.223  1.00  0.00     0.012 C 
HETATM   37  C25 UNL     1      24.565  24.895  22.558  1.00  0.00     0.012 C 
BRANCH  36  38
HETATM   38  C26 UNL     1      22.910  26.616  22.831  1.00  0.00     0.002 C 
HETATM   39  C27 UNL     1      21.526  26.977  23.274  1.00  0.00     0.005 C 
ENDBRANCH  36  38
ENDBRANCH  15  36
BRANCH  16  40
HETATM   40  O4  UNL     1      23.865  23.634  19.287  1.00  0.00    -0.348 OA
ATOM     41  H4  UNL     1      24.555  22.999  19.440  1.00  0.00     0.219 HD
ENDBRANCH  16  40
BRANCH   1  42
HETATM   42  C4  UNL     1      26.496  29.233  16.043  1.00  0.00     0.026 C 
BRANCH  42  43
HETATM   43  C3  UNL     1      26.206  30.666  16.345  1.00  0.00     0.002 C 
BRANCH  43  44
HETATM   44  C2  UNL     1      26.329  30.918  17.842  1.00  0.00    -0.004 C 
HETATM   45  C1  UNL     1      25.688  32.259  18.166  1.00  0.00     0.005 C 
ENDBRANCH  43  44
ENDBRANCH  42  43
ENDBRANCH   1  42
TORSDOF 10
ENDMDL
MODEL 4
REMARK VINA RESULT: -7.540183223      0.471      1.052
REMARK  10 active torsions:
REMARK  status: ('A' for Active; 'I' for Inactive)
REMARK    1  A    between atoms: C2_2  and  C3_3 
REMARK    2  A    between atoms: C3_3  and  C4_4 
REMARK    3  A    between atoms: C4_4  and  C5_5 
REMARK    4  A    between atoms: C8_10  and  C9_11 
REMARK    5  A    between atoms: C9_11  and  C11_13 
REMARK    6  A    between atoms: C14_18  and  C15_19 
REMARK    7  A    between atoms: C15_19  and  C16_20 
REMARK    8  A    between atoms: C23_30  and  C24_31 
REMARK    9  A    between atoms: C24_31  and  C26_33 
REMARK   10  A    between atoms: C28_35  and  O4_36 
ROOT
HETATM    1  C5  UNL     1      19.409  25.259  18.494  1.00  0.00     0.093 C 
HETATM    2  C6  UNL     1      19.526  26.405  17.540  1.00  0.00     0.136 C 
HETATM    3  C7  UNL     1      20.672  27.311  17.800  1.00  0.00     0.261 C 
HETATM    4  O1  UNL     1      20.759  27.802  18.956  1.00  0.00    -0.265 OA
HETATM    5  O2  UNL     1      21.553  27.557  16.779  1.00  0.00    -0.314 OA
HETATM    6  C8  UNL     1      22.216  26.657  15.954  1.00  0.00     0.153 C 
HETATM    7  C13 UNL     1      23.606  26.277  16.413  1.00  0.00     0.147 C 
HETATM    8  N1  UNL     1      24.002  27.091  17.513  1.00  0.00    -0.407 N 
ATOM      9  H1  UNL     1      23.383  27.287  18.299  1.00  0.00     0.154 HD
HETATM   10  C14 UNL     1      25.351  27.620  17.434  1.00  0.00     0.169 C 
HETATM   11  C22 UNL     1      26.229  27.135  18.529  1.00  0.00     0.240 C 
HETATM   12  O3  UNL     1      27.471  27.046  18.187  1.00  0.00    -0.271 OA
HETATM   13  N2  UNL     1      25.870  26.785  19.825  1.00  0.00    -0.347 N 
ATOM     14  H2  UNL     1      26.370  27.277  20.564  1.00  0.00     0.163 HD
HETATM   15  C23 UNL     1      24.885  25.819  20.278  1.00  0.00     0.163 C 
HETATM   16  C28 UNL     1      23.677  26.425  20.861  1.00  0.00     0.137 C 
HETATM   17  N3  UNL     1      22.507  25.859  21.315  1.00  0.00    -0.355 N 
HETATM   18  C29 UNL     1      21.785  26.565  22.406  1.00  0.00     0.152 C 
HETATM   19  C30 UNL     1      21.788  24.669  20.935  1.00  0.00     0.173 C 
HETATM   20  C31 UNL     1      22.236  23.959  19.720  1.00  0.00     0.042 C 
HETATM   21  C32 UNL     1      20.314  24.935  20.885  1.00  0.00     0.240 C 
HETATM   22  O5  UNL     1      19.662  24.485  21.900  1.00  0.00    -0.271 OA
HETATM   23  N4  UNL     1      19.602  25.601  19.883  1.00  0.00    -0.354 N 
ATOM     24  H4  UNL     1      19.148  26.464  20.180  1.00  0.00     0.162 HD
ENDROOT
BRANCH  10  25
HETATM   25  C15 UNL     1      25.224  29.122  17.436  1.00  0.00     0.039 C 
BRANCH  25  26
HETATM   26  C16 UNL     1      25.740  29.840  16.267  1.00  0.00    -0.012 C 
HETATM   27  C17 UNL     1      27.204  30.188  16.576  1.00  0.00     0.005 C 
HETATM   28  C18 UNL     1      27.669  31.343  15.716  1.00  0.00     0.000 C 
HETATM   29  C19 UNL     1      27.082  32.651  16.238  1.00  0.00     0.000 C 
HETATM   30  C20 UNL     1      25.740  32.296  16.843  1.00  0.00     0.000 C 
HETATM   31  C21 UNL     1      25.037  31.174  16.111  1.00  0.00     0.005 C 
ENDBRANCH  25  26
ENDBRANCH  10  25
BRANCH   6  32
HETATM   32  C9  UNL     1      22.258  27.313  14.564  1.00  0.00     0.012 C 
HETATM   33  C10 UNL     1      22.513  28.817  14.763  1.00  0.00     0.012 C 
BRANCH  32  34
HETATM   34  C11 UNL     1      20.929  27.243  13.853  1.00  0.00     0.002 C 
HETATM   35  C12 UNL     1      20.742  28.625  13.215  1.00  0.00     0.005 C 
ENDBRANCH  32  34
ENDBRANCH   6  32
BRANCH  15  36
HETATM   36  C24 UNL     1      25.601  24.819  21.118  1.00  0.00     0.012 C 
HETATM   37  C25 UNL     1      26.163  23.689  20.214  1.00  0.00     0.012 C 
BRANCH  36  38
HETATM   38  C26 UNL     1      26.749  25.269  21.928  1.00  0.00     0.002 C 
HETATM   39  C27 UNL     1      26.466  25.739  23.321  1.00  0.00     0.005 C 
ENDBRANCH  36  38
ENDBRANCH  15  36
BRANCH  16  40
HETATM   40  O4  UNL     1      23.742  27.725  20.958  1.00  0.00    -0.348 OA
ATOM     41  H4  UNL     1      23.268  28.074  21.704  1.00  0.00     0.219 HD
ENDBRANCH  16  40
BRANCH   1  42
HETATM   42  C4  UNL     1      18.000  24.695  18.380  1.00  0.00     0.026 C 
BRANCH  42  43
HETATM   43  C3  UNL     1      17.893  23.517  17.468  1.00  0.00     0.002 C 
BRANCH  43  44
HETATM   44  C2  UNL     1      18.505  22.290  18.130  1.00  0.00    -0.004 C 
HETATM   45  C1  UNL     1      17.907  22.135  19.520  1.00  0.00     0.005 C 
ENDBRANCH  43  44
ENDBRANCH  42  43
ENDBRANCH   1  42
TORSDOF 10
ENDMDL
MODEL 5
REMARK VINA RESULT: -7.187956561      1.398      2.114
REMARK  10 active torsions:
REMARK  status: ('A' for Active; 'I' for Inactive)
REMARK    1  A    between atoms: C2_2  and  C3_3 
REMARK    2  A    between atoms: C3_3  and  C4_4 
REMARK    3  A    between atoms: C4_4  and  C5_5 
REMARK    4  A    between atoms: C8_10  and  C9_11 
REMARK    5  A    between atoms: C9_11  and  C11_13 
REMARK    6  A    between atoms: C14_18  and  C15_19 
REMARK    7  A    between atoms: C15_19  and  C16_20 
REMARK    8  A    between atoms: C23_30  and  C24_31 
REMARK    9  A    between atoms: C24_31  and  C26_33 
REMARK   10  A    between atoms: C28_35  and  O4_36 
ROOT
HETATM    1  C5  UNL     1      19.796  25.303  18.303  1.00  0.00     0.093 C 
HETATM    2  C6  UNL     1      20.132  26.486  17.453  1.00  0.00     0.136 C 
HETATM    3  C7  UNL     1      21.210  27.351  17.995  1.00  0.00     0.261 C 
HETATM    4  O1  UNL     1      21.054  27.788  19.164  1.00  0.00    -0.265 OA
HETATM    5  O2  UNL     1      22.293  27.619  17.198  1.00  0.00    -0.314 OA
HETATM    6  C8  UNL     1      23.103  26.739  16.490  1.00  0.00     0.153 C 
HETATM    7  C13 UNL     1      24.356  26.304  17.217  1.00  0.00     0.147 C 
HETATM    8  N1  UNL     1      24.520  27.059  18.414  1.00  0.00    -0.407 N 
ATOM      9  H1  UNL     1      23.750  27.236  19.058  1.00  0.00     0.154 HD
HETATM   10  C14 UNL     1      25.862  27.557  18.650  1.00  0.00     0.169 C 
HETATM   11  C22 UNL     1      26.478  27.002  19.883  1.00  0.00     0.240 C 
HETATM   12  O3  UNL     1      27.763  26.897  19.810  1.00  0.00    -0.271 OA
HETATM   13  N2  UNL     1      25.844  26.605  21.054  1.00  0.00    -0.347 N 
ATOM     14  H2  UNL     1      26.182  27.051  21.906  1.00  0.00     0.163 HD
HETATM   15  C23 UNL     1      24.770  25.645  21.239  1.00  0.00     0.163 C 
HETATM   16  C28 UNL     1      23.475  26.256  21.580  1.00  0.00     0.137 C 
HETATM   17  N3  UNL     1      22.226  25.700  21.745  1.00  0.00    -0.355 N 
HETATM   18  C29 UNL     1      21.298  26.375  22.690  1.00  0.00     0.152 C 
HETATM   19  C30 UNL     1      21.587  24.546  21.163  1.00  0.00     0.173 C 
HETATM   20  C31 UNL     1      22.274  23.879  20.040  1.00  0.00     0.042 C 
HETATM   21  C32 UNL     1      20.162  24.852  20.813  1.00  0.00     0.240 C 
HETATM   22  O5  UNL     1      19.301  24.374  21.643  1.00  0.00    -0.271 OA
HETATM   23  N4  UNL     1      19.692  25.578  19.716  1.00  0.00    -0.354 N 
ATOM     24  H4  UNL     1      19.198  26.439  19.950  1.00  0.00     0.162 HD
ENDROOT
BRANCH  10  25
HETATM   25  C15 UNL     1      25.761  29.060  18.698  1.00  0.00     0.039 C 
BRANCH  25  26
HETATM   26  C16 UNL     1      26.581  29.818  17.748  1.00  0.00    -0.012 C 
HETATM   27  C17 UNL     1      27.375  30.842  18.574  1.00  0.00     0.005 C 
HETATM   28  C18 UNL     1      27.832  31.989  17.700  1.00  0.00     0.000 C 
HETATM   29  C19 UNL     1      26.656  32.912  17.392  1.00  0.00     0.000 C 
HETATM   30  C20 UNL     1      25.427  32.028  17.367  1.00  0.00     0.000 C 
HETATM   31  C21 UNL     1      25.703  30.642  16.828  1.00  0.00     0.005 C 
ENDBRANCH  25  26
ENDBRANCH  10  25
BRANCH   6  32
HETATM   32  C9  UNL     1      23.452  27.454  15.175  1.00  0.00     0.012 C 
HETATM   33  C10 UNL     1      24.975  27.667  15.147  1.00  0.00     0.012 C 
BRANCH  32  34
HETATM   34  C11 UNL     1      22.872  28.844  15.104  1.00  0.00     0.002 C 
HETATM   35  C12 UNL     1      21.840  28.791  13.970  1.00  0.00     0.005 C 
ENDBRANCH  32  34
ENDBRANCH   6  32
BRANCH  15  36
HETATM   36  C24 UNL     1      25.274  24.592  22.163  1.00  0.00     0.012 C 
HETATM   37  C25 UNL     1      26.173  23.599  21.378  1.00  0.00     0.012 C 
BRANCH  36  38
HETATM   38  C26 UNL     1      26.081  25.001  23.328  1.00  0.00     0.002 C 
HETATM   39  C27 UNL     1      27.106  24.031  23.830  1.00  0.00     0.005 C 
ENDBRANCH  36  38
ENDBRANCH  15  36
BRANCH  16  40
HETATM   40  O4  UNL     1      23.537  27.548  21.751  1.00  0.00    -0.348 OA
ATOM     41  H4  UNL     1      22.868  28.026  21.275  1.00  0.00     0.219 HD
ENDBRANCH  16  40
BRANCH   1  42
HETATM   42  C4  UNL     1      18.436  24.780  17.863  1.00  0.00     0.026 C 
BRANCH  42  43
HETATM   43  C3  UNL     1      17.868  25.492  16.680  1.00  0.00     0.002 C 
BRANCH  43  44
HETATM   44  C2  UNL     1      17.894  24.578  15.461  1.00  0.00    -0.004 C 
HETATM   45  C1  UNL     1      18.161  25.422  14.225  1.00  0.00     0.005 C 
ENDBRANCH  43  44
ENDBRANCH  42  43
ENDBRANCH   1  42
TORSDOF 10
ENDMDL
