MODEL 1
REMARK VINA RESULT: -10.142891411      0.000      0.000
REMARK  12 active torsions:
REMARK  status: ('A' for Active; 'I' for Inactive)
REMARK    1  A    between atoms: C2_2  and  C4_4 
REMARK    2  A    between atoms: C4_4  and  N1_5 
REMARK    3  A    between atoms: C4_4  and  C24_34 
REMARK       I    between atoms: N1_5  and  C5_7 
REMARK    4  A    between atoms: C5_7  and  C6_9 
REMARK    5  A    between atoms: C6_9  and  N2_10 
REMARK    6  A    between atoms: C6_9  and  C20_30 
REMARK       I    between atoms: N2_10  and  C7_12 
REMARK    7  A    between atoms: C7_12  and  C8_14 
REMARK    8  A    between atoms: C8_14  and  N3_15 
REMARK    9  A    between atoms: C8_14  and  C14_24 
REMARK       I    between atoms: N3_15  and  C9_17 
REMARK   10  A    between atoms: C9_17  and  O4_19 
REMARK   11  A    between atoms: O4_19  and  C10_20 
REMARK       I    between atoms: C24_34  and  N4_36 
REMARK   12  A    between atoms: N4_36  and  C25_38 
ROOT
HETATM    1  C6  UNL     1      18.842  23.073  18.706  1.00  0.00     0.184 C 
ENDROOT
BRANCH   1   2
HETATM    2  C5  UNL     1      19.103  24.189  17.785  1.00  0.00     0.241 C 
HETATM    3  N1  UNL     1      19.722  24.156  16.527  1.00  0.00    -0.346 N 
ATOM      4  H1  UNL     1      20.071  23.274  16.152  1.00  0.00     0.163 HD
HETATM    5  O1  UNL     1      18.710  25.348  18.192  1.00  0.00    -0.271 OA
BRANCH   3   6
HETATM    6  C4  UNL     1      19.869  25.409  15.742  1.00  0.00     0.180 C 
BRANCH   6   7
HETATM    7  C2  UNL     1      19.077  25.311  14.493  1.00  0.00     0.009 C 
HETATM    8  C1  UNL     1      19.148  26.553  13.626  1.00  0.00     0.012 C 
HETATM    9  C3  UNL     1      17.715  24.780  14.716  1.00  0.00     0.012 C 
ENDBRANCH   6   7
BRANCH   6  10
HETATM   10  C24 UNL     1      21.297  25.691  15.517  1.00  0.00     0.241 C 
HETATM   11  O5  UNL     1      21.909  24.914  14.692  1.00  0.00    -0.271 OA
HETATM   12  N4  UNL     1      22.073  26.698  16.095  1.00  0.00    -0.353 N 
ATOM     13  H4  UNL     1      21.621  27.335  16.751  1.00  0.00     0.163 HD
BRANCH  12  14
HETATM   14  C25 UNL     1      23.487  26.891  15.818  1.00  0.00     0.117 C 
HETATM   15  C26 UNL     1      23.823  28.242  15.292  1.00  0.00     0.029 C 
HETATM   16  C27 UNL     1      25.328  28.270  15.007  1.00  0.00     0.032 C 
HETATM   17  C28 UNL     1      26.057  27.974  16.295  1.00  0.00     0.272 C 
HETATM   18  N5  UNL     1      25.101  27.777  17.343  1.00  0.00     0.090 N 
HETATM   19  C29 UNL     1      25.706  27.773  18.661  1.00  0.00     0.310 C 
HETATM   20  C30 UNL     1      24.302  26.622  17.094  1.00  0.00     0.241 C 
HETATM   21  C31 UNL     1      23.335  26.423  18.260  1.00  0.00     0.045 C 
ENDBRANCH  12  14
ENDBRANCH   6  10
ENDBRANCH   3   6
ENDBRANCH   1   2
BRANCH   1  22
HETATM   22  N2  UNL     1      17.434  22.694  18.681  1.00  0.00    -0.345 N 
HETATM   23  C7  UNL     1      16.918  21.570  17.990  1.00  0.00     0.241 C 
HETATM   24  O2  UNL     1      17.711  20.848  17.351  1.00  0.00    -0.271 OA
ATOM     25  H2  UNL     1      16.776  23.279  19.195  1.00  0.00     0.163 HD
BRANCH  23  26
HETATM   26  C8  UNL     1      15.452  21.255  18.020  1.00  0.00     0.183 C 
BRANCH  26  27
HETATM   27  N3  UNL     1      14.997  20.878  16.687  1.00  0.00    -0.323 N 
HETATM   28  C9  UNL     1      14.382  21.845  15.831  1.00  0.00     0.362 C 
HETATM   29  O3  UNL     1      14.221  23.039  16.209  1.00  0.00    -0.238 OA
ATOM     30  H3  UNL     1      15.118  19.918  16.363  1.00  0.00     0.165 HD
BRANCH  28  31
HETATM   31  O4  UNL     1      13.941  21.512  14.564  1.00  0.00    -0.294 OA
BRANCH  31  32
HETATM   32  C10 UNL     1      12.663  20.935  14.382  1.00  0.00     0.061 C 
HETATM   33  C11 UNL     1      12.058  20.392  15.654  1.00  0.00     0.046 C 
HETATM   34  C12 UNL     1      11.740  22.044  13.906  1.00  0.00     0.046 C 
HETATM   35  C13 UNL     1      12.679  19.859  13.322  1.00  0.00     0.046 C 
ENDBRANCH  31  32
ENDBRANCH  28  31
ENDBRANCH  26  27
BRANCH  26  36
HETATM   36  C14 UNL     1      15.310  20.047  18.952  1.00  0.00     0.018 C 
HETATM   37  C15 UNL     1      14.931  20.603  20.310  1.00  0.00     0.007 C 
HETATM   38  C16 UNL     1      14.833  19.508  21.352  1.00  0.00     0.000 C 
HETATM   39  C17 UNL     1      14.620  18.180  20.687  1.00  0.00     0.000 C 
HETATM   40  C18 UNL     1      13.556  18.380  19.599  1.00  0.00     0.000 C 
HETATM   41  C19 UNL     1      14.291  19.061  18.445  1.00  0.00     0.007 C 
ENDBRANCH  26  36
ENDBRANCH  23  26
ENDBRANCH   1  22
BRANCH   1  42
HETATM   42  C20 UNL     1      19.375  23.171  20.077  1.00  0.00    -0.022 C 
HETATM   43  C21 UNL     1      18.538  24.001  21.010  1.00  0.00     0.017 C 
HETATM   44  C22 UNL     1      19.396  21.741  20.678  1.00  0.00     0.017 C 
HETATM   45  C23 UNL     1      20.804  23.651  20.163  1.00  0.00     0.017 C 
ENDBRANCH   1  42
TORSDOF 12
ENDMDL
MODEL 2
REMARK VINA RESULT: -9.906747155      1.210      1.828
REMARK  12 active torsions:
REMARK  status: ('A' for Active; 'I' for Inactive)
REMARK    1  A    between atoms: C2_2  and  C4_4 
REMARK    2  A    between atoms: C4_4  and  N1_5 
REMARK    3  A    between atoms: C4_4  and  C24_34 
REMARK       I    between atoms: N1_5  and  C5_7 
REMARK    4  A    between atoms: C5_7  and  C6_9 
REMARK    5  A    between atoms: C6_9  and  N2_10 
REMARK    6  A    between atoms: C6_9  and  C20_30 
REMARK       I    between atoms: N2_10  and  C7_12 
REMARK    7  A    between atoms: C7_12  and  C8_14 
REMARK    8  A    between atoms: C8_14  and  N3_15 
REMARK    9  A    between atoms: C8_14  and  C14_24 
REMARK       I    between atoms: N3_15  and  C9_17 
REMARK   10  A    between atoms: C9_17  and  O4_19 
REMARK   11  A    between atoms: O4_19  and  C10_20 
REMARK       I    between atoms: C24_34  and  N4_36 
REMARK   12  A    between atoms: N4_36  and  C25_38 
ROOT
HETATM    1  C6  UNL     1      18.880  23.308  18.671  1.00  0.00     0.184 C 
ENDROOT
BRANCH   1   2
HETATM    2  C5  UNL     1      19.238  24.521  17.922  1.00  0.00     0.241 C 
HETATM    3  N1  UNL     1      20.273  24.700  16.992  1.00  0.00    -0.346 N 
ATOM      4  H1  UNL     1      20.903  23.928  16.774  1.00  0.00     0.163 HD
HETATM    5  O1  UNL     1      18.502  25.555  18.154  1.00  0.00    -0.271 OA
BRANCH   3   6
HETATM    6  C4  UNL     1      20.450  26.017  16.326  1.00  0.00     0.180 C 
BRANCH   6   7
HETATM    7  C2  UNL     1      20.646  25.818  14.871  1.00  0.00     0.009 C 
HETATM    8  C1  UNL     1      19.417  26.134  14.040  1.00  0.00     0.012 C 
HETATM    9  C3  UNL     1      21.306  24.533  14.549  1.00  0.00     0.012 C 
ENDBRANCH   6   7
BRANCH   6  10
HETATM   10  C24 UNL     1      21.542  26.760  16.975  1.00  0.00     0.241 C 
HETATM   11  O5  UNL     1      21.210  27.841  17.592  1.00  0.00    -0.271 OA
HETATM   12  N4  UNL     1      22.901  26.438  17.000  1.00  0.00    -0.353 N 
ATOM     13  H4  UNL     1      23.201  25.586  16.526  1.00  0.00     0.163 HD
BRANCH  12  14
HETATM   14  C25 UNL     1      23.913  27.244  17.662  1.00  0.00     0.117 C 
HETATM   15  C26 UNL     1      24.936  26.452  18.397  1.00  0.00     0.029 C 
HETATM   16  C27 UNL     1      25.894  27.438  19.073  1.00  0.00     0.032 C 
HETATM   17  C28 UNL     1      26.516  28.300  18.001  1.00  0.00     0.272 C 
HETATM   18  N5  UNL     1      26.012  27.899  16.723  1.00  0.00     0.090 N 
HETATM   19  C29 UNL     1      26.762  28.470  15.620  1.00  0.00     0.310 C 
HETATM   20  C30 UNL     1      24.609  28.145  16.628  1.00  0.00     0.241 C 
HETATM   21  C31 UNL     1      24.128  27.751  15.233  1.00  0.00     0.045 C 
ENDBRANCH  12  14
ENDBRANCH   6  10
ENDBRANCH   3   6
ENDBRANCH   1   2
BRANCH   1  22
HETATM   22  N2  UNL     1      17.487  22.946  18.442  1.00  0.00    -0.345 N 
HETATM   23  C7  UNL     1      17.059  21.723  17.867  1.00  0.00     0.241 C 
HETATM   24  O2  UNL     1      17.925  20.891  17.523  1.00  0.00    -0.271 OA
ATOM     25  H2  UNL     1      16.770  23.619  18.714  1.00  0.00     0.163 HD
BRANCH  23  26
HETATM   26  C8  UNL     1      15.601  21.434  17.669  1.00  0.00     0.183 C 
BRANCH  26  27
HETATM   27  N3  UNL     1      15.350  21.068  16.280  1.00  0.00    -0.323 N 
HETATM   28  C9  UNL     1      15.626  21.996  15.226  1.00  0.00     0.362 C 
HETATM   29  O3  UNL     1      16.088  23.144  15.474  1.00  0.00    -0.238 OA
ATOM     30  H3  UNL     1      14.976  20.146  16.058  1.00  0.00     0.165 HD
BRANCH  28  31
HETATM   31  O4  UNL     1      15.395  21.673  13.901  1.00  0.00    -0.294 OA
BRANCH  31  32
HETATM   32  C10 UNL     1      14.083  21.400  13.451  1.00  0.00     0.061 C 
HETATM   33  C11 UNL     1      13.026  22.245  14.120  1.00  0.00     0.046 C 
HETATM   34  C12 UNL     1      14.039  21.748  11.974  1.00  0.00     0.046 C 
HETATM   35  C13 UNL     1      13.734  19.937  13.594  1.00  0.00     0.046 C 
ENDBRANCH  31  32
ENDBRANCH  28  31
ENDBRANCH  26  27
BRANCH  26  36
HETATM   36  C14 UNL     1      15.296  20.226  18.562  1.00  0.00     0.018 C 
HETATM   37  C15 UNL     1      15.177  20.763  19.973  1.00  0.00     0.007 C 
HETATM   38  C16 UNL     1      14.951  19.650  20.975  1.00  0.00     0.000 C 
HETATM   39  C17 UNL     1      14.397  18.439  20.284  1.00  0.00     0.000 C 
HETATM   40  C18 UNL     1      13.299  18.922  19.326  1.00  0.00     0.000 C 
HETATM   41  C19 UNL     1      14.047  19.506  18.128  1.00  0.00     0.007 C 
ENDBRANCH  26  36
ENDBRANCH  23  26
ENDBRANCH   1  22
BRANCH   1  42
HETATM   42  C20 UNL     1      19.253  23.241  20.095  1.00  0.00    -0.022 C 
HETATM   43  C21 UNL     1      18.255  23.868  21.028  1.00  0.00     0.017 C 
HETATM   44  C22 UNL     1      19.329  21.744  20.493  1.00  0.00     0.017 C 
HETATM   45  C23 UNL     1      20.620  23.799  20.414  1.00  0.00     0.017 C 
ENDBRANCH   1  42
TORSDOF 12
ENDMDL
MODEL 3
REMARK VINA RESULT: -9.189399933      1.041      1.565
REMARK  12 active torsions:
REMARK  status: ('A' for Active; 'I' for Inactive)
REMARK    1  A    between atoms: C2_2  and  C4_4 
REMARK    2  A    between atoms: C4_4  and  N1_5 
REMARK    3  A    between atoms: C4_4  and  C24_34 
REMARK       I    between atoms: N1_5  and  C5_7 
REMARK    4  A    between atoms: C5_7  and  C6_9 
REMARK    5  A    between atoms: C6_9  and  N2_10 
REMARK    6  A    between atoms: C6_9  and  C20_30 
REMARK       I    between atoms: N2_10  and  C7_12 
REMARK    7  A    between atoms: C7_12  and  C8_14 
REMARK    8  A    between atoms: C8_14  and  N3_15 
REMARK    9  A    between atoms: C8_14  and  C14_24 
REMARK       I    between atoms: N3_15  and  C9_17 
REMARK   10  A    between atoms: C9_17  and  O4_19 
REMARK   11  A    between atoms: O4_19  and  C10_20 
REMARK       I    between atoms: C24_34  and  N4_36 
REMARK   12  A    between atoms: N4_36  and  C25_38 
ROOT
HETATM    1  C6  UNL     1      18.896  23.048  18.657  1.00  0.00     0.184 C 
ENDROOT
BRANCH   1   2
HETATM    2  C5  UNL     1      19.198  24.084  17.657  1.00  0.00     0.241 C 
HETATM    3  N1  UNL     1      18.455  25.229  17.334  1.00  0.00    -0.346 N 
ATOM      4  H1  UNL     1      17.574  25.418  17.811  1.00  0.00     0.163 HD
HETATM    5  O1  UNL     1      20.290  23.911  16.992  1.00  0.00    -0.271 OA
BRANCH   3   6
HETATM    6  C4  UNL     1      18.956  26.167  16.296  1.00  0.00     0.180 C 
BRANCH   6   7
HETATM    7  C2  UNL     1      18.927  25.504  14.970  1.00  0.00     0.009 C 
HETATM    8  C1  UNL     1      19.221  26.440  13.814  1.00  0.00     0.012 C 
HETATM    9  C3  UNL     1      17.744  24.635  14.787  1.00  0.00     0.012 C 
ENDBRANCH   6   7
BRANCH   6  10
HETATM   10  C24 UNL     1      20.286  26.668  16.678  1.00  0.00     0.241 C 
HETATM   11  O5  UNL     1      20.359  27.293  17.803  1.00  0.00    -0.271 OA
HETATM   12  N4  UNL     1      21.483  26.553  15.968  1.00  0.00    -0.353 N 
ATOM     13  H4  UNL     1      21.465  26.060  15.075  1.00  0.00     0.163 HD
BRANCH  12  14
HETATM   14  C25 UNL     1      22.752  27.094  16.425  1.00  0.00     0.117 C 
HETATM   15  C26 UNL     1      23.934  26.274  16.044  1.00  0.00     0.029 C 
HETATM   16  C27 UNL     1      25.178  26.945  16.635  1.00  0.00     0.032 C 
HETATM   17  C28 UNL     1      25.266  28.347  16.080  1.00  0.00     0.272 C 
HETATM   18  N5  UNL     1      24.170  28.568  15.186  1.00  0.00     0.090 N 
HETATM   19  C29 UNL     1      24.328  29.771  14.391  1.00  0.00     0.310 C 
HETATM   20  C30 UNL     1      22.926  28.524  15.884  1.00  0.00     0.241 C 
HETATM   21  C31 UNL     1      21.793  28.817  14.903  1.00  0.00     0.045 C 
ENDBRANCH  12  14
ENDBRANCH   6  10
ENDBRANCH   3   6
ENDBRANCH   1   2
BRANCH   1  22
HETATM   22  N2  UNL     1      17.481  22.697  18.631  1.00  0.00    -0.345 N 
HETATM   23  C7  UNL     1      16.948  21.555  17.982  1.00  0.00     0.241 C 
HETATM   24  O2  UNL     1      17.734  20.792  17.381  1.00  0.00    -0.271 OA
ATOM     25  H2  UNL     1      16.829  23.315  19.114  1.00  0.00     0.163 HD
BRANCH  23  26
HETATM   26  C8  UNL     1      15.476  21.272  18.008  1.00  0.00     0.183 C 
BRANCH  26  27
HETATM   27  N3  UNL     1      15.011  20.933  16.669  1.00  0.00    -0.323 N 
HETATM   28  C9  UNL     1      14.334  21.907  15.869  1.00  0.00     0.362 C 
HETATM   29  O3  UNL     1      14.125  23.074  16.304  1.00  0.00    -0.238 OA
ATOM     30  H3  UNL     1      15.169  19.995  16.299  1.00  0.00     0.165 HD
BRANCH  28  31
HETATM   31  O4  UNL     1      13.882  21.610  14.597  1.00  0.00    -0.294 OA
BRANCH  31  32
HETATM   32  C10 UNL     1      12.629  20.981  14.414  1.00  0.00     0.061 C 
HETATM   33  C11 UNL     1      12.043  20.418  15.686  1.00  0.00     0.046 C 
HETATM   34  C12 UNL     1      11.663  22.049  13.932  1.00  0.00     0.046 C 
HETATM   35  C13 UNL     1      12.692  19.902  13.358  1.00  0.00     0.046 C 
ENDBRANCH  31  32
ENDBRANCH  28  31
ENDBRANCH  26  27
BRANCH  26  36
HETATM   36  C14 UNL     1      15.310  20.047  18.914  1.00  0.00     0.018 C 
HETATM   37  C15 UNL     1      14.967  20.582  20.290  1.00  0.00     0.007 C 
HETATM   38  C16 UNL     1      14.850  19.466  21.308  1.00  0.00     0.000 C 
HETATM   39  C17 UNL     1      14.588  18.162  20.616  1.00  0.00     0.000 C 
HETATM   40  C18 UNL     1      13.515  18.419  19.548  1.00  0.00     0.000 C 
HETATM   41  C19 UNL     1      14.256  19.104  18.399  1.00  0.00     0.007 C 
ENDBRANCH  26  36
ENDBRANCH  23  26
ENDBRANCH   1  22
BRANCH   1  42
HETATM   42  C20 UNL     1      19.403  23.242  20.027  1.00  0.00    -0.022 C 
HETATM   43  C21 UNL     1      18.587  24.188  20.863  1.00  0.00     0.017 C 
HETATM   44  C22 UNL     1      19.346  21.871  20.750  1.00  0.00     0.017 C 
HETATM   45  C23 UNL     1      20.852  23.664  20.106  1.00  0.00     0.017 C 
ENDBRANCH   1  42
TORSDOF 12
ENDMDL
MODEL 4
REMARK VINA RESULT: -9.128615951      2.361     10.497
REMARK  12 active torsions:
REMARK  status: ('A' for Active; 'I' for Inactive)
REMARK    1  A    between atoms: C2_2  and  C4_4 
REMARK    2  A    between atoms: C4_4  and  N1_5 
REMARK    3  A    between atoms: C4_4  and  C24_34 
REMARK       I    between atoms: N1_5  and  C5_7 
REMARK    4  A    between atoms: C5_7  and  C6_9 
REMARK    5  A    between atoms: C6_9  and  N2_10 
REMARK    6  A    between atoms: C6_9  and  C20_30 
REMARK       I    between atoms: N2_10  and  C7_12 
REMARK    7  A    between atoms: C7_12  and  C8_14 
REMARK    8  A    between atoms: C8_14  and  N3_15 
REMARK    9  A    between atoms: C8_14  and  C14_24 
REMARK       I    between atoms: N3_15  and  C9_17 
REMARK   10  A    between atoms: C9_17  and  O4_19 
REMARK   11  A    between atoms: O4_19  and  C10_20 
REMARK       I    between atoms: C24_34  and  N4_36 
REMARK   12  A    between atoms: N4_36  and  C25_38 
ROOT
HETATM    1  C6  UNL     1      19.917  25.063  18.784  1.00  0.00     0.184 C 
ENDROOT
BRANCH   1   2
HETATM    2  C5  UNL     1      19.269  24.112  17.869  1.00  0.00     0.241 C 
HETATM    3  N1  UNL     1      17.915  23.756  17.794  1.00  0.00    -0.346 N 
ATOM      4  H1  UNL     1      17.242  24.167  18.441  1.00  0.00     0.163 HD
HETATM    5  O1  UNL     1      20.054  23.530  17.027  1.00  0.00    -0.271 OA
BRANCH   3   6
HETATM    6  C4  UNL     1      17.462  22.779  16.770  1.00  0.00     0.180 C 
BRANCH   6   7
HETATM    7  C2  UNL     1      16.490  23.427  15.857  1.00  0.00     0.009 C 
HETATM    8  C1  UNL     1      15.900  22.485  14.826  1.00  0.00     0.012 C 
HETATM    9  C3  UNL     1      16.976  24.717  15.322  1.00  0.00     0.012 C 
ENDBRANCH   6   7
BRANCH   6  10
HETATM   10  C24 UNL     1      16.940  21.572  17.431  1.00  0.00     0.241 C 
HETATM   11  O5  UNL     1      17.691  20.525  17.384  1.00  0.00    -0.271 OA
HETATM   12  N4  UNL     1      15.724  21.419  18.100  1.00  0.00    -0.353 N 
ATOM     13  H4  UNL     1      15.105  22.227  18.161  1.00  0.00     0.163 HD
BRANCH  12  14
HETATM   14  C25 UNL     1      15.289  20.176  18.715  1.00  0.00     0.117 C 
HETATM   15  C26 UNL     1      14.968  20.295  20.164  1.00  0.00     0.029 C 
HETATM   16  C27 UNL     1      14.576  18.904  20.671  1.00  0.00     0.032 C 
HETATM   17  C28 UNL     1      13.386  18.429  19.872  1.00  0.00     0.272 C 
HETATM   18  N5  UNL     1      13.024  19.439  18.924  1.00  0.00     0.090 N 
HETATM   19  C29 UNL     1      11.729  19.198  18.315  1.00  0.00     0.310 C 
HETATM   20  C30 UNL     1      14.062  19.633  17.964  1.00  0.00     0.241 C 
HETATM   21  C31 UNL     1      13.610  20.678  16.945  1.00  0.00     0.045 C 
ENDBRANCH  12  14
ENDBRANCH   6  10
ENDBRANCH   3   6
ENDBRANCH   1   2
BRANCH   1  22
HETATM   22  N2  UNL     1      21.190  25.523  18.243  1.00  0.00    -0.345 N 
HETATM   23  C7  UNL     1      21.516  26.881  17.998  1.00  0.00     0.241 C 
HETATM   24  O2  UNL     1      20.660  27.753  18.254  1.00  0.00    -0.271 OA
ATOM     25  H2  UNL     1      21.896  24.819  18.026  1.00  0.00     0.163 HD
BRANCH  23  26
HETATM   26  C8  UNL     1      22.853  27.262  17.439  1.00  0.00     0.183 C 
BRANCH  26  27
HETATM   27  N3  UNL     1      23.773  26.134  17.535  1.00  0.00    -0.323 N 
HETATM   28  C9  UNL     1      24.950  26.227  18.342  1.00  0.00     0.362 C 
HETATM   29  O3  UNL     1      25.218  27.280  18.984  1.00  0.00    -0.238 OA
ATOM     30  H3  UNL     1      23.575  25.274  17.023  1.00  0.00     0.165 HD
BRANCH  28  31
HETATM   31  O4  UNL     1      25.838  25.172  18.448  1.00  0.00    -0.294 OA
BRANCH  31  32
HETATM   32  C10 UNL     1      25.778  24.296  19.556  1.00  0.00     0.061 C 
HETATM   33  C11 UNL     1      24.417  24.238  20.207  1.00  0.00     0.046 C 
HETATM   34  C12 UNL     1      26.065  22.899  19.034  1.00  0.00     0.046 C 
HETATM   35  C13 UNL     1      26.827  24.630  20.591  1.00  0.00     0.046 C 
ENDBRANCH  31  32
ENDBRANCH  28  31
ENDBRANCH  26  27
BRANCH  26  36
HETATM   36  C14 UNL     1      22.606  27.575  15.959  1.00  0.00     0.018 C 
HETATM   37  C15 UNL     1      21.201  28.134  15.874  1.00  0.00     0.007 C 
HETATM   38  C16 UNL     1      20.799  28.416  14.441  1.00  0.00     0.000 C 
HETATM   39  C17 UNL     1      22.021  28.566  13.583  1.00  0.00     0.000 C 
HETATM   40  C18 UNL     1      23.012  29.452  14.351  1.00  0.00     0.000 C 
HETATM   41  C19 UNL     1      23.627  28.535  15.408  1.00  0.00     0.007 C 
ENDBRANCH  26  36
ENDBRANCH  23  26
ENDBRANCH   1  22
BRANCH   1  42
HETATM   42  C20 UNL     1      20.009  24.696  20.209  1.00  0.00    -0.022 C 
HETATM   43  C21 UNL     1      18.696  24.708  20.939  1.00  0.00     0.017 C 
HETATM   44  C22 UNL     1      20.531  23.238  20.288  1.00  0.00     0.017 C 
HETATM   45  C23 UNL     1      21.004  25.510  21.003  1.00  0.00     0.017 C 
ENDBRANCH   1  42
TORSDOF 12
ENDMDL
MODEL 5
REMARK VINA RESULT: -9.112022173      1.180      1.490
REMARK  12 active torsions:
REMARK  status: ('A' for Active; 'I' for Inactive)
REMARK    1  A    between atoms: C2_2  and  C4_4 
REMARK    2  A    between atoms: C4_4  and  N1_5 
REMARK    3  A    between atoms: C4_4  and  C24_34 
REMARK       I    between atoms: N1_5  and  C5_7 
REMARK    4  A    between atoms: C5_7  and  C6_9 
REMARK    5  A    between atoms: C6_9  and  N2_10 
REMARK    6  A    between atoms: C6_9  and  C20_30 
REMARK       I    between atoms: N2_10  and  C7_12 
REMARK    7  A    between atoms: C7_12  and  C8_14 
REMARK    8  A    between atoms: C8_14  and  N3_15 
REMARK    9  A    between atoms: C8_14  and  C14_24 
REMARK       I    between atoms: N3_15  and  C9_17 
REMARK   10  A    between atoms: C9_17  and  O4_19 
REMARK   11  A    between atoms: O4_19  and  C10_20 
REMARK       I    between atoms: C24_34  and  N4_36 
REMARK   12  A    between atoms: N4_36  and  C25_38 
ROOT
HETATM    1  C6  UNL     1      19.148  23.544  18.921  1.00  0.00     0.184 C 
ENDROOT
BRANCH   1   2
HETATM    2  C5  UNL     1      19.576  24.646  18.046  1.00  0.00     0.241 C 
HETATM    3  N1  UNL     1      20.681  24.698  17.184  1.00  0.00    -0.346 N 
ATOM      4  H1  UNL     1      21.317  23.904  17.121  1.00  0.00     0.163 HD
HETATM    5  O1  UNL     1      18.835  25.702  18.080  1.00  0.00    -0.271 OA
BRANCH   3   6
HETATM    6  C4  UNL     1      20.923  25.914  16.364  1.00  0.00     0.180 C 
BRANCH   6   7
HETATM    7  C2  UNL     1      20.521  25.657  14.961  1.00  0.00     0.009 C 
HETATM    8  C1  UNL     1      19.027  25.763  14.724  1.00  0.00     0.012 C 
HETATM    9  C3  UNL     1      21.161  24.452  14.390  1.00  0.00     0.012 C 
ENDBRANCH   6   7
BRANCH   6  10
HETATM   10  C24 UNL     1      22.324  26.341  16.510  1.00  0.00     0.241 C 
HETATM   11  O5  UNL     1      22.808  27.050  15.549  1.00  0.00    -0.271 OA
HETATM   12  N4  UNL     1      23.198  26.068  17.564  1.00  0.00    -0.353 N 
ATOM     13  H4  UNL     1      22.849  25.514  18.346  1.00  0.00     0.163 HD
BRANCH  12  14
HETATM   14  C25 UNL     1      24.576  26.528  17.614  1.00  0.00     0.117 C 
HETATM   15  C26 UNL     1      24.723  28.009  17.637  1.00  0.00     0.029 C 
HETATM   16  C27 UNL     1      26.220  28.330  17.640  1.00  0.00     0.032 C 
HETATM   17  C28 UNL     1      26.837  27.688  18.859  1.00  0.00     0.272 C 
HETATM   18  N5  UNL     1      25.818  27.009  19.600  1.00  0.00     0.090 N 
HETATM   19  C29 UNL     1      26.257  26.611  20.924  1.00  0.00     0.310 C 
HETATM   20  C30 UNL     1      25.274  25.927  18.846  1.00  0.00     0.241 C 
HETATM   21  C31 UNL     1      24.231  25.202  19.694  1.00  0.00     0.045 C 
ENDBRANCH  12  14
ENDBRANCH   6  10
ENDBRANCH   3   6
ENDBRANCH   1   2
BRANCH   1  22
HETATM   22  N2  UNL     1      17.749  23.207  18.688  1.00  0.00    -0.345 N 
HETATM   23  C7  UNL     1      17.295  21.958  18.195  1.00  0.00     0.241 C 
HETATM   24  O2  UNL     1      18.142  21.078  17.933  1.00  0.00    -0.271 OA
ATOM     25  H2  UNL     1      17.048  23.919  18.893  1.00  0.00     0.163 HD
BRANCH  23  26
HETATM   26  C8  UNL     1      15.833  21.698  17.986  1.00  0.00     0.183 C 
BRANCH  26  27
HETATM   27  N3  UNL     1      15.569  21.446  16.575  1.00  0.00    -0.323 N 
HETATM   28  C9  UNL     1      14.773  22.357  15.812  1.00  0.00     0.362 C 
HETATM   29  O3  UNL     1      14.284  23.393  16.343  1.00  0.00    -0.238 OA
ATOM     30  H3  UNL     1      15.955  20.613  16.128  1.00  0.00     0.165 HD
BRANCH  28  31
HETATM   31  O4  UNL     1      14.507  22.139  14.473  1.00  0.00    -0.294 OA
BRANCH  31  32
HETATM   32  C10 UNL     1      13.348  21.430  14.082  1.00  0.00     0.061 C 
HETATM   33  C11 UNL     1      12.706  20.653  15.206  1.00  0.00     0.046 C 
HETATM   34  C12 UNL     1      12.327  22.462  13.635  1.00  0.00     0.046 C 
HETATM   35  C13 UNL     1      13.621  20.511  12.915  1.00  0.00     0.046 C 
ENDBRANCH  31  32
ENDBRANCH  28  31
ENDBRANCH  26  27
BRANCH  26  36
HETATM   36  C14 UNL     1      15.524  20.426  18.783  1.00  0.00     0.018 C 
HETATM   37  C15 UNL     1      15.192  20.879  20.191  1.00  0.00     0.007 C 
HETATM   38  C16 UNL     1      14.939  19.701  21.109  1.00  0.00     0.000 C 
HETATM   39  C17 UNL     1      14.574  18.489  20.305  1.00  0.00     0.000 C 
HETATM   40  C18 UNL     1      13.563  18.935  19.239  1.00  0.00     0.000 C 
HETATM   41  C19 UNL     1      14.400  19.636  18.168  1.00  0.00     0.007 C 
ENDBRANCH  26  36
ENDBRANCH  23  26
ENDBRANCH   1  22
BRANCH   1  42
HETATM   42  C20 UNL     1      19.474  23.635  20.355  1.00  0.00    -0.022 C 
HETATM   43  C21 UNL     1      18.413  24.292  21.193  1.00  0.00     0.017 C 
HETATM   44  C22 UNL     1      19.616  22.189  20.899  1.00  0.00     0.017 C 
HETATM   45  C23 UNL     1      20.798  24.297  20.658  1.00  0.00     0.017 C 
ENDBRANCH   1  42
TORSDOF 12
ENDMDL
