MODEL 1
REMARK VINA RESULT: -7.915360766      0.000      0.000
REMARK  9 active torsions:
REMARK  status: ('A' for Active; 'I' for Inactive)
REMARK    1  A    between atoms: N1_4  and  C3_5 
REMARK    2  A    between atoms: C3_5  and  C4_6 
REMARK    3  A    between atoms: C4_6  and  C5_7 
REMARK    4  A    between atoms: C5_7  and  C6_8 
REMARK    5  A    between atoms: C6_8  and  C7_9 
REMARK    6  A    between atoms: C7_9  and  S1_10 
REMARK    7  A    between atoms: C9_16  and  C10_17 
REMARK    8  A    between atoms: C29_38  and  C30_39 
REMARK    9  A    between atoms: C30_39  and  O6_40 
ROOT
HETATM    1  O1  UNL     1      11.658  22.700  14.076  1.00  0.00    -0.272 OA
HETATM    2  C1  UNL     1      11.743  21.782  14.933  1.00  0.00     0.235 C 
HETATM    3  C2  UNL     1      13.042  21.699  15.681  1.00  0.00     0.228 C 
HETATM    4  N1  UNL     1      14.179  21.529  14.796  1.00  0.00    -0.342 N 
HETATM    5  C8  UNL     1      15.151  22.514  14.676  1.00  0.00     0.243 C 
HETATM    6  O5  UNL     1      16.102  22.309  13.842  1.00  0.00    -0.271 OA
HETATM    7  C9  UNL     1      15.254  23.809  15.393  1.00  0.00     0.178 C 
HETATM    8  N2  UNL     1      16.265  23.751  16.444  1.00  0.00    -0.376 N 
ATOM      9  H2  UNL     1      17.049  24.389  16.309  1.00  0.00     0.160 HD
HETATM   10  C15 UNL     1      16.348  22.961  17.624  1.00  0.00     0.029 A 
HETATM   11  C16 UNL     1      17.669  22.458  17.745  1.00  0.00     0.029 A 
HETATM   12  C17 UNL     1      18.097  21.656  18.768  1.00  0.00     0.003 A 
HETATM   13  C18 UNL     1      17.141  21.361  19.699  1.00  0.00     0.007 A 
HETATM   14  C19 UNL     1      15.806  21.828  19.641  1.00  0.00    -0.056 A 
HETATM   15  C20 UNL     1      15.426  22.629  18.595  1.00  0.00     0.036 A 
HETATM   16  C21 UNL     1      15.027  21.318  20.803  1.00  0.00     0.038 C 
HETATM   17  C22 UNL     1      13.955  20.306  20.481  1.00  0.00     0.005 C 
HETATM   18  C23 UNL     1      14.485  18.932  20.218  1.00  0.00     0.000 C 
HETATM   19  C24 UNL     1      13.304  18.041  19.884  1.00  0.00     0.000 C 
HETATM   20  C25 UNL     1      13.038  18.052  18.395  1.00  0.00     0.000 C 
HETATM   21  C26 UNL     1      11.563  17.856  18.108  1.00  0.00     0.000 C 
HETATM   22  C27 UNL     1      11.268  18.097  16.646  1.00  0.00     0.002 C 
HETATM   23  C28 UNL     1      10.021  18.910  16.432  1.00  0.00     0.027 C 
HETATM   24  C29 UNL     1      10.354  20.372  16.501  1.00  0.00     0.108 C 
HETATM   25  N3  UNL     1      10.673  20.882  15.177  1.00  0.00    -0.353 N 
ATOM     26  H3  UNL     1      10.101  20.579  14.387  1.00  0.00     0.163 HD
ENDROOT
BRANCH   4  27
HETATM   27  C3  UNL     1      14.255  20.307  14.059  1.00  0.00     0.126 C 
BRANCH  27  28
HETATM   28  C4  UNL     1      13.390  20.140  12.885  1.00  0.00     0.020 C 
BRANCH  28  29
HETATM   29  C5  UNL     1      13.242  18.728  12.351  1.00  0.00     0.002 C 
BRANCH  29  30
HETATM   30  C6  UNL     1      11.876  18.277  12.811  1.00  0.00     0.018 C 
BRANCH  30  31
HETATM   31  C7  UNL     1      11.421  16.956  12.337  1.00  0.00     0.165 C 
BRANCH  31  32
HETATM   32  S1  UNL     1      10.049  16.292  13.227  1.00  0.00     0.101 S 
HETATM   33  O2  UNL     1       9.068  17.361  13.597  1.00  0.00    -0.595 OA
HETATM   34  O3  UNL     1      10.512  15.617  14.492  1.00  0.00    -0.595 OA
HETATM   35  O4  UNL     1       9.315  15.121  12.242  1.00  0.00    -0.595 OA
ENDBRANCH  31  32
ENDBRANCH  30  31
ENDBRANCH  29  30
ENDBRANCH  28  29
ENDBRANCH  27  28
ENDBRANCH   4  27
BRANCH   7  36
HETATM   36  C10 UNL     1      15.594  24.865  14.368  1.00  0.00     0.017 C 
HETATM   37  C11 UNL     1      16.967  25.403  14.515  1.00  0.00     0.007 C 
HETATM   38  C12 UNL     1      17.298  25.852  13.083  1.00  0.00     0.000 C 
HETATM   39  C13 UNL     1      16.814  24.658  12.283  1.00  0.00     0.000 C 
HETATM   40  C14 UNL     1      15.477  24.341  12.957  1.00  0.00     0.007 C 
ENDBRANCH   7  36
BRANCH  24  41
HETATM   41  C30 UNL     1       9.089  21.079  17.005  1.00  0.00     0.189 C 
BRANCH  41  42
HETATM   42  O6  UNL     1       8.466  21.773  15.997  1.00  0.00    -0.399 OA
ATOM     43  H6  UNL     1       7.686  21.323  15.695  1.00  0.00     0.209 HD
ENDBRANCH  41  42
ENDBRANCH  24  41
TORSDOF 9
ENDMDL
MODEL 2
REMARK VINA RESULT: -7.803050373      1.075      1.177
REMARK  9 active torsions:
REMARK  status: ('A' for Active; 'I' for Inactive)
REMARK    1  A    between atoms: N1_4  and  C3_5 
REMARK    2  A    between atoms: C3_5  and  C4_6 
REMARK    3  A    between atoms: C4_6  and  C5_7 
REMARK    4  A    between atoms: C5_7  and  C6_8 
REMARK    5  A    between atoms: C6_8  and  C7_9 
REMARK    6  A    between atoms: C7_9  and  S1_10 
REMARK    7  A    between atoms: C9_16  and  C10_17 
REMARK    8  A    between atoms: C29_38  and  C30_39 
REMARK    9  A    between atoms: C30_39  and  O6_40 
ROOT
HETATM    1  O1  UNL     1      11.880  22.931  14.103  1.00  0.00    -0.272 OA
HETATM    2  C1  UNL     1      11.922  21.972  14.917  1.00  0.00     0.235 C 
HETATM    3  C2  UNL     1      13.184  21.845  15.721  1.00  0.00     0.228 C 
HETATM    4  N1  UNL     1      14.361  21.714  14.883  1.00  0.00    -0.342 N 
HETATM    5  C8  UNL     1      15.341  22.699  14.857  1.00  0.00     0.243 C 
HETATM    6  O5  UNL     1      16.329  22.530  14.060  1.00  0.00    -0.271 OA
HETATM    7  C9  UNL     1      15.413  23.956  15.642  1.00  0.00     0.178 C 
HETATM    8  N2  UNL     1      16.372  23.841  16.735  1.00  0.00    -0.376 N 
ATOM      9  H2  UNL     1      17.164  24.480  16.669  1.00  0.00     0.160 HD
HETATM   10  C15 UNL     1      16.397  22.993  17.877  1.00  0.00     0.029 A 
HETATM   11  C16 UNL     1      17.710  22.477  18.035  1.00  0.00     0.029 A 
HETATM   12  C17 UNL     1      18.087  21.624  19.035  1.00  0.00     0.003 A 
HETATM   13  C18 UNL     1      17.087  21.287  19.905  1.00  0.00     0.007 A 
HETATM   14  C19 UNL     1      15.757  21.764  19.807  1.00  0.00    -0.056 A 
HETATM   15  C20 UNL     1      15.429  22.618  18.786  1.00  0.00     0.036 A 
HETATM   16  C21 UNL     1      14.923  21.201  20.904  1.00  0.00     0.038 C 
HETATM   17  C22 UNL     1      13.865  20.211  20.482  1.00  0.00     0.005 C 
HETATM   18  C23 UNL     1      14.403  18.849  20.177  1.00  0.00     0.000 C 
HETATM   19  C24 UNL     1      13.237  17.982  19.743  1.00  0.00     0.000 C 
HETATM   20  C25 UNL     1      13.041  18.068  18.246  1.00  0.00     0.000 C 
HETATM   21  C26 UNL     1      11.581  17.894  17.881  1.00  0.00     0.000 C 
HETATM   22  C27 UNL     1      11.356  18.209  16.420  1.00  0.00     0.002 C 
HETATM   23  C28 UNL     1      10.123  19.038  16.188  1.00  0.00     0.027 C 
HETATM   24  C29 UNL     1      10.457  20.493  16.346  1.00  0.00     0.108 C 
HETATM   25  N3  UNL     1      10.839  21.066  15.065  1.00  0.00    -0.353 N 
ATOM     26  H3  UNL     1      10.305  20.806  14.235  1.00  0.00     0.163 HD
ENDROOT
BRANCH   4  27
HETATM   27  C3  UNL     1      14.468  20.529  14.090  1.00  0.00     0.126 C 
BRANCH  27  28
HETATM   28  C4  UNL     1      14.305  20.641  12.635  1.00  0.00     0.020 C 
BRANCH  28  29
HETATM   29  C5  UNL     1      13.104  19.934  12.035  1.00  0.00     0.002 C 
BRANCH  29  30
HETATM   30  C6  UNL     1      12.756  18.847  13.023  1.00  0.00     0.018 C 
BRANCH  30  31
HETATM   31  C7  UNL     1      11.614  17.978  12.677  1.00  0.00     0.165 C 
BRANCH  31  32
HETATM   32  S1  UNL     1      12.039  16.558  11.720  1.00  0.00     0.101 S 
HETATM   33  O2  UNL     1      11.467  15.307  12.314  1.00  0.00    -0.595 OA
HETATM   34  O3  UNL     1      13.535  16.399  11.638  1.00  0.00    -0.595 OA
HETATM   35  O4  UNL     1      11.447  16.799  10.148  1.00  0.00    -0.595 OA
ENDBRANCH  31  32
ENDBRANCH  30  31
ENDBRANCH  29  30
ENDBRANCH  28  29
ENDBRANCH  27  28
ENDBRANCH   4  27
BRANCH   7  36
HETATM   36  C10 UNL     1      15.804  25.059  14.687  1.00  0.00     0.017 C 
HETATM   37  C11 UNL     1      17.202  25.518  14.864  1.00  0.00     0.007 C 
HETATM   38  C12 UNL     1      17.553  26.044  13.464  1.00  0.00     0.000 C 
HETATM   39  C13 UNL     1      17.009  24.931  12.588  1.00  0.00     0.000 C 
HETATM   40  C14 UNL     1      15.658  24.638  13.246  1.00  0.00     0.007 C 
ENDBRANCH   7  36
BRANCH  24  41
HETATM   41  C30 UNL     1       9.171  21.181  16.824  1.00  0.00     0.189 C 
BRANCH  41  42
HETATM   42  O6  UNL     1       8.513  21.793  15.786  1.00  0.00    -0.399 OA
ATOM     43  H6  UNL     1       8.533  21.262  14.999  1.00  0.00     0.209 HD
ENDBRANCH  41  42
ENDBRANCH  24  41
TORSDOF 9
ENDMDL
MODEL 3
REMARK VINA RESULT: -6.334543426      3.944      9.884
REMARK  9 active torsions:
REMARK  status: ('A' for Active; 'I' for Inactive)
REMARK    1  A    between atoms: N1_4  and  C3_5 
REMARK    2  A    between atoms: C3_5  and  C4_6 
REMARK    3  A    between atoms: C4_6  and  C5_7 
REMARK    4  A    between atoms: C5_7  and  C6_8 
REMARK    5  A    between atoms: C6_8  and  C7_9 
REMARK    6  A    between atoms: C7_9  and  S1_10 
REMARK    7  A    between atoms: C9_16  and  C10_17 
REMARK    8  A    between atoms: C29_38  and  C30_39 
REMARK    9  A    between atoms: C30_39  and  O6_40 
ROOT
HETATM    1  O1  UNL     1       9.424  19.027  18.129  1.00  0.00    -0.272 OA
HETATM    2  C1  UNL     1      10.010  18.963  17.017  1.00  0.00     0.235 C 
HETATM    3  C2  UNL     1       9.892  17.657  16.285  1.00  0.00     0.228 C 
HETATM    4  N1  UNL     1      10.388  16.540  17.067  1.00  0.00    -0.342 N 
HETATM    5  C8  UNL     1       9.535  15.535  17.508  1.00  0.00     0.243 C 
HETATM    6  O5  UNL     1      10.040  14.604  18.229  1.00  0.00    -0.271 OA
HETATM    7  C9  UNL     1       8.082  15.376  17.258  1.00  0.00     0.178 C 
HETATM    8  N2  UNL     1       7.829  14.353  16.249  1.00  0.00    -0.376 N 
ATOM      9  H2  UNL     1       7.302  13.548  16.588  1.00  0.00     0.160 HD
HETATM   10  C15 UNL     1       8.188  14.281  14.874  1.00  0.00     0.029 A 
HETATM   11  C16 UNL     1       8.674  12.977  14.597  1.00  0.00     0.029 A 
HETATM   12  C17 UNL     1       9.109  12.563  13.368  1.00  0.00     0.003 A 
HETATM   13  C18 UNL     1       9.044  13.515  12.389  1.00  0.00     0.007 A 
HETATM   14  C19 UNL     1       8.571  14.834  12.595  1.00  0.00    -0.056 A 
HETATM   15  C20 UNL     1       8.146  15.200  13.846  1.00  0.00     0.036 A 
HETATM   16  C21 UNL     1       8.640  15.613  11.329  1.00  0.00     0.038 C 
HETATM   17  C22 UNL     1       9.659  16.725  11.297  1.00  0.00     0.005 C 
HETATM   18  C23 UNL     1      11.062  16.248  11.092  1.00  0.00     0.000 C 
HETATM   19  C24 UNL     1      11.967  17.465  11.112  1.00  0.00     0.000 C 
HETATM   20  C25 UNL     1      12.437  17.753  12.520  1.00  0.00     0.000 C 
HETATM   21  C26 UNL     1      12.660  19.237  12.724  1.00  0.00     0.000 C 
HETATM   22  C27 UNL     1      12.904  19.545  14.183  1.00  0.00     0.002 C 
HETATM   23  C28 UNL     1      12.159  20.765  14.651  1.00  0.00     0.027 C 
HETATM   24  C29 UNL     1      10.770  20.378  15.068  1.00  0.00     0.108 C 
HETATM   25  N3  UNL     1      10.738  20.061  16.488  1.00  0.00    -0.353 N 
ATOM     26  H3  UNL     1      11.262  20.654  17.132  1.00  0.00     0.163 HD
ENDROOT
BRANCH   4  27
HETATM   27  C3  UNL     1      11.786  16.518  17.360  1.00  0.00     0.126 C 
BRANCH  27  28
HETATM   28  C4  UNL     1      12.243  17.063  18.644  1.00  0.00     0.020 C 
BRANCH  28  29
HETATM   29  C5  UNL     1      13.635  17.666  18.664  1.00  0.00     0.002 C 
BRANCH  29  30
HETATM   30  C6  UNL     1      13.615  18.658  19.802  1.00  0.00     0.018 C 
BRANCH  30  31
HETATM   31  C7  UNL     1      14.626  19.732  19.762  1.00  0.00     0.165 C 
BRANCH  31  32
HETATM   32  S1  UNL     1      14.368  20.933  18.494  1.00  0.00     0.101 S 
HETATM   33  O2  UNL     1      14.662  22.317  18.984  1.00  0.00    -0.595 OA
HETATM   34  O3  UNL     1      12.941  20.897  18.009  1.00  0.00    -0.595 OA
HETATM   35  O4  UNL     1      15.379  20.532  17.191  1.00  0.00    -0.595 OA
ENDBRANCH  31  32
ENDBRANCH  30  31
ENDBRANCH  29  30
ENDBRANCH  28  29
ENDBRANCH  27  28
ENDBRANCH   4  27
BRANCH   7  36
HETATM   36  C10 UNL     1       7.437  15.013  18.575  1.00  0.00     0.017 C 
HETATM   37  C11 UNL     1       6.335  15.927  18.958  1.00  0.00     0.007 C 
HETATM   38  C12 UNL     1       5.455  15.027  19.839  1.00  0.00     0.000 C 
HETATM   39  C13 UNL     1       5.408  13.759  19.008  1.00  0.00     0.000 C 
HETATM   40  C14 UNL     1       6.864  13.617  18.558  1.00  0.00     0.007 C 
ENDBRANCH   7  36
BRANCH  24  41
HETATM   41  C30 UNL     1       9.888  21.610  14.824  1.00  0.00     0.189 C 
BRANCH  41  42
HETATM   42  O6  UNL     1       8.794  21.618  15.654  1.00  0.00    -0.399 OA
ATOM     43  H6  UNL     1       8.241  22.373  15.493  1.00  0.00     0.209 HD
ENDBRANCH  41  42
ENDBRANCH  24  41
TORSDOF 9
ENDMDL
MODEL 4
REMARK VINA RESULT: -6.240901605      5.372     10.438
REMARK  9 active torsions:
REMARK  status: ('A' for Active; 'I' for Inactive)
REMARK    1  A    between atoms: N1_4  and  C3_5 
REMARK    2  A    between atoms: C3_5  and  C4_6 
REMARK    3  A    between atoms: C4_6  and  C5_7 
REMARK    4  A    between atoms: C5_7  and  C6_8 
REMARK    5  A    between atoms: C6_8  and  C7_9 
REMARK    6  A    between atoms: C7_9  and  S1_10 
REMARK    7  A    between atoms: C9_16  and  C10_17 
REMARK    8  A    between atoms: C29_38  and  C30_39 
REMARK    9  A    between atoms: C30_39  and  O6_40 
ROOT
HETATM    1  O1  UNL     1      11.304  14.288  14.062  1.00  0.00    -0.272 OA
HETATM    2  C1  UNL     1      10.062  14.274  13.860  1.00  0.00     0.235 C 
HETATM    3  C2  UNL     1       9.606  14.805  12.532  1.00  0.00     0.228 C 
HETATM    4  N1  UNL     1      10.035  16.173  12.307  1.00  0.00    -0.342 N 
HETATM    5  C8  UNL     1      10.940  16.488  11.301  1.00  0.00     0.243 C 
HETATM    6  O5  UNL     1      11.302  17.712  11.193  1.00  0.00    -0.271 OA
HETATM    7  C9  UNL     1      11.567  15.588  10.303  1.00  0.00     0.178 C 
HETATM    8  N2  UNL     1      10.942  15.737   8.993  1.00  0.00    -0.376 N 
ATOM      9  H2  UNL     1      11.568  16.082   8.265  1.00  0.00     0.160 HD
HETATM   10  C15 UNL     1       9.613  15.484   8.553  1.00  0.00     0.029 A 
HETATM   11  C16 UNL     1       9.188  16.567   7.740  1.00  0.00     0.029 A 
HETATM   12  C17 UNL     1       7.956  16.650   7.151  1.00  0.00     0.003 A 
HETATM   13  C18 UNL     1       7.131  15.589   7.402  1.00  0.00     0.007 A 
HETATM   14  C19 UNL     1       7.490  14.477   8.202  1.00  0.00    -0.056 A 
HETATM   15  C20 UNL     1       8.737  14.441   8.770  1.00  0.00     0.036 A 
HETATM   16  C21 UNL     1       6.364  13.506   8.276  1.00  0.00     0.038 C 
HETATM   17  C22 UNL     1       5.693  13.380   9.622  1.00  0.00     0.005 C 
HETATM   18  C23 UNL     1       4.759  14.506   9.936  1.00  0.00     0.000 C 
HETATM   19  C24 UNL     1       4.190  14.256  11.319  1.00  0.00     0.000 C 
HETATM   20  C25 UNL     1       5.064  14.896  12.375  1.00  0.00     0.000 C 
HETATM   21  C26 UNL     1       5.016  14.107  13.667  1.00  0.00     0.000 C 
HETATM   22  C27 UNL     1       6.059  14.610  14.638  1.00  0.00     0.002 C 
HETATM   23  C28 UNL     1       6.793  13.495  15.331  1.00  0.00     0.027 C 
HETATM   24  C29 UNL     1       7.945  13.045  14.482  1.00  0.00     0.108 C 
HETATM   25  N3  UNL     1       9.150  13.784  14.830  1.00  0.00    -0.353 N 
ATOM     26  H3  UNL     1       9.347  13.957  15.816  1.00  0.00     0.163 HD
ENDROOT
BRANCH   4  27
HETATM   27  C3  UNL     1       9.485  17.177  13.162  1.00  0.00     0.126 C 
BRANCH  27  28
HETATM   28  C4  UNL     1      10.386  17.896  14.071  1.00  0.00     0.020 C 
BRANCH  28  29
HETATM   29  C5  UNL     1       9.866  19.201  14.644  1.00  0.00     0.002 C 
BRANCH  29  30
HETATM   30  C6  UNL     1      11.051  20.137  14.623  1.00  0.00     0.018 C 
BRANCH  30  31
HETATM   31  C7  UNL     1      12.094  19.862  13.617  1.00  0.00     0.165 C 
BRANCH  31  32
HETATM   32  S1  UNL     1      13.343  21.103  13.500  1.00  0.00     0.101 S 
HETATM   33  O2  UNL     1      14.483  20.822  14.431  1.00  0.00    -0.595 OA
HETATM   34  O3  UNL     1      12.780  22.459  13.840  1.00  0.00    -0.595 OA
HETATM   35  O4  UNL     1      13.881  21.143  11.891  1.00  0.00    -0.595 OA
ENDBRANCH  31  32
ENDBRANCH  30  31
ENDBRANCH  29  30
ENDBRANCH  28  29
ENDBRANCH  27  28
ENDBRANCH   4  27
BRANCH   7  36
HETATM   36  C10 UNL     1      13.037  15.934  10.248  1.00  0.00     0.017 C 
HETATM   37  C11 UNL     1      13.796  15.451  11.425  1.00  0.00     0.007 C 
HETATM   38  C12 UNL     1      15.212  15.282  10.854  1.00  0.00     0.000 C 
HETATM   39  C13 UNL     1      14.918  14.576   9.545  1.00  0.00     0.000 C 
HETATM   40  C14 UNL     1      13.708  15.356   9.026  1.00  0.00     0.007 C 
ENDBRANCH   7  36
BRANCH  24  41
HETATM   41  C30 UNL     1       8.170  11.563  14.810  1.00  0.00     0.189 C 
BRANCH  41  42
HETATM   42  O6  UNL     1       9.112  11.404  15.797  1.00  0.00    -0.399 OA
ATOM     43  H6  UNL     1       9.142  10.507  16.107  1.00  0.00     0.209 HD
ENDBRANCH  41  42
ENDBRANCH  24  41
TORSDOF 9
ENDMDL
MODEL 5
REMARK VINA RESULT: -6.222181393      5.740     10.240
REMARK  9 active torsions:
REMARK  status: ('A' for Active; 'I' for Inactive)
REMARK    1  A    between atoms: N1_4  and  C3_5 
REMARK    2  A    between atoms: C3_5  and  C4_6 
REMARK    3  A    between atoms: C4_6  and  C5_7 
REMARK    4  A    between atoms: C5_7  and  C6_8 
REMARK    5  A    between atoms: C6_8  and  C7_9 
REMARK    6  A    between atoms: C7_9  and  S1_10 
REMARK    7  A    between atoms: C9_16  and  C10_17 
REMARK    8  A    between atoms: C29_38  and  C30_39 
REMARK    9  A    between atoms: C30_39  and  O6_40 
ROOT
HETATM    1  O1  UNL     1      11.143  14.194  14.064  1.00  0.00    -0.272 OA
HETATM    2  C1  UNL     1       9.915  14.297  13.809  1.00  0.00     0.235 C 
HETATM    3  C2  UNL     1       9.565  15.004  12.532  1.00  0.00     0.228 C 
HETATM    4  N1  UNL     1      10.101  16.352  12.482  1.00  0.00    -0.342 N 
HETATM    5  C8  UNL     1      11.075  16.706  11.558  1.00  0.00     0.243 C 
HETATM    6  O5  UNL     1      11.529  17.903  11.604  1.00  0.00    -0.271 OA
HETATM    7  C9  UNL     1      11.686  15.876  10.490  1.00  0.00     0.178 C 
HETATM    8  N2  UNL     1      11.140  16.216   9.181  1.00  0.00    -0.376 N 
ATOM      9  H2  UNL     1      11.824  16.590   8.523  1.00  0.00     0.160 HD
HETATM   10  C15 UNL     1       9.820  16.116   8.660  1.00  0.00     0.029 A 
HETATM   11  C16 UNL     1       9.514  17.311   7.958  1.00  0.00     0.029 A 
HETATM   12  C17 UNL     1       8.322  17.552   7.332  1.00  0.00     0.003 A 
HETATM   13  C18 UNL     1       7.412  16.536   7.425  1.00  0.00     0.007 A 
HETATM   14  C19 UNL     1       7.651  15.319   8.108  1.00  0.00    -0.056 A 
HETATM   15  C20 UNL     1       8.862  15.125   8.720  1.00  0.00     0.036 A 
HETATM   16  C21 UNL     1       6.456  14.435   8.024  1.00  0.00     0.038 C 
HETATM   17  C22 UNL     1       5.711  14.213   9.318  1.00  0.00     0.005 C 
HETATM   18  C23 UNL     1       4.845  15.365   9.718  1.00  0.00     0.000 C 
HETATM   19  C24 UNL     1       4.191  15.009  11.039  1.00  0.00     0.000 C 
HETATM   20  C25 UNL     1       5.054  15.459  12.196  1.00  0.00     0.000 C 
HETATM   21  C26 UNL     1       4.886  14.538  13.388  1.00  0.00     0.000 C 
HETATM   22  C27 UNL     1       5.912  14.850  14.452  1.00  0.00     0.002 C 
HETATM   23  C28 UNL     1       6.528  13.613  15.044  1.00  0.00     0.027 C 
HETATM   24  C29 UNL     1       7.687  13.172  14.198  1.00  0.00     0.108 C 
HETATM   25  N3  UNL     1       8.922  13.774  14.678  1.00  0.00    -0.353 N 
ATOM     26  H3  UNL     1       9.081  13.822  15.685  1.00  0.00     0.163 HD
ENDROOT
BRANCH   4  27
HETATM   27  C3  UNL     1       9.581  17.295  13.422  1.00  0.00     0.126 C 
BRANCH  27  28
HETATM   28  C4  UNL     1      10.483  17.832  14.449  1.00  0.00     0.020 C 
BRANCH  28  29
HETATM   29  C5  UNL     1      10.474  19.338  14.634  1.00  0.00     0.002 C 
BRANCH  29  30
HETATM   30  C6  UNL     1      10.164  19.551  16.096  1.00  0.00     0.018 C 
BRANCH  30  31
HETATM   31  C7  UNL     1      10.226  18.360  16.966  1.00  0.00     0.165 C 
BRANCH  31  32
HETATM   32  S1  UNL     1      11.263  18.542  18.382  1.00  0.00     0.101 S 
HETATM   33  O2  UNL     1      10.461  18.592  19.646  1.00  0.00    -0.595 OA
HETATM   34  O3  UNL     1      12.076  19.807  18.288  1.00  0.00    -0.595 OA
HETATM   35  O4  UNL     1      12.336  17.227  18.407  1.00  0.00    -0.595 OA
ENDBRANCH  31  32
ENDBRANCH  30  31
ENDBRANCH  29  30
ENDBRANCH  28  29
ENDBRANCH  27  28
ENDBRANCH   4  27
BRANCH   7  36
HETATM   36  C10 UNL     1      13.178  16.113  10.536  1.00  0.00     0.017 C 
HETATM   37  C11 UNL     1      13.855  15.369  11.625  1.00  0.00     0.007 C 
HETATM   38  C12 UNL     1      15.276  15.197  11.069  1.00  0.00     0.000 C 
HETATM   39  C13 UNL     1      14.984  14.763   9.645  1.00  0.00     0.000 C 
HETATM   40  C14 UNL     1      13.853  15.715   9.247  1.00  0.00     0.007 C 
ENDBRANCH   7  36
BRANCH  24  41
HETATM   41  C30 UNL     1       7.789  11.650  14.365  1.00  0.00     0.189 C 
BRANCH  41  42
HETATM   42  O6  UNL     1       8.358  11.313  15.568  1.00  0.00    -0.399 OA
ATOM     43  H6  UNL     1       9.131  10.774  15.448  1.00  0.00     0.209 HD
ENDBRANCH  41  42
ENDBRANCH  24  41
TORSDOF 9
ENDMDL
