MODEL 1
REMARK VINA RESULT: -8.893853089      0.000      0.000
REMARK  13 active torsions:
REMARK  status: ('A' for Active; 'I' for Inactive)
REMARK    1  A    between atoms: O1_2  and  C2_3 
REMARK    2  A    between atoms: C3_4  and  O2_5 
REMARK    3  A    between atoms: C4_7  and  C5_8 
REMARK    4  A    between atoms: C5_8  and  O3_9 
REMARK    5  A    between atoms: C6_12  and  O5_13 
REMARK    6  A    between atoms: O5_13  and  C7_14 
REMARK    7  A    between atoms: C13_23  and  C14_24 
REMARK    8  A    between atoms: C14_24  and  N2_25 
REMARK    9  A    between atoms: N2_25  and  C17_28 
REMARK   10  A    between atoms: C17_28  and  C18_29 
REMARK   11  A    between atoms: C18_29  and  C19_30 
REMARK   12  A    between atoms: C19_30  and  C20_31 
REMARK   13  A    between atoms: C32_43  and  O7_44 
ROOT
HETATM    1  C7  UNL     1      17.921  24.608  17.279  1.00  0.00     0.146 A 
HETATM    2  C8  UNL     1      16.734  24.427  17.958  1.00  0.00     0.066 A 
HETATM    3  C9  UNL     1      16.303  23.103  17.729  1.00  0.00    -0.014 A 
HETATM    4  C10 UNL     1      17.262  22.565  16.920  1.00  0.00     0.087 A 
HETATM    5  N1  UNL     1      18.250  23.473  16.646  1.00  0.00    -0.333 N 
ATOM      6  H1  UNL     1      19.076  23.316  16.070  1.00  0.00     0.168 HD
HETATM    7  C11 UNL     1      17.015  21.185  16.505  1.00  0.00     0.177 C 
HETATM    8  O6  UNL     1      17.984  20.411  16.483  1.00  0.00    -0.291 OA
HETATM    9  C12 UNL     1      15.612  20.879  16.152  1.00  0.00     0.098 C 
HETATM   10  C13 UNL     1      14.575  21.284  17.232  1.00  0.00     0.007 C 
HETATM   11  C23 UNL     1      14.416  20.064  18.019  1.00  0.00     0.010 A 
HETATM   12  C24 UNL     1      13.557  20.439  19.244  1.00  0.00    -0.001 A 
HETATM   13  C25 UNL     1      14.494  20.971  20.248  1.00  0.00     0.007 C 
HETATM   14  C26 UNL     1      15.622  21.654  19.515  1.00  0.00     0.015 C 
HETATM   15  C27 UNL     1      15.153  22.315  18.205  1.00  0.00    -0.004 C 
HETATM   16  C28 UNL     1      14.173  23.351  18.691  1.00  0.00     0.021 C 
HETATM   17  C29 UNL     1      13.591  19.112  18.620  1.00  0.00    -0.039 A 
HETATM   18  C30 UNL     1      12.272  18.505  18.215  1.00  0.00     0.015 C 
HETATM   19  C31 UNL     1      14.255  18.123  19.644  1.00  0.00     0.015 C 
ENDROOT
BRANCH   1  20
HETATM   20  O5  UNL     1      18.618  25.807  17.289  1.00  0.00    -0.302 OA
BRANCH  20  21
HETATM   21  C6  UNL     1      19.920  25.862  16.722  1.00  0.00     0.299 C 
HETATM   22  O4  UNL     1      19.888  27.059  15.943  1.00  0.00    -0.348 OA
HETATM   23  C4  UNL     1      21.134  27.261  15.382  1.00  0.00     0.179 C 
HETATM   24  C3  UNL     1      22.149  27.560  16.440  1.00  0.00     0.180 C 
HETATM   25  C2  UNL     1      21.474  27.386  17.807  1.00  0.00     0.185 C 
HETATM   26  C32 UNL     1      20.914  25.976  17.830  1.00  0.00     0.205 C 
BRANCH  23  27
HETATM   27  C5  UNL     1      21.037  28.448  14.452  1.00  0.00     0.198 C 
BRANCH  27  28
HETATM   28  O3  UNL     1      19.895  29.184  14.730  1.00  0.00    -0.398 OA
ATOM     29  H3  UNL     1      19.854  29.950  14.171  1.00  0.00     0.209 HD
ENDBRANCH  27  28
ENDBRANCH  23  27
BRANCH  24  30
HETATM   30  O2  UNL     1      22.624  28.862  16.308  1.00  0.00    -0.390 OA
ATOM     31  H2  UNL     1      21.963  29.408  15.897  1.00  0.00     0.210 HD
ENDBRANCH  24  30
BRANCH  25  32
HETATM   32  O1  UNL     1      22.327  27.655  18.847  1.00  0.00    -0.385 OA
HETATM   33  C1  UNL     1      23.447  26.804  18.698  1.00  0.00     0.202 C 
ENDBRANCH  25  32
BRANCH  26  34
HETATM   34  O7  UNL     1      20.351  25.683  19.089  1.00  0.00    -0.388 OA
ATOM     35  H7  UNL     1      20.589  26.347  19.726  1.00  0.00     0.210 HD
ENDBRANCH  26  34
ENDBRANCH  20  21
ENDBRANCH   1  20
BRANCH  10  36
HETATM   36  C14 UNL     1      13.503  21.957  16.499  1.00  0.00     0.247 C 
BRANCH  36  37
HETATM   37  N2  UNL     1      12.914  21.640  15.289  1.00  0.00    -0.074 N 
HETATM   38  C15 UNL     1      11.588  21.084  15.221  1.00  0.00     0.272 C 
HETATM   39  C16 UNL     1      13.721  20.625  14.527  1.00  0.00     0.272 C 
BRANCH  37  40
HETATM   40  C17 UNL     1      12.901  22.783  14.402  1.00  0.00     0.236 C 
BRANCH  40  41
HETATM   41  C18 UNL     1      14.163  23.075  13.683  1.00  0.00     0.028 C 
BRANCH  41  42
HETATM   42  C19 UNL     1      15.004  24.129  14.432  1.00  0.00     0.005 C 
BRANCH  42  43
HETATM   43  C20 UNL     1      16.285  24.350  13.659  1.00  0.00    -0.023 C 
HETATM   44  C21 UNL     1      16.973  25.617  14.050  1.00  0.00     0.009 C 
HETATM   45  C22 UNL     1      16.059  24.220  12.189  1.00  0.00     0.009 C 
ENDBRANCH  42  43
ENDBRANCH  41  42
ENDBRANCH  40  41
ENDBRANCH  37  40
ENDBRANCH  36  37
ENDBRANCH  10  36
TORSDOF 13
ENDMDL
MODEL 2
REMARK VINA RESULT: -8.582706462      1.022      2.247
REMARK  13 active torsions:
REMARK  status: ('A' for Active; 'I' for Inactive)
REMARK    1  A    between atoms: O1_2  and  C2_3 
REMARK    2  A    between atoms: C3_4  and  O2_5 
REMARK    3  A    between atoms: C4_7  and  C5_8 
REMARK    4  A    between atoms: C5_8  and  O3_9 
REMARK    5  A    between atoms: C6_12  and  O5_13 
REMARK    6  A    between atoms: O5_13  and  C7_14 
REMARK    7  A    between atoms: C13_23  and  C14_24 
REMARK    8  A    between atoms: C14_24  and  N2_25 
REMARK    9  A    between atoms: N2_25  and  C17_28 
REMARK   10  A    between atoms: C17_28  and  C18_29 
REMARK   11  A    between atoms: C18_29  and  C19_30 
REMARK   12  A    between atoms: C19_30  and  C20_31 
REMARK   13  A    between atoms: C32_43  and  O7_44 
ROOT
HETATM    1  C7  UNL     1      17.819  24.733  17.044  1.00  0.00     0.146 A 
HETATM    2  C8  UNL     1      16.664  24.533  17.772  1.00  0.00     0.066 A 
HETATM    3  C9  UNL     1      16.290  23.180  17.627  1.00  0.00    -0.014 A 
HETATM    4  C10 UNL     1      17.247  22.645  16.813  1.00  0.00     0.087 A 
HETATM    5  N1  UNL     1      18.180  23.582  16.458  1.00  0.00    -0.333 N 
ATOM      6  H1  UNL     1      18.994  23.433  15.861  1.00  0.00     0.168 HD
HETATM    7  C11 UNL     1      17.053  21.235  16.477  1.00  0.00     0.177 C 
HETATM    8  O6  UNL     1      18.057  20.506  16.461  1.00  0.00    -0.291 OA
HETATM    9  C12 UNL     1      15.655  20.846  16.190  1.00  0.00     0.098 C 
HETATM   10  C13 UNL     1      14.636  21.259  17.285  1.00  0.00     0.007 C 
HETATM   11  C23 UNL     1      14.562  20.077  18.137  1.00  0.00     0.010 A 
HETATM   12  C24 UNL     1      13.726  20.475  19.371  1.00  0.00    -0.001 A 
HETATM   13  C25 UNL     1      14.670  21.102  20.313  1.00  0.00     0.007 C 
HETATM   14  C26 UNL     1      15.739  21.797  19.507  1.00  0.00     0.015 C 
HETATM   15  C27 UNL     1      15.196  22.366  18.182  1.00  0.00    -0.004 C 
HETATM   16  C28 UNL     1      14.183  23.380  18.649  1.00  0.00     0.021 C 
HETATM   17  C29 UNL     1      13.803  19.120  18.815  1.00  0.00    -0.039 A 
HETATM   18  C30 UNL     1      12.503  18.433  18.488  1.00  0.00     0.015 C 
HETATM   19  C31 UNL     1      14.547  18.218  19.864  1.00  0.00     0.015 C 
ENDROOT
BRANCH   1  20
HETATM   20  O5  UNL     1      18.457  25.961  16.968  1.00  0.00    -0.302 OA
BRANCH  20  21
HETATM   21  C6  UNL     1      19.359  26.343  17.998  1.00  0.00     0.299 C 
HETATM   22  O4  UNL     1      19.996  25.114  18.349  1.00  0.00    -0.348 OA
HETATM   23  C4  UNL     1      20.954  25.365  19.312  1.00  0.00     0.179 C 
HETATM   24  C3  UNL     1      22.069  26.187  18.746  1.00  0.00     0.180 C 
HETATM   25  C2  UNL     1      21.682  26.594  17.319  1.00  0.00     0.185 C 
HETATM   26  C32 UNL     1      20.347  27.307  17.427  1.00  0.00     0.205 C 
BRANCH  23  27
HETATM   27  C5  UNL     1      21.511  24.038  19.771  1.00  0.00     0.198 C 
BRANCH  27  28
HETATM   28  O3  UNL     1      20.477  23.167  20.084  1.00  0.00    -0.398 OA
ATOM     29  H3  UNL     1      20.414  23.058  21.026  1.00  0.00     0.209 HD
ENDBRANCH  27  28
ENDBRANCH  23  27
BRANCH  24  30
HETATM   30  O2  UNL     1      23.253  25.453  18.724  1.00  0.00    -0.390 OA
ATOM     31  H2  UNL     1      23.577  25.334  19.610  1.00  0.00     0.210 HD
ENDBRANCH  24  30
BRANCH  25  32
HETATM   32  O1  UNL     1      22.656  27.342  16.707  1.00  0.00    -0.385 OA
HETATM   33  C1  UNL     1      22.993  26.682  15.503  1.00  0.00     0.202 C 
ENDBRANCH  25  32
BRANCH  26  34
HETATM   34  O7  UNL     1      19.945  27.808  16.172  1.00  0.00    -0.388 OA
ATOM     35  H7  UNL     1      19.126  27.412  15.898  1.00  0.00     0.210 HD
ENDBRANCH  26  34
ENDBRANCH  20  21
ENDBRANCH   1  20
BRANCH  10  36
HETATM   36  C14 UNL     1      13.509  21.843  16.556  1.00  0.00     0.247 C 
BRANCH  36  37
HETATM   37  N2  UNL     1      12.775  21.340  15.498  1.00  0.00    -0.074 N 
HETATM   38  C15 UNL     1      11.594  20.546  15.713  1.00  0.00     0.272 C 
HETATM   39  C16 UNL     1      13.604  20.441  14.622  1.00  0.00     0.272 C 
BRANCH  37  40
HETATM   40  C17 UNL     1      12.372  22.397  14.596  1.00  0.00     0.236 C 
BRANCH  40  41
HETATM   41  C18 UNL     1      13.402  22.887  13.652  1.00  0.00     0.028 C 
BRANCH  41  42
HETATM   42  C19 UNL     1      14.377  23.863  14.341  1.00  0.00     0.005 C 
BRANCH  42  43
HETATM   43  C20 UNL     1      15.739  23.703  13.703  1.00  0.00    -0.023 C 
HETATM   44  C21 UNL     1      16.496  24.990  13.647  1.00  0.00     0.009 C 
HETATM   45  C22 UNL     1      15.641  23.006  12.386  1.00  0.00     0.009 C 
ENDBRANCH  42  43
ENDBRANCH  41  42
ENDBRANCH  40  41
ENDBRANCH  37  40
ENDBRANCH  36  37
ENDBRANCH  10  36
TORSDOF 13
ENDMDL
MODEL 3
REMARK VINA RESULT: -8.570850070      1.410      3.597
REMARK  13 active torsions:
REMARK  status: ('A' for Active; 'I' for Inactive)
REMARK    1  A    between atoms: O1_2  and  C2_3 
REMARK    2  A    between atoms: C3_4  and  O2_5 
REMARK    3  A    between atoms: C4_7  and  C5_8 
REMARK    4  A    between atoms: C5_8  and  O3_9 
REMARK    5  A    between atoms: C6_12  and  O5_13 
REMARK    6  A    between atoms: O5_13  and  C7_14 
REMARK    7  A    between atoms: C13_23  and  C14_24 
REMARK    8  A    between atoms: C14_24  and  N2_25 
REMARK    9  A    between atoms: N2_25  and  C17_28 
REMARK   10  A    between atoms: C17_28  and  C18_29 
REMARK   11  A    between atoms: C18_29  and  C19_30 
REMARK   12  A    between atoms: C19_30  and  C20_31 
REMARK   13  A    between atoms: C32_43  and  O7_44 
ROOT
HETATM    1  C7  UNL     1      18.129  25.105  16.834  1.00  0.00     0.146 A 
HETATM    2  C8  UNL     1      16.890  24.995  17.430  1.00  0.00     0.066 A 
HETATM    3  C9  UNL     1      16.449  23.665  17.268  1.00  0.00    -0.014 A 
HETATM    4  C10 UNL     1      17.455  23.051  16.578  1.00  0.00     0.087 A 
HETATM    5  N1  UNL     1      18.480  23.920  16.314  1.00  0.00    -0.333 N 
ATOM      6  H1  UNL     1      19.345  23.706  15.818  1.00  0.00     0.168 HD
HETATM    7  C11 UNL     1      17.210  21.648  16.248  1.00  0.00     0.177 C 
HETATM    8  O6  UNL     1      18.161  20.858  16.360  1.00  0.00    -0.291 OA
HETATM    9  C12 UNL     1      15.832  21.338  15.811  1.00  0.00     0.098 C 
HETATM   10  C13 UNL     1      14.724  21.841  16.774  1.00  0.00     0.007 C 
HETATM   11  C23 UNL     1      14.479  20.687  17.635  1.00  0.00     0.010 A 
HETATM   12  C24 UNL     1      13.537  21.167  18.758  1.00  0.00    -0.001 A 
HETATM   13  C25 UNL     1      14.407  21.759  19.789  1.00  0.00     0.007 C 
HETATM   14  C26 UNL     1      15.602  22.366  19.098  1.00  0.00     0.015 C 
HETATM   15  C27 UNL     1      15.249  22.933  17.710  1.00  0.00    -0.004 C 
HETATM   16  C28 UNL     1      14.257  24.019  18.040  1.00  0.00     0.021 C 
HETATM   17  C29 UNL     1      13.590  19.797  18.239  1.00  0.00    -0.039 A 
HETATM   18  C30 UNL     1      12.294  19.182  17.779  1.00  0.00     0.015 C 
HETATM   19  C31 UNL     1      14.152  18.877  19.383  1.00  0.00     0.015 C 
ENDROOT
BRANCH   1  20
HETATM   20  O5  UNL     1      18.850  26.289  16.809  1.00  0.00    -0.302 OA
BRANCH  20  21
HETATM   21  C6  UNL     1      19.711  26.605  17.895  1.00  0.00     0.299 C 
HETATM   22  O4  UNL     1      20.299  25.346  18.224  1.00  0.00    -0.348 OA
HETATM   23  C4  UNL     1      21.216  25.532  19.239  1.00  0.00     0.179 C 
HETATM   24  C3  UNL     1      22.378  26.344  18.760  1.00  0.00     0.180 C 
HETATM   25  C2  UNL     1      22.069  26.819  17.335  1.00  0.00     0.185 C 
HETATM   26  C32 UNL     1      20.749  27.564  17.411  1.00  0.00     0.205 C 
BRANCH  23  27
HETATM   27  C5  UNL     1      21.717  24.172  19.669  1.00  0.00     0.198 C 
BRANCH  27  28
HETATM   28  O3  UNL     1      20.647  23.329  19.932  1.00  0.00    -0.398 OA
ATOM     29  H3  UNL     1      19.827  23.772  19.747  1.00  0.00     0.209 HD
ENDBRANCH  27  28
ENDBRANCH  23  27
BRANCH  24  30
HETATM   30  O2  UNL     1      23.543  25.580  18.763  1.00  0.00    -0.390 OA
ATOM     31  H2  UNL     1      23.991  25.677  19.595  1.00  0.00     0.210 HD
ENDBRANCH  24  30
BRANCH  25  32
HETATM   32  O1  UNL     1      23.089  27.564  16.800  1.00  0.00    -0.385 OA
HETATM   33  C1  UNL     1      23.601  26.839  15.699  1.00  0.00     0.202 C 
ENDBRANCH  25  32
BRANCH  26  34
HETATM   34  O7  UNL     1      20.420  28.126  16.160  1.00  0.00    -0.388 OA
ATOM     35  H7  UNL     1      20.561  29.065  16.166  1.00  0.00     0.210 HD
ENDBRANCH  26  34
ENDBRANCH  20  21
ENDBRANCH   1  20
BRANCH  10  36
HETATM   36  C14 UNL     1      13.727  22.473  15.911  1.00  0.00     0.247 C 
BRANCH  36  37
HETATM   37  N2  UNL     1      13.479  22.305  14.562  1.00  0.00    -0.074 N 
HETATM   38  C15 UNL     1      14.484  22.591  13.572  1.00  0.00     0.272 C 
HETATM   39  C16 UNL     1      12.327  23.152  14.098  1.00  0.00     0.272 C 
BRANCH  37  40
HETATM   40  C17 UNL     1      13.031  20.958  14.280  1.00  0.00     0.236 C 
BRANCH  40  41
HETATM   41  C18 UNL     1      11.567  20.757  14.183  1.00  0.00     0.028 C 
BRANCH  41  42
HETATM   42  C19 UNL     1      11.218  19.271  13.966  1.00  0.00     0.005 C 
BRANCH  42  43
HETATM   43  C20 UNL     1       9.913  18.981  14.675  1.00  0.00    -0.023 C 
HETATM   44  C21 UNL     1       9.471  20.118  15.538  1.00  0.00     0.009 C 
HETATM   45  C22 UNL     1       9.964  17.671  15.388  1.00  0.00     0.009 C 
ENDBRANCH  42  43
ENDBRANCH  41  42
ENDBRANCH  40  41
ENDBRANCH  37  40
ENDBRANCH  36  37
ENDBRANCH  10  36
TORSDOF 13
ENDMDL
MODEL 4
REMARK VINA RESULT: -8.506516158      0.898      2.738
REMARK  13 active torsions:
REMARK  status: ('A' for Active; 'I' for Inactive)
REMARK    1  A    between atoms: O1_2  and  C2_3 
REMARK    2  A    between atoms: C3_4  and  O2_5 
REMARK    3  A    between atoms: C4_7  and  C5_8 
REMARK    4  A    between atoms: C5_8  and  O3_9 
REMARK    5  A    between atoms: C6_12  and  O5_13 
REMARK    6  A    between atoms: O5_13  and  C7_14 
REMARK    7  A    between atoms: C13_23  and  C14_24 
REMARK    8  A    between atoms: C14_24  and  N2_25 
REMARK    9  A    between atoms: N2_25  and  C17_28 
REMARK   10  A    between atoms: C17_28  and  C18_29 
REMARK   11  A    between atoms: C18_29  and  C19_30 
REMARK   12  A    between atoms: C19_30  and  C20_31 
REMARK   13  A    between atoms: C32_43  and  O7_44 
ROOT
HETATM    1  C7  UNL     1      18.115  24.693  17.267  1.00  0.00     0.146 A 
HETATM    2  C8  UNL     1      16.905  24.551  17.915  1.00  0.00     0.066 A 
HETATM    3  C9  UNL     1      16.427  23.249  17.656  1.00  0.00    -0.014 A 
HETATM    4  C10 UNL     1      17.383  22.683  16.862  1.00  0.00     0.087 A 
HETATM    5  N1  UNL     1      18.413  23.554  16.625  1.00  0.00    -0.333 N 
ATOM      6  H1  UNL     1      19.246  23.372  16.066  1.00  0.00     0.168 HD
HETATM    7  C11 UNL     1      17.090  21.320  16.420  1.00  0.00     0.177 C 
HETATM    8  O6  UNL     1      18.028  20.507  16.410  1.00  0.00    -0.291 OA
HETATM    9  C12 UNL     1      15.685  21.077  16.029  1.00  0.00     0.098 C 
HETATM   10  C13 UNL     1      14.639  21.508  17.091  1.00  0.00     0.007 C 
HETATM   11  C23 UNL     1      14.412  20.285  17.855  1.00  0.00     0.010 A 
HETATM   12  C24 UNL     1      13.539  20.677  19.065  1.00  0.00    -0.001 A 
HETATM   13  C25 UNL     1      14.473  21.157  20.098  1.00  0.00     0.007 C 
HETATM   14  C26 UNL     1      15.645  21.804  19.403  1.00  0.00     0.015 C 
HETATM   15  C27 UNL     1      15.235  22.501  18.093  1.00  0.00    -0.004 C 
HETATM   16  C28 UNL     1      14.285  23.569  18.570  1.00  0.00     0.021 C 
HETATM   17  C29 UNL     1      13.535  19.359  18.422  1.00  0.00    -0.039 A 
HETATM   18  C30 UNL     1      12.203  18.812  17.976  1.00  0.00     0.015 C 
HETATM   19  C31 UNL     1      14.133  18.329  19.447  1.00  0.00     0.015 C 
ENDROOT
BRANCH   1  20
HETATM   20  O5  UNL     1      18.859  25.862  17.312  1.00  0.00    -0.302 OA
BRANCH  20  21
HETATM   21  C6  UNL     1      20.132  25.903  16.681  1.00  0.00     0.299 C 
HETATM   22  O4  UNL     1      20.093  27.126  15.944  1.00  0.00    -0.348 OA
HETATM   23  C4  UNL     1      21.313  27.316  15.326  1.00  0.00     0.179 C 
HETATM   24  C3  UNL     1      22.388  27.553  16.340  1.00  0.00     0.180 C 
HETATM   25  C2  UNL     1      21.779  27.351  17.733  1.00  0.00     0.185 C 
HETATM   26  C32 UNL     1      21.183  25.955  17.739  1.00  0.00     0.205 C 
BRANCH  23  27
HETATM   27  C5  UNL     1      21.201  28.535  14.440  1.00  0.00     0.198 C 
BRANCH  27  28
HETATM   28  O3  UNL     1      20.014  29.205  14.695  1.00  0.00    -0.398 OA
ATOM     29  H3  UNL     1      19.586  28.837  15.459  1.00  0.00     0.209 HD
ENDBRANCH  27  28
ENDBRANCH  23  27
BRANCH  24  30
HETATM   30  O2  UNL     1      22.890  28.847  16.226  1.00  0.00    -0.390 OA
ATOM     31  H2  UNL     1      22.945  29.250  17.085  1.00  0.00     0.210 HD
ENDBRANCH  24  30
BRANCH  25  32
HETATM   32  O1  UNL     1      22.690  27.564  18.736  1.00  0.00    -0.385 OA
HETATM   33  C1  UNL     1      23.729  26.620  18.562  1.00  0.00     0.202 C 
ENDBRANCH  25  32
BRANCH  26  34
HETATM   34  O7  UNL     1      20.677  25.635  19.016  1.00  0.00    -0.388 OA
ATOM     35  H7  UNL     1      19.959  26.212  19.248  1.00  0.00     0.210 HD
ENDBRANCH  26  34
ENDBRANCH  20  21
ENDBRANCH   1  20
BRANCH  10  36
HETATM   36  C14 UNL     1      13.613  22.235  16.342  1.00  0.00     0.247 C 
BRANCH  36  37
HETATM   37  N2  UNL     1      13.635  22.731  15.052  1.00  0.00    -0.074 N 
HETATM   38  C15 UNL     1      14.869  23.090  14.405  1.00  0.00     0.272 C 
HETATM   39  C16 UNL     1      12.834  23.998  14.930  1.00  0.00     0.272 C 
BRANCH  37  40
HETATM   40  C17 UNL     1      12.966  21.831  14.137  1.00  0.00     0.236 C 
BRANCH  40  41
HETATM   41  C18 UNL     1      11.617  21.367  14.537  1.00  0.00     0.028 C 
BRANCH  41  42
HETATM   42  C19 UNL     1      11.425  19.868  14.231  1.00  0.00     0.005 C 
BRANCH  42  43
HETATM   43  C20 UNL     1      10.047  19.460  14.703  1.00  0.00    -0.023 C 
HETATM   44  C21 UNL     1       9.519  20.367  15.767  1.00  0.00     0.009 C 
HETATM   45  C22 UNL     1      10.009  18.014  15.073  1.00  0.00     0.009 C 
ENDBRANCH  42  43
ENDBRANCH  41  42
ENDBRANCH  40  41
ENDBRANCH  37  40
ENDBRANCH  36  37
ENDBRANCH  10  36
TORSDOF 13
ENDMDL
MODEL 5
REMARK VINA RESULT: -8.177226720      3.542      9.353
REMARK  13 active torsions:
REMARK  status: ('A' for Active; 'I' for Inactive)
REMARK    1  A    between atoms: O1_2  and  C2_3 
REMARK    2  A    between atoms: C3_4  and  O2_5 
REMARK    3  A    between atoms: C4_7  and  C5_8 
REMARK    4  A    between atoms: C5_8  and  O3_9 
REMARK    5  A    between atoms: C6_12  and  O5_13 
REMARK    6  A    between atoms: O5_13  and  C7_14 
REMARK    7  A    between atoms: C13_23  and  C14_24 
REMARK    8  A    between atoms: C14_24  and  N2_25 
REMARK    9  A    between atoms: N2_25  and  C17_28 
REMARK   10  A    between atoms: C17_28  and  C18_29 
REMARK   11  A    between atoms: C18_29  and  C19_30 
REMARK   12  A    between atoms: C19_30  and  C20_31 
REMARK   13  A    between atoms: C32_43  and  O7_44 
ROOT
HETATM    1  C7  UNL     1      13.892  20.679  18.097  1.00  0.00     0.146 A 
HETATM    2  C8  UNL     1      13.971  22.052  17.988  1.00  0.00     0.066 A 
HETATM    3  C9  UNL     1      15.290  22.379  17.610  1.00  0.00    -0.014 A 
HETATM    4  C10 UNL     1      15.930  21.176  17.514  1.00  0.00     0.087 A 
HETATM    5  N1  UNL     1      15.084  20.139  17.806  1.00  0.00    -0.333 N 
ATOM      6  H1  UNL     1      15.317  19.146  17.803  1.00  0.00     0.168 HD
HETATM    7  C11 UNL     1      17.347  21.257  17.167  1.00  0.00     0.177 C 
HETATM    8  O6  UNL     1      17.788  20.421  16.362  1.00  0.00    -0.291 OA
HETATM    9  C12 UNL     1      18.095  22.346  17.832  1.00  0.00     0.098 C 
HETATM   10  C13 UNL     1      17.449  23.749  17.688  1.00  0.00     0.007 C 
HETATM   11  C23 UNL     1      18.114  24.304  16.513  1.00  0.00     0.010 A 
HETATM   12  C24 UNL     1      17.382  25.619  16.173  1.00  0.00    -0.001 A 
HETATM   13  C25 UNL     1      16.225  25.236  15.346  1.00  0.00     0.007 C 
HETATM   14  C26 UNL     1      15.765  23.871  15.792  1.00  0.00     0.015 C 
HETATM   15  C27 UNL     1      15.971  23.649  17.302  1.00  0.00    -0.004 C 
HETATM   16  C28 UNL     1      15.082  24.701  17.914  1.00  0.00     0.021 C 
HETATM   17  C29 UNL     1      18.796  25.352  15.892  1.00  0.00    -0.039 A 
HETATM   18  C30 UNL     1      19.802  26.354  16.397  1.00  0.00     0.015 C 
HETATM   19  C31 UNL     1      18.964  25.281  14.331  1.00  0.00     0.015 C 
ENDROOT
BRANCH   1  20
HETATM   20  O5  UNL     1      12.727  20.019  18.458  1.00  0.00    -0.302 OA
BRANCH  20  21
HETATM   21  C6  UNL     1      11.555  20.191  17.673  1.00  0.00     0.299 C 
HETATM   22  O4  UNL     1      12.021  19.984  16.338  1.00  0.00    -0.348 OA
HETATM   23  C4  UNL     1      10.948  20.064  15.472  1.00  0.00     0.179 C 
HETATM   24  C3  UNL     1      10.004  18.925  15.693  1.00  0.00     0.180 C 
HETATM   25  C2  UNL     1      10.485  18.141  16.920  1.00  0.00     0.185 C 
HETATM   26  C32 UNL     1      10.568  19.140  18.059  1.00  0.00     0.205 C 
BRANCH  23  27
HETATM   27  C5  UNL     1      11.484  19.986  14.061  1.00  0.00     0.198 C 
BRANCH  27  28
HETATM   28  O3  UNL     1      12.759  19.440  14.062  1.00  0.00    -0.398 OA
ATOM     29  H3  UNL     1      13.282  19.827  13.371  1.00  0.00     0.209 HD
ENDBRANCH  27  28
ENDBRANCH  23  27
BRANCH  24  30
HETATM   30  O2  UNL     1       9.975  18.090  14.578  1.00  0.00    -0.390 OA
ATOM     31  H2  UNL     1       9.295  18.375  13.978  1.00  0.00     0.210 HD
ENDBRANCH  24  30
BRANCH  25  32
HETATM   32  O1  UNL     1       9.685  17.060  17.195  1.00  0.00    -0.385 OA
HETATM   33  C1  UNL     1      10.508  15.910  17.141  1.00  0.00     0.202 C 
ENDBRANCH  25  32
BRANCH  26  34
HETATM   34  O7  UNL     1      10.914  18.495  19.264  1.00  0.00    -0.388 OA
ATOM     35  H7  UNL     1      11.327  19.104  19.865  1.00  0.00     0.210 HD
ENDBRANCH  26  34
ENDBRANCH  20  21
ENDBRANCH   1  20
BRANCH  10  36
HETATM   36  C14 UNL     1      17.493  24.328  19.031  1.00  0.00     0.247 C 
BRANCH  36  37
HETATM   37  N2  UNL     1      18.259  23.981  20.128  1.00  0.00    -0.074 N 
HETATM   38  C15 UNL     1      18.096  22.711  20.786  1.00  0.00     0.272 C 
HETATM   39  C16 UNL     1      18.077  24.951  21.263  1.00  0.00     0.272 C 
BRANCH  37  40
HETATM   40  C17 UNL     1      19.671  24.084  19.830  1.00  0.00     0.236 C 
BRANCH  40  41
HETATM   41  C18 UNL     1      20.261  25.441  19.897  1.00  0.00     0.028 C 
BRANCH  41  42
HETATM   42  C19 UNL     1      21.619  25.499  19.169  1.00  0.00     0.005 C 
BRANCH  42  43
HETATM   43  C20 UNL     1      22.086  26.937  19.148  1.00  0.00    -0.023 C 
HETATM   44  C21 UNL     1      23.574  27.053  19.215  1.00  0.00     0.009 C 
HETATM   45  C22 UNL     1      21.374  27.751  20.178  1.00  0.00     0.009 C 
ENDBRANCH  42  43
ENDBRANCH  41  42
ENDBRANCH  40  41
ENDBRANCH  37  40
ENDBRANCH  36  37
ENDBRANCH  10  36
TORSDOF 13
ENDMDL
