MODEL 1
REMARK VINA RESULT: -9.649084797      0.000      0.000
REMARK  10 active torsions:
REMARK  status: ('A' for Active; 'I' for Inactive)
REMARK    1  A    between atoms: C2_2  and  C4_4 
REMARK    2  A    between atoms: C4_4  and  C5_5 
REMARK    3  A    between atoms: C5_5  and  C6_6 
REMARK    4  A    between atoms: C10_15  and  C11_16 
REMARK    5  A    between atoms: C11_16  and  C12_17 
REMARK    6  A    between atoms: C12_17  and  N3_18 
REMARK    7  A    between atoms: N3_18  and  C13_20 
REMARK    8  A    between atoms: N4_29  and  C21_30 
REMARK    9  A    between atoms: C21_30  and  C22_31 
REMARK   10  A    between atoms: C27_36  and  O2_37 
ROOT
HETATM    1  C6  UNL     1      13.024  21.035  14.649  1.00  0.00     0.134 C 
HETATM    2  N1  UNL     1      11.993  20.535  15.605  1.00  0.00    -0.339 N 
ATOM      3  H1  UNL     1      12.109  19.885  16.382  1.00  0.00     0.164 HD
HETATM    4  C7  UNL     1      10.802  21.192  15.162  1.00  0.00     0.170 C 
HETATM    5  S1  UNL     1       9.283  20.695  15.591  1.00  0.00    -0.041 SA
HETATM    6  N2  UNL     1      11.154  22.289  14.331  1.00  0.00    -0.358 N 
ATOM      7  H2  UNL     1      10.574  22.805  13.670  1.00  0.00     0.162 HD
HETATM    8  C8  UNL     1      12.545  22.486  14.665  1.00  0.00     0.134 C 
HETATM    9  C9  UNL     1      13.278  23.442  13.851  1.00  0.00     0.044 C 
HETATM   10  C10 UNL     1      14.763  23.297  14.068  1.00  0.00     0.085 C 
HETATM   11  C20 UNL     1      15.176  22.167  14.902  1.00  0.00     0.230 C 
HETATM   12  O1  UNL     1      16.385  22.172  15.336  1.00  0.00    -0.273 OA
HETATM   13  N4  UNL     1      14.307  21.066  15.265  1.00  0.00    -0.301 N 
ENDROOT
BRANCH  13  14
HETATM   14  C21 UNL     1      14.747  20.230  16.273  1.00  0.00     0.083 C 
BRANCH  14  15
HETATM   15  C22 UNL     1      14.691  20.319  17.716  1.00  0.00     0.029 A 
HETATM   16  C23 UNL     1      14.547  18.848  18.271  1.00  0.00     0.025 C 
HETATM   17  C24 UNL     1      13.129  18.417  18.136  1.00  0.00     0.018 C 
HETATM   18  C25 UNL     1      12.966  17.074  18.824  1.00  0.00     0.010 C 
HETATM   19  C28 UNL     1      12.249  19.389  18.881  1.00  0.00     0.154 C 
HETATM   20  C26 UNL     1      11.675  17.149  19.607  1.00  0.00     0.035 C 
HETATM   21  C27 UNL     1      11.601  18.609  19.988  1.00  0.00     0.147 C 
HETATM   22  O3  UNL     1      13.000  20.415  19.456  1.00  0.00    -0.376 OA
HETATM   23  C29 UNL     1      13.738  21.102  18.511  1.00  0.00     0.145 A 
HETATM   24  C30 UNL     1      15.289  21.176  18.715  1.00  0.00    -0.005 A 
HETATM   25  C31 UNL     1      15.893  22.527  18.566  1.00  0.00     0.019 C 
HETATM   26  C32 UNL     1      15.683  20.581  20.099  1.00  0.00     0.019 C 
BRANCH  21  27
HETATM   27  O2  UNL     1      12.169  18.825  21.217  1.00  0.00    -0.393 OA
ATOM     28  H2  UNL     1      11.548  19.228  21.812  1.00  0.00     0.210 HD
ENDBRANCH  21  27
ENDBRANCH  14  15
ENDBRANCH  13  14
BRANCH   1  29
HETATM   29  C5  UNL     1      12.708  20.301  13.453  1.00  0.00     0.057 C 
BRANCH  29  30
HETATM   30  C4  UNL     1      13.291  19.055  13.024  1.00  0.00     0.008 C 
BRANCH  30  31
HETATM   31  C2  UNL     1      12.213  18.207  12.339  1.00  0.00    -0.023 C 
HETATM   32  C1  UNL     1      11.089  17.931  13.307  1.00  0.00     0.009 C 
HETATM   33  C3  UNL     1      12.740  16.895  11.844  1.00  0.00     0.009 C 
ENDBRANCH  30  31
ENDBRANCH  29  30
ENDBRANCH   1  29
BRANCH  10  34
HETATM   34  C11 UNL     1      15.538  23.498  12.780  1.00  0.00     0.058 C 
BRANCH  34  35
HETATM   35  C12 UNL     1      16.474  24.669  12.791  1.00  0.00     0.057 C 
BRANCH  35  36
HETATM   36  N3  UNL     1      16.536  25.419  13.962  1.00  0.00    -0.398 N 
ATOM     37  H3  UNL     1      15.709  25.961  14.212  1.00  0.00     0.159 HD
BRANCH  36  38
HETATM   38  C13 UNL     1      17.622  25.493  14.815  1.00  0.00     0.080 C 
HETATM   39  C14 UNL     1      17.308  25.496  16.295  1.00  0.00     0.025 C 
HETATM   40  C15 UNL     1      18.626  25.345  17.031  1.00  0.00     0.002 C 
HETATM   41  C16 UNL     1      19.522  24.320  16.423  1.00  0.00     0.000 C 
HETATM   42  C17 UNL     1      20.265  24.740  15.205  1.00  0.00     0.000 C 
HETATM   43  C18 UNL     1      20.061  26.139  14.749  1.00  0.00     0.002 C 
HETATM   44  C19 UNL     1      18.624  26.539  14.504  1.00  0.00     0.025 C 
ENDBRANCH  36  38
ENDBRANCH  35  36
ENDBRANCH  34  35
ENDBRANCH  10  34
TORSDOF 10
ENDMDL
MODEL 2
REMARK VINA RESULT: -8.842076738      4.304      9.781
REMARK  10 active torsions:
REMARK  status: ('A' for Active; 'I' for Inactive)
REMARK    1  A    between atoms: C2_2  and  C4_4 
REMARK    2  A    between atoms: C4_4  and  C5_5 
REMARK    3  A    between atoms: C5_5  and  C6_6 
REMARK    4  A    between atoms: C10_15  and  C11_16 
REMARK    5  A    between atoms: C11_16  and  C12_17 
REMARK    6  A    between atoms: C12_17  and  N3_18 
REMARK    7  A    between atoms: N3_18  and  C13_20 
REMARK    8  A    between atoms: N4_29  and  C21_30 
REMARK    9  A    between atoms: C21_30  and  C22_31 
REMARK   10  A    between atoms: C27_36  and  O2_37 
ROOT
HETATM    1  C6  UNL     1      19.395  24.863  16.763  1.00  0.00     0.134 C 
HETATM    2  N1  UNL     1      20.230  25.266  17.932  1.00  0.00    -0.339 N 
ATOM      3  H1  UNL     1      21.225  25.491  17.955  1.00  0.00     0.164 HD
HETATM    4  C7  UNL     1      19.293  25.258  19.012  1.00  0.00     0.170 C 
HETATM    5  S1  UNL     1      19.748  25.223  20.603  1.00  0.00    -0.041 SA
HETATM    6  N2  UNL     1      17.974  25.285  18.488  1.00  0.00    -0.358 N 
ATOM      7  H2  UNL     1      17.095  25.048  18.948  1.00  0.00     0.162 HD
HETATM    8  C8  UNL     1      18.197  25.736  17.134  1.00  0.00     0.134 C 
HETATM    9  C9  UNL     1      17.048  25.709  16.244  1.00  0.00     0.044 C 
HETATM   10  C10 UNL     1      17.483  25.863  14.808  1.00  0.00     0.085 C 
HETATM   11  C20 UNL     1      18.929  25.855  14.579  1.00  0.00     0.230 C 
HETATM   12  O1  UNL     1      19.341  26.259  13.431  1.00  0.00    -0.273 OA
HETATM   13  N4  UNL     1      19.905  25.431  15.561  1.00  0.00    -0.301 N 
ENDROOT
BRANCH  13  14
HETATM   14  C21 UNL     1      21.226  25.740  15.304  1.00  0.00     0.083 C 
BRANCH  14  15
HETATM   15  C22 UNL     1      21.992  26.961  15.438  1.00  0.00     0.029 A 
HETATM   16  C23 UNL     1      23.518  26.556  15.455  1.00  0.00     0.025 C 
HETATM   17  C24 UNL     1      23.871  26.059  16.813  1.00  0.00     0.018 C 
HETATM   18  C25 UNL     1      25.371  25.835  16.868  1.00  0.00     0.010 C 
HETATM   19  C28 UNL     1      23.561  27.135  17.824  1.00  0.00     0.154 C 
HETATM   20  C26 UNL     1      25.836  26.387  18.197  1.00  0.00     0.035 C 
HETATM   21  C27 UNL     1      24.873  27.525  18.440  1.00  0.00     0.147 C 
HETATM   22  O3  UNL     1      23.017  28.264  17.212  1.00  0.00    -0.376 OA
HETATM   23  C29 UNL     1      21.869  27.961  16.504  1.00  0.00     0.145 A 
HETATM   24  C30 UNL     1      21.839  28.323  14.981  1.00  0.00    -0.005 A 
HETATM   25  C31 UNL     1      20.619  29.035  14.513  1.00  0.00     0.019 C 
HETATM   26  C32 UNL     1      23.101  29.148  14.594  1.00  0.00     0.019 C 
BRANCH  21  27
HETATM   27  O2  UNL     1      25.377  28.706  17.957  1.00  0.00    -0.393 OA
ATOM     28  H2  UNL     1      24.680  29.330  17.793  1.00  0.00     0.210 HD
ENDBRANCH  21  27
ENDBRANCH  14  15
ENDBRANCH  13  14
BRANCH   1  29
HETATM   29  C5  UNL     1      19.217  23.454  16.991  1.00  0.00     0.057 C 
BRANCH  29  30
HETATM   30  C4  UNL     1      18.200  22.607  16.419  1.00  0.00     0.008 C 
BRANCH  30  31
HETATM   31  C2  UNL     1      17.240  22.158  17.528  1.00  0.00    -0.023 C 
HETATM   32  C1  UNL     1      18.010  21.921  18.804  1.00  0.00     0.009 C 
HETATM   33  C3  UNL     1      16.509  20.898  17.180  1.00  0.00     0.009 C 
ENDBRANCH  30  31
ENDBRANCH  29  30
ENDBRANCH   1  29
BRANCH  10  34
HETATM   34  C11 UNL     1      16.651  25.003  13.877  1.00  0.00     0.058 C 
BRANCH  34  35
HETATM   35  C12 UNL     1      15.517  24.282  14.541  1.00  0.00     0.057 C 
BRANCH  35  36
HETATM   36  N3  UNL     1      15.486  22.896  14.414  1.00  0.00    -0.398 N 
ATOM     37  H3  UNL     1      16.297  22.379  14.752  1.00  0.00     0.159 HD
BRANCH  36  38
HETATM   38  C13 UNL     1      14.448  22.160  13.871  1.00  0.00     0.080 C 
HETATM   39  C14 UNL     1      14.704  21.556  12.507  1.00  0.00     0.025 C 
HETATM   40  C15 UNL     1      13.551  20.615  12.213  1.00  0.00     0.002 C 
HETATM   41  C16 UNL     1      13.168  19.774  13.384  1.00  0.00     0.000 C 
HETATM   42  C17 UNL     1      12.343  20.439  14.426  1.00  0.00     0.000 C 
HETATM   43  C18 UNL     1      11.962  21.852  14.173  1.00  0.00     0.002 C 
HETATM   44  C19 UNL     1      13.111  22.797  13.904  1.00  0.00     0.025 C 
ENDBRANCH  36  38
ENDBRANCH  35  36
ENDBRANCH  34  35
ENDBRANCH  10  34
TORSDOF 10
ENDMDL
MODEL 3
REMARK VINA RESULT: -8.744480338      3.877      9.594
REMARK  10 active torsions:
REMARK  status: ('A' for Active; 'I' for Inactive)
REMARK    1  A    between atoms: C2_2  and  C4_4 
REMARK    2  A    between atoms: C4_4  and  C5_5 
REMARK    3  A    between atoms: C5_5  and  C6_6 
REMARK    4  A    between atoms: C10_15  and  C11_16 
REMARK    5  A    between atoms: C11_16  and  C12_17 
REMARK    6  A    between atoms: C12_17  and  N3_18 
REMARK    7  A    between atoms: N3_18  and  C13_20 
REMARK    8  A    between atoms: N4_29  and  C21_30 
REMARK    9  A    between atoms: C21_30  and  C22_31 
REMARK   10  A    between atoms: C27_36  and  O2_37 
ROOT
HETATM    1  C6  UNL     1      18.361  24.097  17.857  1.00  0.00     0.134 C 
HETATM    2  N1  UNL     1      19.399  25.027  18.388  1.00  0.00    -0.339 N 
ATOM      3  H1  UNL     1      20.242  25.369  17.927  1.00  0.00     0.164 HD
HETATM    4  C7  UNL     1      18.921  25.322  19.704  1.00  0.00     0.170 C 
HETATM    5  S1  UNL     1      19.879  25.968  20.889  1.00  0.00    -0.041 SA
HETATM    6  N2  UNL     1      17.548  24.972  19.792  1.00  0.00    -0.358 N 
ATOM      7  H2  UNL     1      16.976  24.822  20.623  1.00  0.00     0.162 HD
HETATM    8  C8  UNL     1      17.170  24.884  18.400  1.00  0.00     0.134 C 
HETATM    9  C9  UNL     1      15.841  24.365  18.122  1.00  0.00     0.044 C 
HETATM   10  C10 UNL     1      15.706  24.002  16.664  1.00  0.00     0.085 C 
HETATM   11  C20 UNL     1      16.934  24.091  15.872  1.00  0.00     0.230 C 
HETATM   12  O1  UNL     1      16.807  24.065  14.594  1.00  0.00    -0.273 OA
HETATM   13  N4  UNL     1      18.260  24.212  16.441  1.00  0.00    -0.301 N 
ENDROOT
BRANCH  13  14
HETATM   14  C21 UNL     1      19.280  24.564  15.578  1.00  0.00     0.083 C 
BRANCH  14  15
HETATM   15  C22 UNL     1      19.684  25.827  15.000  1.00  0.00     0.029 A 
HETATM   16  C23 UNL     1      21.252  25.780  14.823  1.00  0.00     0.025 C 
HETATM   17  C24 UNL     1      21.896  26.054  16.137  1.00  0.00     0.018 C 
HETATM   18  C25 UNL     1      23.394  26.175  15.923  1.00  0.00     0.010 C 
HETATM   19  C28 UNL     1      21.425  27.395  16.642  1.00  0.00     0.154 C 
HETATM   20  C26 UNL     1      23.846  27.362  16.743  1.00  0.00     0.035 C 
HETATM   21  C27 UNL     1      22.641  28.272  16.706  1.00  0.00     0.147 C 
HETATM   22  O3  UNL     1      20.515  27.978  15.761  1.00  0.00    -0.376 OA
HETATM   23  C29 UNL     1      19.419  27.164  15.541  1.00  0.00     0.145 A 
HETATM   24  C30 UNL     1      19.101  26.760  14.062  1.00  0.00    -0.005 A 
HETATM   25  C31 UNL     1      17.682  26.921  13.644  1.00  0.00     0.019 C 
HETATM   26  C32 UNL     1      20.023  27.534  13.077  1.00  0.00     0.019 C 
BRANCH  21  27
HETATM   27  O2  UNL     1      22.731  29.162  15.666  1.00  0.00    -0.393 OA
ATOM     28  H2  UNL     1      21.938  29.154  15.144  1.00  0.00     0.210 HD
ENDBRANCH  21  27
ENDBRANCH  14  15
ENDBRANCH  13  14
BRANCH   1  29
HETATM   29  C5  UNL     1      18.659  22.878  18.559  1.00  0.00     0.057 C 
BRANCH  29  30
HETATM   30  C4  UNL     1      17.838  21.695  18.626  1.00  0.00     0.008 C 
BRANCH  30  31
HETATM   31  C2  UNL     1      17.675  21.281  20.093  1.00  0.00    -0.023 C 
HETATM   32  C1  UNL     1      16.315  21.703  20.594  1.00  0.00     0.009 C 
HETATM   33  C3  UNL     1      18.714  21.891  20.983  1.00  0.00     0.009 C 
ENDBRANCH  30  31
ENDBRANCH  29  30
ENDBRANCH   1  29
BRANCH  10  34
HETATM   34  C11 UNL     1      14.875  22.747  16.476  1.00  0.00     0.058 C 
BRANCH  34  35
HETATM   35  C12 UNL     1      14.139  22.297  17.702  1.00  0.00     0.057 C 
BRANCH  35  36
HETATM   36  N3  UNL     1      13.160  21.323  17.531  1.00  0.00    -0.398 N 
ATOM     37  H3  UNL     1      12.391  21.541  16.897  1.00  0.00     0.159 HD
BRANCH  36  38
HETATM   38  C13 UNL     1      13.139  20.085  18.148  1.00  0.00     0.080 C 
HETATM   39  C14 UNL     1      14.408  19.268  18.044  1.00  0.00     0.025 C 
HETATM   40  C15 UNL     1      14.249  18.078  18.972  1.00  0.00     0.002 C 
HETATM   41  C16 UNL     1      13.655  18.439  20.291  1.00  0.00     0.000 C 
HETATM   42  C17 UNL     1      12.182  18.638  20.314  1.00  0.00     0.000 C 
HETATM   43  C18 UNL     1      11.461  18.421  19.034  1.00  0.00     0.002 C 
HETATM   44  C19 UNL     1      11.960  19.235  17.861  1.00  0.00     0.025 C 
ENDBRANCH  36  38
ENDBRANCH  35  36
ENDBRANCH  34  35
ENDBRANCH  10  34
TORSDOF 10
ENDMDL
MODEL 4
REMARK VINA RESULT: -8.677728220      3.731      9.382
REMARK  10 active torsions:
REMARK  status: ('A' for Active; 'I' for Inactive)
REMARK    1  A    between atoms: C2_2  and  C4_4 
REMARK    2  A    between atoms: C4_4  and  C5_5 
REMARK    3  A    between atoms: C5_5  and  C6_6 
REMARK    4  A    between atoms: C10_15  and  C11_16 
REMARK    5  A    between atoms: C11_16  and  C12_17 
REMARK    6  A    between atoms: C12_17  and  N3_18 
REMARK    7  A    between atoms: N3_18  and  C13_20 
REMARK    8  A    between atoms: N4_29  and  C21_30 
REMARK    9  A    between atoms: C21_30  and  C22_31 
REMARK   10  A    between atoms: C27_36  and  O2_37 
ROOT
HETATM    1  C6  UNL     1      18.750  24.061  18.477  1.00  0.00     0.134 C 
HETATM    2  N1  UNL     1      19.599  25.258  18.746  1.00  0.00    -0.339 N 
ATOM      3  H1  UNL     1      20.314  25.677  18.152  1.00  0.00     0.164 HD
HETATM    4  C7  UNL     1      19.164  25.672  20.045  1.00  0.00     0.170 C 
HETATM    5  S1  UNL     1      20.042  26.691  21.009  1.00  0.00    -0.041 SA
HETATM    6  N2  UNL     1      17.908  25.075  20.330  1.00  0.00    -0.358 N 
ATOM      7  H2  UNL     1      17.442  24.958  21.230  1.00  0.00     0.162 HD
HETATM    8  C8  UNL     1      17.459  24.675  19.016  1.00  0.00     0.134 C 
HETATM    9  C9  UNL     1      16.257  23.860  18.963  1.00  0.00     0.044 C 
HETATM   10  C10 UNL     1      16.099  23.232  17.601  1.00  0.00     0.085 C 
HETATM   11  C20 UNL     1      17.220  23.428  16.679  1.00  0.00     0.230 C 
HETATM   12  O1  UNL     1      17.011  23.157  15.440  1.00  0.00    -0.273 OA
HETATM   13  N4  UNL     1      18.526  23.908  17.079  1.00  0.00    -0.301 N 
ENDROOT
BRANCH  13  14
HETATM   14  C21 UNL     1      19.382  24.303  16.070  1.00  0.00     0.083 C 
BRANCH  14  15
HETATM   15  C22 UNL     1      19.447  25.492  15.247  1.00  0.00     0.029 A 
HETATM   16  C23 UNL     1      20.953  25.678  14.811  1.00  0.00     0.025 C 
HETATM   17  C24 UNL     1      21.710  26.288  15.938  1.00  0.00     0.018 C 
HETATM   18  C25 UNL     1      23.110  26.620  15.453  1.00  0.00     0.010 C 
HETATM   19  C28 UNL     1      21.064  27.600  16.309  1.00  0.00     0.154 C 
HETATM   20  C26 UNL     1      23.434  27.994  15.995  1.00  0.00     0.035 C 
HETATM   21  C27 UNL     1      22.082  28.666  16.029  1.00  0.00     0.147 C 
HETATM   22  O3  UNL     1      19.942  27.853  15.519  1.00  0.00    -0.376 OA
HETATM   23  C29 UNL     1      19.006  26.840  15.617  1.00  0.00     0.145 A 
HETATM   24  C30 UNL     1      18.566  26.129  14.294  1.00  0.00    -0.005 A 
HETATM   25  C31 UNL     1      17.099  25.971  14.106  1.00  0.00     0.019 C 
HETATM   26  C32 UNL     1      19.171  26.857  13.058  1.00  0.00     0.019 C 
BRANCH  21  27
HETATM   27  O2  UNL     1      21.848  29.357  14.868  1.00  0.00    -0.393 OA
ATOM     28  H2  UNL     1      21.016  29.813  14.906  1.00  0.00     0.210 HD
ENDBRANCH  21  27
ENDBRANCH  14  15
ENDBRANCH  13  14
BRANCH   1  29
HETATM   29  C5  UNL     1      19.353  23.066  19.322  1.00  0.00     0.057 C 
BRANCH  29  30
HETATM   30  C4  UNL     1      18.908  21.708  19.513  1.00  0.00     0.008 C 
BRANCH  30  31
HETATM   31  C2  UNL     1      18.705  21.453  21.011  1.00  0.00    -0.023 C 
HETATM   32  C1  UNL     1      17.232  21.488  21.340  1.00  0.00     0.009 C 
HETATM   33  C3  UNL     1      19.402  22.466  21.867  1.00  0.00     0.009 C 
ENDBRANCH  30  31
ENDBRANCH  29  30
ENDBRANCH   1  29
BRANCH  10  34
HETATM   34  C11 UNL     1      15.547  21.823  17.695  1.00  0.00     0.058 C 
BRANCH  34  35
HETATM   35  C12 UNL     1      14.058  21.727  17.551  1.00  0.00     0.057 C 
BRANCH  35  36
HETATM   36  N3  UNL     1      13.465  22.506  16.561  1.00  0.00    -0.398 N 
ATOM     37  H3  UNL     1      13.034  23.382  16.854  1.00  0.00     0.159 HD
BRANCH  36  38
HETATM   38  C13 UNL     1      13.410  22.193  15.215  1.00  0.00     0.080 C 
HETATM   39  C14 UNL     1      13.949  23.240  14.266  1.00  0.00     0.025 C 
HETATM   40  C15 UNL     1      14.009  22.605  12.889  1.00  0.00     0.002 C 
HETATM   41  C16 UNL     1      14.546  21.214  12.908  1.00  0.00     0.000 C 
HETATM   42  C17 UNL     1      13.600  20.153  13.343  1.00  0.00     0.000 C 
HETATM   43  C18 UNL     1      12.219  20.587  13.675  1.00  0.00     0.002 C 
HETATM   44  C19 UNL     1      12.113  21.674  14.720  1.00  0.00     0.025 C 
ENDBRANCH  36  38
ENDBRANCH  35  36
ENDBRANCH  34  35
ENDBRANCH  10  34
TORSDOF 10
ENDMDL
MODEL 5
REMARK VINA RESULT: -8.613066217      4.132      9.502
REMARK  10 active torsions:
REMARK  status: ('A' for Active; 'I' for Inactive)
REMARK    1  A    between atoms: C2_2  and  C4_4 
REMARK    2  A    between atoms: C4_4  and  C5_5 
REMARK    3  A    between atoms: C5_5  and  C6_6 
REMARK    4  A    between atoms: C10_15  and  C11_16 
REMARK    5  A    between atoms: C11_16  and  C12_17 
REMARK    6  A    between atoms: C12_17  and  N3_18 
REMARK    7  A    between atoms: N3_18  and  C13_20 
REMARK    8  A    between atoms: N4_29  and  C21_30 
REMARK    9  A    between atoms: C21_30  and  C22_31 
REMARK   10  A    between atoms: C27_36  and  O2_37 
ROOT
HETATM    1  C6  UNL     1      18.664  24.542  17.169  1.00  0.00     0.134 C 
HETATM    2  N1  UNL     1      19.222  24.793  18.530  1.00  0.00    -0.339 N 
ATOM      3  H1  UNL     1      20.194  24.942  18.801  1.00  0.00     0.164 HD
HETATM    4  C7  UNL     1      18.058  24.771  19.362  1.00  0.00     0.170 C 
HETATM    5  S1  UNL     1      18.125  24.580  21.004  1.00  0.00    -0.041 SA
HETATM    6  N2  UNL     1      16.902  24.934  18.553  1.00  0.00    -0.358 N 
ATOM      7  H2  UNL     1      15.929  24.726  18.776  1.00  0.00     0.162 HD
HETATM    8  C8  UNL     1      17.460  25.469  17.334  1.00  0.00     0.134 C 
HETATM    9  C9  UNL     1      16.552  25.594  16.205  1.00  0.00     0.044 C 
HETATM   10  C10 UNL     1      17.319  25.825  14.927  1.00  0.00     0.085 C 
HETATM   11  C20 UNL     1      18.776  25.730  15.036  1.00  0.00     0.230 C 
HETATM   12  O1  UNL     1      19.466  26.190  14.055  1.00  0.00    -0.273 OA
HETATM   13  N4  UNL     1      19.470  25.162  16.173  1.00  0.00    -0.301 N 
ENDROOT
BRANCH  13  14
HETATM   14  C21 UNL     1      20.829  25.393  16.254  1.00  0.00     0.083 C 
BRANCH  14  15
HETATM   15  C22 UNL     1      21.621  26.327  17.026  1.00  0.00     0.029 A 
HETATM   16  C23 UNL     1      21.339  27.769  16.447  1.00  0.00     0.025 C 
HETATM   17  C24 UNL     1      22.137  27.956  15.204  1.00  0.00     0.018 C 
HETATM   18  C25 UNL     1      21.993  29.397  14.752  1.00  0.00     0.010 C 
HETATM   19  C28 UNL     1      23.596  27.751  15.525  1.00  0.00     0.154 C 
HETATM   20  C26 UNL     1      23.374  29.856  14.345  1.00  0.00     0.035 C 
HETATM   21  C27 UNL     1      24.273  29.066  15.266  1.00  0.00     0.147 C 
HETATM   22  O3  UNL     1      23.780  27.426  16.869  1.00  0.00    -0.376 OA
HETATM   23  C29 UNL     1      23.074  26.292  17.224  1.00  0.00     0.145 A 
HETATM   24  C30 UNL     1      22.051  26.415  18.403  1.00  0.00    -0.005 A 
HETATM   25  C31 UNL     1      22.135  25.350  19.439  1.00  0.00     0.019 C 
HETATM   26  C32 UNL     1      22.170  27.810  19.083  1.00  0.00     0.019 C 
BRANCH  21  27
HETATM   27  O2  UNL     1      24.551  29.774  16.407  1.00  0.00    -0.393 OA
ATOM     28  H2  UNL     1      25.146  30.491  16.224  1.00  0.00     0.210 HD
ENDBRANCH  21  27
ENDBRANCH  14  15
ENDBRANCH  13  14
BRANCH   1  29
HETATM   29  C5  UNL     1      18.362  23.137  17.220  1.00  0.00     0.057 C 
BRANCH  29  30
HETATM   30  C4  UNL     1      17.527  22.397  16.307  1.00  0.00     0.008 C 
BRANCH  30  31
HETATM   31  C2  UNL     1      16.528  21.556  17.111  1.00  0.00    -0.023 C 
HETATM   32  C1  UNL     1      15.168  22.211  17.080  1.00  0.00     0.009 C 
HETATM   33  C3  UNL     1      16.937  21.390  18.542  1.00  0.00     0.009 C 
ENDBRANCH  30  31
ENDBRANCH  29  30
ENDBRANCH   1  29
BRANCH  10  34
HETATM   34  C11 UNL     1      16.685  25.101  13.756  1.00  0.00     0.058 C 
BRANCH  34  35
HETATM   35  C12 UNL     1      15.494  24.263  14.112  1.00  0.00     0.057 C 
BRANCH  35  36
HETATM   36  N3  UNL     1      15.434  22.983  13.568  1.00  0.00    -0.398 N 
ATOM     37  H3  UNL     1      16.297  22.600  13.184  1.00  0.00     0.159 HD
BRANCH  36  38
HETATM   38  C13 UNL     1      14.305  22.187  13.505  1.00  0.00     0.080 C 
HETATM   39  C14 UNL     1      14.278  21.158  12.396  1.00  0.00     0.025 C 
HETATM   40  C15 UNL     1      13.084  20.257  12.653  1.00  0.00     0.002 C 
HETATM   41  C16 UNL     1      12.941  19.869  14.086  1.00  0.00     0.000 C 
HETATM   42  C17 UNL     1      12.346  20.893  14.985  1.00  0.00     0.000 C 
HETATM   43  C18 UNL     1      11.929  22.172  14.355  1.00  0.00     0.002 C 
HETATM   44  C19 UNL     1      13.005  22.894  13.577  1.00  0.00     0.025 C 
ENDBRANCH  36  38
ENDBRANCH  35  36
ENDBRANCH  34  35
ENDBRANCH  10  34
TORSDOF 10
ENDMDL
