MODEL 1
REMARK VINA RESULT: -10.953103155      0.000      0.000
REMARK  10 active torsions:
REMARK  status: ('A' for Active; 'I' for Inactive)
REMARK    1  A    between atoms: C8_8  and  C9_9 
REMARK       I    between atoms: C9_9  and  N1_11 
REMARK    2  A    between atoms: N1_11  and  N2_13 
REMARK    3  A    between atoms: N2_13  and  C10_14 
REMARK    4  A    between atoms: N2_13  and  C19_29 
REMARK    5  A    between atoms: C10_14  and  C11_15 
REMARK    6  A    between atoms: C11_15  and  C12_16 
REMARK    7  A    between atoms: C12_16  and  N3_17 
REMARK       I    between atoms: N4_21  and  C16_22 
REMARK    8  A    between atoms: C19_29  and  C20_30 
REMARK       I    between atoms: C20_30  and  N7_32 
REMARK    9  A    between atoms: N7_32  and  C21_34 
REMARK   10  A    between atoms: C28_41  and  O3_42 
ROOT
HETATM    1  N2  UNL     1       6.085  -1.239  14.913  1.00  0.00    -0.220 NA
ENDROOT
BRANCH   1   2
HETATM    2  N1  UNL     1       6.316  -0.738  13.653  1.00  0.00    -0.285 N 
HETATM    3  C9  UNL     1       6.638   0.625  13.490  1.00  0.00     0.266 C 
HETATM    4  O1  UNL     1       6.711   1.354  14.520  1.00  0.00    -0.266 OA
ATOM      5  H1  UNL     1       6.255  -1.350  12.840  1.00  0.00     0.184 HD
BRANCH   3   6
HETATM    6  C8  UNL     1       6.893   1.251  12.181  1.00  0.00     0.033 A 
HETATM    7  C7  UNL     1       5.992   2.128  11.612  1.00  0.00     0.024 A 
HETATM    8  C6  UNL     1       6.276   2.714  10.361  1.00  0.00    -0.050 A 
HETATM    9  C5  UNL     1       5.468   3.667   9.562  1.00  0.00     0.040 A 
HETATM   10  C33 UNL     1       7.447   2.393   9.742  1.00  0.00    -0.044 A 
HETATM   11  C4  UNL     1       6.291   3.877   8.329  1.00  0.00     0.018 A 
HETATM   12  C2  UNL     1       7.549   3.104   8.457  1.00  0.00    -0.020 A 
HETATM   13  C1  UNL     1       8.788   3.977   8.394  1.00  0.00     0.020 C 
HETATM   14  C3  UNL     1       7.636   2.021   7.376  1.00  0.00     0.020 C 
HETATM   15  C32 UNL     1       8.362   1.506  10.314  1.00  0.00     0.009 A 
HETATM   16  C31 UNL     1       8.074   0.943  11.529  1.00  0.00     0.017 A 
ENDBRANCH   3   6
ENDBRANCH   1   2
BRANCH   1  17
HETATM   17  C10 UNL     1       6.737  -2.447  15.259  1.00  0.00     0.116 C 
BRANCH  17  18
HETATM   18  C11 UNL     1       5.964  -3.180  16.352  1.00  0.00     0.046 C 
BRANCH  18  19
HETATM   19  C12 UNL     1       5.269  -4.375  15.772  1.00  0.00     0.273 C 
BRANCH  19  20
HETATM   20  N3  UNL     1       3.878  -4.484  16.054  1.00  0.00     0.090 N 
HETATM   21  C13 UNL     1       3.293  -5.712  15.618  1.00  0.00     0.274 C 
HETATM   22  C14 UNL     1       4.057  -6.957  15.900  1.00  0.00     0.050 C 
HETATM   23  C15 UNL     1       3.606  -7.481  17.244  1.00  0.00     0.127 C 
HETATM   24  N4  UNL     1       3.776  -6.368  18.198  1.00  0.00    -0.354 N 
HETATM   25  C16 UNL     1       4.845  -6.552  19.091  1.00  0.00     0.184 C 
HETATM   26  C17 UNL     1       2.939  -5.208  18.229  1.00  0.00     0.155 C 
HETATM   27  N5  UNL     1       5.073  -5.814  20.069  1.00  0.00    -0.374 N 
HETATM   28  N6  UNL     1       5.743  -7.663  18.888  1.00  0.00    -0.064 NA
ATOM     29  H52 UNL     1       4.439  -5.029  20.213  1.00  0.00     0.158 HD
ATOM     30  H51 UNL     1       5.849  -5.947  20.718  1.00  0.00     0.158 HD
HETATM   31  C18 UNL     1       3.502  -4.102  17.377  1.00  0.00     0.292 C 
ENDBRANCH  19  20
ENDBRANCH  18  19
ENDBRANCH  17  18
ENDBRANCH   1  17
BRANCH   1  32
HETATM   32  C19 UNL     1       4.690  -1.245  15.228  1.00  0.00     0.216 C 
BRANCH  32  33
HETATM   33  C20 UNL     1       3.870  -1.404  14.001  1.00  0.00     0.232 C 
HETATM   34  O2  UNL     1       3.821  -2.441  13.321  1.00  0.00    -0.272 OA
HETATM   35  N7  UNL     1       3.077  -0.277  13.576  1.00  0.00    -0.355 N 
ATOM     36  H7  UNL     1       3.086   0.593  14.109  1.00  0.00     0.162 HD
BRANCH  35  37
HETATM   37  C21 UNL     1       2.282  -0.397  12.402  1.00  0.00     0.092 C 
HETATM   38  C22 UNL     1       2.652   0.552  11.311  1.00  0.00     0.012 C 
HETATM   39  C23 UNL     1       1.774   0.277  10.110  1.00  0.00     0.011 C 
HETATM   40  C30 UNL     1       2.409   1.991  11.737  1.00  0.00     0.044 C 
HETATM   41  C24 UNL     1       0.313   0.383  10.491  1.00  0.00    -0.011 C 
HETATM   42  C25 UNL     1      -0.001  -0.582  11.588  1.00  0.00     0.011 C 
HETATM   43  C29 UNL     1       0.049   1.817  10.902  1.00  0.00     0.042 C 
HETATM   44  C26 UNL     1       0.813  -0.182  12.814  1.00  0.00     0.012 C 
HETATM   45  C27 UNL     1       0.570   1.243  13.219  1.00  0.00     0.044 C 
HETATM   46  C28 UNL     1       0.957   2.158  12.067  1.00  0.00     0.059 C 
BRANCH  46  47
HETATM   47  O3  UNL     1       0.709   3.469  12.491  1.00  0.00    -0.390 OA
ATOM     48  H3  UNL     1       1.429   4.000  12.175  1.00  0.00     0.210 HD
ENDBRANCH  46  47
ENDBRANCH  35  37
ENDBRANCH  32  33
ENDBRANCH   1  32
TORSDOF 10
ENDMDL
MODEL 2
REMARK VINA RESULT: -10.903778992      1.147      1.723
REMARK  10 active torsions:
REMARK  status: ('A' for Active; 'I' for Inactive)
REMARK    1  A    between atoms: C8_8  and  C9_9 
REMARK       I    between atoms: C9_9  and  N1_11 
REMARK    2  A    between atoms: N1_11  and  N2_13 
REMARK    3  A    between atoms: N2_13  and  C10_14 
REMARK    4  A    between atoms: N2_13  and  C19_29 
REMARK    5  A    between atoms: C10_14  and  C11_15 
REMARK    6  A    between atoms: C11_15  and  C12_16 
REMARK    7  A    between atoms: C12_16  and  N3_17 
REMARK       I    between atoms: N4_21  and  C16_22 
REMARK    8  A    between atoms: C19_29  and  C20_30 
REMARK       I    between atoms: C20_30  and  N7_32 
REMARK    9  A    between atoms: N7_32  and  C21_34 
REMARK   10  A    between atoms: C28_41  and  O3_42 
ROOT
HETATM    1  N2  UNL     1       5.555  -1.622  14.403  1.00  0.00    -0.220 NA
ENDROOT
BRANCH   1   2
HETATM    2  N1  UNL     1       5.697  -0.928  13.224  1.00  0.00    -0.285 N 
HETATM    3  C9  UNL     1       6.719   0.035  13.098  1.00  0.00     0.266 C 
HETATM    4  O1  UNL     1       7.487   0.232  14.083  1.00  0.00    -0.266 OA
ATOM      5  H1  UNL     1       5.066  -1.109  12.444  1.00  0.00     0.184 HD
BRANCH   3   6
HETATM    6  C8  UNL     1       6.941   0.833  11.879  1.00  0.00     0.033 A 
HETATM    7  C7  UNL     1       6.036   1.790  11.466  1.00  0.00     0.024 A 
HETATM    8  C6  UNL     1       6.290   2.538  10.298  1.00  0.00    -0.050 A 
HETATM    9  C5  UNL     1       5.472   3.601   9.664  1.00  0.00     0.040 A 
HETATM   10  C33 UNL     1       7.436   2.293   9.603  1.00  0.00    -0.044 A 
HETATM   11  C4  UNL     1       6.258   3.969   8.446  1.00  0.00     0.018 A 
HETATM   12  C2  UNL     1       7.508   3.173   8.424  1.00  0.00    -0.020 A 
HETATM   13  C1  UNL     1       8.758   4.033   8.440  1.00  0.00     0.020 C 
HETATM   14  C3  UNL     1       7.544   2.248   7.203  1.00  0.00     0.020 C 
HETATM   15  C32 UNL     1       8.355   1.326  10.016  1.00  0.00     0.009 A 
HETATM   16  C31 UNL     1       8.097   0.605  11.152  1.00  0.00     0.017 A 
ENDBRANCH   3   6
ENDBRANCH   1   2
BRANCH   1  17
HETATM   17  C10 UNL     1       6.068  -2.940  14.444  1.00  0.00     0.116 C 
BRANCH  17  18
HETATM   18  C11 UNL     1       5.682  -3.625  15.752  1.00  0.00     0.046 C 
BRANCH  18  19
HETATM   19  C12 UNL     1       4.912  -4.879  15.463  1.00  0.00     0.273 C 
BRANCH  19  20
HETATM   20  N3  UNL     1       3.578  -4.919  15.960  1.00  0.00     0.090 N 
HETATM   21  C13 UNL     1       2.919  -6.168  15.750  1.00  0.00     0.274 C 
HETATM   22  C14 UNL     1       3.702  -7.399  16.045  1.00  0.00     0.050 C 
HETATM   23  C15 UNL     1       3.453  -7.768  17.489  1.00  0.00     0.127 C 
HETATM   24  N4  UNL     1       3.780  -6.567  18.283  1.00  0.00    -0.354 N 
HETATM   25  C16 UNL     1       4.969  -6.688  19.021  1.00  0.00     0.184 C 
HETATM   26  C17 UNL     1       2.971  -5.386  18.315  1.00  0.00     0.155 C 
HETATM   27  N5  UNL     1       5.352  -5.859  19.870  1.00  0.00    -0.374 N 
HETATM   28  N6  UNL     1       5.812  -7.839  18.805  1.00  0.00    -0.064 NA
ATOM     29  H52 UNL     1       4.757  -5.046  20.023  1.00  0.00     0.158 HD
ATOM     30  H51 UNL     1       6.216  -5.947  20.406  1.00  0.00     0.158 HD
HETATM   31  C18 UNL     1       3.413  -4.391  17.276  1.00  0.00     0.292 C 
ENDBRANCH  19  20
ENDBRANCH  18  19
ENDBRANCH  17  18
ENDBRANCH   1  17
BRANCH   1  32
HETATM   32  C19 UNL     1       4.222  -1.523  14.912  1.00  0.00     0.216 C 
BRANCH  32  33
HETATM   33  C20 UNL     1       3.595  -0.238  14.513  1.00  0.00     0.232 C 
HETATM   34  O2  UNL     1       3.939   0.873  14.945  1.00  0.00    -0.272 OA
HETATM   35  N7  UNL     1       2.516  -0.290  13.558  1.00  0.00    -0.355 N 
ATOM     36  H7  UNL     1       2.204  -1.183  13.176  1.00  0.00     0.162 HD
BRANCH  35  37
HETATM   37  C21 UNL     1       1.891   0.925  13.158  1.00  0.00     0.092 C 
HETATM   38  C22 UNL     1       0.506   0.756  12.628  1.00  0.00     0.012 C 
HETATM   39  C23 UNL     1      -0.057   2.122  12.300  1.00  0.00     0.011 C 
HETATM   40  C30 UNL     1       0.510  -0.058  11.345  1.00  0.00     0.044 C 
HETATM   41  C24 UNL     1       0.847   2.842  11.323  1.00  0.00    -0.011 C 
HETATM   42  C25 UNL     1       2.218   2.978  11.900  1.00  0.00     0.011 C 
HETATM   43  C29 UNL     1       0.849   2.051  10.030  1.00  0.00     0.042 C 
HETATM   44  C26 UNL     1       2.790   1.577  12.090  1.00  0.00     0.012 C 
HETATM   45  C27 UNL     1       2.781   0.780  10.818  1.00  0.00     0.044 C 
HETATM   46  C28 UNL     1       1.348   0.651  10.326  1.00  0.00     0.059 C 
BRANCH  46  47
HETATM   47  O3  UNL     1       1.394  -0.093   9.140  1.00  0.00    -0.390 OA
ATOM     48  H3  UNL     1       0.750   0.286   8.554  1.00  0.00     0.210 HD
ENDBRANCH  46  47
ENDBRANCH  35  37
ENDBRANCH  32  33
ENDBRANCH   1  32
TORSDOF 10
ENDMDL
MODEL 3
REMARK VINA RESULT: -10.783390055      1.928      2.779
REMARK  10 active torsions:
REMARK  status: ('A' for Active; 'I' for Inactive)
REMARK    1  A    between atoms: C8_8  and  C9_9 
REMARK       I    between atoms: C9_9  and  N1_11 
REMARK    2  A    between atoms: N1_11  and  N2_13 
REMARK    3  A    between atoms: N2_13  and  C10_14 
REMARK    4  A    between atoms: N2_13  and  C19_29 
REMARK    5  A    between atoms: C10_14  and  C11_15 
REMARK    6  A    between atoms: C11_15  and  C12_16 
REMARK    7  A    between atoms: C12_16  and  N3_17 
REMARK       I    between atoms: N4_21  and  C16_22 
REMARK    8  A    between atoms: C19_29  and  C20_30 
REMARK       I    between atoms: C20_30  and  N7_32 
REMARK    9  A    between atoms: N7_32  and  C21_34 
REMARK   10  A    between atoms: C28_41  and  O3_42 
ROOT
HETATM    1  N2  UNL     1       5.774  -1.223  15.319  1.00  0.00    -0.220 NA
ENDROOT
BRANCH   1   2
HETATM    2  N1  UNL     1       6.037  -0.763  14.050  1.00  0.00    -0.285 N 
HETATM    3  C9  UNL     1       6.396   0.587  13.856  1.00  0.00     0.266 C 
HETATM    4  O1  UNL     1       6.471   1.342  14.867  1.00  0.00    -0.266 OA
ATOM      5  H1  UNL     1       5.972  -1.395  13.253  1.00  0.00     0.184 HD
BRANCH   3   6
HETATM    6  C8  UNL     1       6.685   1.171  12.534  1.00  0.00     0.033 A 
HETATM    7  C7  UNL     1       5.859   2.119  11.966  1.00  0.00     0.024 A 
HETATM    8  C6  UNL     1       6.175   2.661  10.703  1.00  0.00    -0.050 A 
HETATM    9  C5  UNL     1       5.444   3.673   9.902  1.00  0.00     0.040 A 
HETATM   10  C33 UNL     1       7.302   2.227  10.072  1.00  0.00    -0.044 A 
HETATM   11  C4  UNL     1       6.263   3.792   8.656  1.00  0.00     0.018 A 
HETATM   12  C2  UNL     1       7.448   2.910   8.776  1.00  0.00    -0.020 A 
HETATM   13  C1  UNL     1       8.760   3.666   8.683  1.00  0.00     0.020 C 
HETATM   14  C3  UNL     1       7.420   1.810   7.709  1.00  0.00     0.020 C 
HETATM   15  C32 UNL     1       8.142   1.267  10.642  1.00  0.00     0.009 A 
HETATM   16  C31 UNL     1       7.824   0.748  11.870  1.00  0.00     0.017 A 
ENDBRANCH   3   6
ENDBRANCH   1   2
BRANCH   1  17
HETATM   17  C10 UNL     1       6.592  -2.269  15.810  1.00  0.00     0.116 C 
BRANCH  17  18
HETATM   18  C11 UNL     1       7.952  -2.256  15.116  1.00  0.00     0.046 C 
BRANCH  18  19
HETATM   19  C12 UNL     1       9.003  -2.787  16.044  1.00  0.00     0.273 C 
BRANCH  19  20
HETATM   20  N3  UNL     1       9.723  -3.926  15.583  1.00  0.00     0.090 N 
HETATM   21  C13 UNL     1      10.640  -4.457  16.539  1.00  0.00     0.274 C 
HETATM   22  C14 UNL     1      10.151  -4.589  17.939  1.00  0.00     0.050 C 
HETATM   23  C15 UNL     1       9.547  -5.966  18.088  1.00  0.00     0.127 C 
HETATM   24  N4  UNL     1       8.538  -6.092  17.019  1.00  0.00    -0.354 N 
HETATM   25  C16 UNL     1       7.214  -6.051  17.487  1.00  0.00     0.184 C 
HETATM   26  C17 UNL     1       8.860  -6.246  15.632  1.00  0.00     0.155 C 
HETATM   27  N5  UNL     1       6.215  -6.289  16.780  1.00  0.00    -0.374 N 
HETATM   28  N6  UNL     1       6.971  -5.724  18.871  1.00  0.00    -0.064 NA
ATOM     29  H52 UNL     1       6.386  -6.520  15.801  1.00  0.00     0.158 HD
ATOM     30  H51 UNL     1       5.254  -6.259  17.119  1.00  0.00     0.158 HD
HETATM   31  C18 UNL     1       8.926  -4.916  14.932  1.00  0.00     0.292 C 
ENDBRANCH  19  20
ENDBRANCH  18  19
ENDBRANCH  17  18
ENDBRANCH   1  17
BRANCH   1  32
HETATM   32  C19 UNL     1       4.378  -1.467  15.511  1.00  0.00     0.216 C 
BRANCH  32  33
HETATM   33  C20 UNL     1       3.675  -1.580  14.208  1.00  0.00     0.232 C 
HETATM   34  O2  UNL     1       3.747  -2.565  13.457  1.00  0.00    -0.272 OA
HETATM   35  N7  UNL     1       2.855  -0.469  13.793  1.00  0.00    -0.355 N 
ATOM     36  H7  UNL     1       2.766   0.359  14.382  1.00  0.00     0.162 HD
BRANCH  35  37
HETATM   37  C21 UNL     1       2.170  -0.545  12.547  1.00  0.00     0.092 C 
HETATM   38  C22 UNL     1       2.661   0.418  11.518  1.00  0.00     0.012 C 
HETATM   39  C23 UNL     1       1.892   0.189  10.235  1.00  0.00     0.011 C 
HETATM   40  C30 UNL     1       2.408   1.852  11.953  1.00  0.00     0.044 C 
HETATM   41  C24 UNL     1       0.405   0.320  10.481  1.00  0.00    -0.011 C 
HETATM   42  C25 UNL     1      -0.029  -0.661  11.521  1.00  0.00     0.011 C 
HETATM   43  C29 UNL     1       0.134   1.751  10.899  1.00  0.00     0.042 C 
HETATM   44  C26 UNL     1       0.674  -0.306  12.826  1.00  0.00     0.012 C 
HETATM   45  C27 UNL     1       0.424   1.115  13.241  1.00  0.00     0.044 C 
HETATM   46  C28 UNL     1       0.936   2.045  12.151  1.00  0.00     0.059 C 
BRANCH  46  47
HETATM   47  O3  UNL     1       0.677   3.352  12.581  1.00  0.00    -0.390 OA
ATOM     48  H3  UNL     1       0.605   3.321  13.528  1.00  0.00     0.210 HD
ENDBRANCH  46  47
ENDBRANCH  35  37
ENDBRANCH  32  33
ENDBRANCH   1  32
TORSDOF 10
ENDMDL
MODEL 4
REMARK VINA RESULT: -10.585180223      1.441      2.215
REMARK  10 active torsions:
REMARK  status: ('A' for Active; 'I' for Inactive)
REMARK    1  A    between atoms: C8_8  and  C9_9 
REMARK       I    between atoms: C9_9  and  N1_11 
REMARK    2  A    between atoms: N1_11  and  N2_13 
REMARK    3  A    between atoms: N2_13  and  C10_14 
REMARK    4  A    between atoms: N2_13  and  C19_29 
REMARK    5  A    between atoms: C10_14  and  C11_15 
REMARK    6  A    between atoms: C11_15  and  C12_16 
REMARK    7  A    between atoms: C12_16  and  N3_17 
REMARK       I    between atoms: N4_21  and  C16_22 
REMARK    8  A    between atoms: C19_29  and  C20_30 
REMARK       I    between atoms: C20_30  and  N7_32 
REMARK    9  A    between atoms: N7_32  and  C21_34 
REMARK   10  A    between atoms: C28_41  and  O3_42 
ROOT
HETATM    1  N2  UNL     1       5.568  -1.736  14.366  1.00  0.00    -0.220 NA
ENDROOT
BRANCH   1   2
HETATM    2  N1  UNL     1       5.709  -1.012  13.205  1.00  0.00    -0.285 N 
HETATM    3  C9  UNL     1       6.747  -0.065  13.092  1.00  0.00     0.266 C 
HETATM    4  O1  UNL     1       7.532   0.089  14.071  1.00  0.00    -0.266 OA
ATOM      5  H1  UNL     1       5.064  -1.159  12.429  1.00  0.00     0.184 HD
BRANCH   3   6
HETATM    6  C8  UNL     1       6.969   0.762  11.892  1.00  0.00     0.033 A 
HETATM    7  C7  UNL     1       6.063   1.727  11.502  1.00  0.00     0.024 A 
HETATM    8  C6  UNL     1       6.316   2.504  10.353  1.00  0.00    -0.050 A 
HETATM    9  C5  UNL     1       5.497   3.581   9.745  1.00  0.00     0.040 A 
HETATM   10  C33 UNL     1       7.462   2.277   9.652  1.00  0.00    -0.044 A 
HETATM   11  C4  UNL     1       6.283   3.980   8.536  1.00  0.00     0.018 A 
HETATM   12  C2  UNL     1       7.534   3.185   8.495  1.00  0.00    -0.020 A 
HETATM   13  C1  UNL     1       8.783   4.046   8.532  1.00  0.00     0.020 C 
HETATM   14  C3  UNL     1       7.572   2.290   7.252  1.00  0.00     0.020 C 
HETATM   15  C32 UNL     1       8.382   1.301  10.042  1.00  0.00     0.009 A 
HETATM   16  C31 UNL     1       8.125   0.552  11.160  1.00  0.00     0.017 A 
ENDBRANCH   3   6
ENDBRANCH   1   2
BRANCH   1  17
HETATM   17  C10 UNL     1       6.057  -3.064  14.363  1.00  0.00     0.116 C 
BRANCH  17  18
HETATM   18  C11 UNL     1       6.544  -3.459  15.755  1.00  0.00     0.046 C 
BRANCH  18  19
HETATM   19  C12 UNL     1       6.012  -4.813  16.116  1.00  0.00     0.273 C 
BRANCH  19  20
HETATM   20  N3  UNL     1       5.202  -4.872  17.286  1.00  0.00     0.090 N 
HETATM   21  C13 UNL     1       3.819  -4.610  17.048  1.00  0.00     0.274 C 
HETATM   22  C14 UNL     1       3.204  -5.270  15.865  1.00  0.00     0.050 C 
HETATM   23  C15 UNL     1       2.642  -6.597  16.317  1.00  0.00     0.127 C 
HETATM   24  N4  UNL     1       3.753  -7.313  16.973  1.00  0.00    -0.354 N 
HETATM   25  C16 UNL     1       4.248  -8.393  16.223  1.00  0.00     0.184 C 
HETATM   26  C17 UNL     1       4.286  -6.959  18.254  1.00  0.00     0.155 C 
HETATM   27  N5  UNL     1       5.077  -9.219  16.649  1.00  0.00    -0.374 N 
HETATM   28  N6  UNL     1       3.774  -8.580  14.872  1.00  0.00    -0.064 NA
ATOM     29  H52 UNL     1       5.412  -9.087  17.603  1.00  0.00     0.158 HD
ATOM     30  H51 UNL     1       5.437 -10.003  16.104  1.00  0.00     0.158 HD
HETATM   31  C18 UNL     1       5.441  -6.004  18.123  1.00  0.00     0.292 C 
ENDBRANCH  19  20
ENDBRANCH  18  19
ENDBRANCH  17  18
ENDBRANCH   1  17
BRANCH   1  32
HETATM   32  C19 UNL     1       4.245  -1.627  14.895  1.00  0.00     0.216 C 
BRANCH  32  33
HETATM   33  C20 UNL     1       3.625  -0.333  14.514  1.00  0.00     0.232 C 
HETATM   34  O2  UNL     1       3.978   0.771  14.959  1.00  0.00    -0.272 OA
HETATM   35  N7  UNL     1       2.542  -0.365  13.563  1.00  0.00    -0.355 N 
ATOM     36  H7  UNL     1       2.223  -1.251  13.170  1.00  0.00     0.162 HD
BRANCH  35  37
HETATM   37  C21 UNL     1       1.924   0.859  13.179  1.00  0.00     0.092 C 
HETATM   38  C22 UNL     1       0.534   0.707  12.659  1.00  0.00     0.012 C 
HETATM   39  C23 UNL     1      -0.020   2.080  12.348  1.00  0.00     0.011 C 
HETATM   40  C30 UNL     1       0.522  -0.094  11.367  1.00  0.00     0.044 C 
HETATM   41  C24 UNL     1       0.882   2.803  11.372  1.00  0.00    -0.011 C 
HETATM   42  C25 UNL     1       2.259   2.922  11.940  1.00  0.00     0.011 C 
HETATM   43  C29 UNL     1       0.868   2.026  10.072  1.00  0.00     0.042 C 
HETATM   44  C26 UNL     1       2.821   1.515  12.112  1.00  0.00     0.012 C 
HETATM   45  C27 UNL     1       2.796   0.731  10.832  1.00  0.00     0.044 C 
HETATM   46  C28 UNL     1       1.358   0.618  10.349  1.00  0.00     0.059 C 
BRANCH  46  47
HETATM   47  O3  UNL     1       1.389  -0.114   9.155  1.00  0.00    -0.390 OA
ATOM     48  H3  UNL     1       0.529  -0.031   8.761  1.00  0.00     0.210 HD
ENDBRANCH  46  47
ENDBRANCH  35  37
ENDBRANCH  32  33
ENDBRANCH   1  32
TORSDOF 10
ENDMDL
MODEL 5
REMARK VINA RESULT: -10.573962833      2.284      3.384
REMARK  10 active torsions:
REMARK  status: ('A' for Active; 'I' for Inactive)
REMARK    1  A    between atoms: C8_8  and  C9_9 
REMARK       I    between atoms: C9_9  and  N1_11 
REMARK    2  A    between atoms: N1_11  and  N2_13 
REMARK    3  A    between atoms: N2_13  and  C10_14 
REMARK    4  A    between atoms: N2_13  and  C19_29 
REMARK    5  A    between atoms: C10_14  and  C11_15 
REMARK    6  A    between atoms: C11_15  and  C12_16 
REMARK    7  A    between atoms: C12_16  and  N3_17 
REMARK       I    between atoms: N4_21  and  C16_22 
REMARK    8  A    between atoms: C19_29  and  C20_30 
REMARK       I    between atoms: C20_30  and  N7_32 
REMARK    9  A    between atoms: N7_32  and  C21_34 
REMARK   10  A    between atoms: C28_41  and  O3_42 
ROOT
HETATM    1  N2  UNL     1       5.463  -1.671  14.395  1.00  0.00    -0.220 NA
ENDROOT
BRANCH   1   2
HETATM    2  N1  UNL     1       5.619  -0.952  13.234  1.00  0.00    -0.285 N 
HETATM    3  C9  UNL     1       6.684  -0.035  13.115  1.00  0.00     0.266 C 
HETATM    4  O1  UNL     1       7.477   0.096  14.091  1.00  0.00    -0.266 OA
ATOM      5  H1  UNL     1       4.967  -1.081  12.461  1.00  0.00     0.184 HD
BRANCH   3   6
HETATM    6  C8  UNL     1       6.924   0.785  11.914  1.00  0.00     0.033 A 
HETATM    7  C7  UNL     1       6.028   1.754  11.510  1.00  0.00     0.024 A 
HETATM    8  C6  UNL     1       6.298   2.524  10.361  1.00  0.00    -0.050 A 
HETATM    9  C5  UNL     1       5.493   3.603   9.739  1.00  0.00     0.040 A 
HETATM   10  C33 UNL     1       7.450   2.286   9.673  1.00  0.00    -0.044 A 
HETATM   11  C4  UNL     1       6.295   3.991   8.536  1.00  0.00     0.018 A 
HETATM   12  C2  UNL     1       7.540   3.189   8.513  1.00  0.00    -0.020 A 
HETATM   13  C1  UNL     1       8.795   4.041   8.559  1.00  0.00     0.020 C 
HETATM   14  C3  UNL     1       7.585   2.288   7.274  1.00  0.00     0.020 C 
HETATM   15  C32 UNL     1       8.360   1.306  10.077  1.00  0.00     0.009 A 
HETATM   16  C31 UNL     1       8.086   0.564  11.196  1.00  0.00     0.017 A 
ENDBRANCH   3   6
ENDBRANCH   1   2
BRANCH   1  17
HETATM   17  C10 UNL     1       5.926  -3.009  14.395  1.00  0.00     0.116 C 
BRANCH  17  18
HETATM   18  C11 UNL     1       6.149  -3.499  15.823  1.00  0.00     0.046 C 
BRANCH  18  19
HETATM   19  C12 UNL     1       7.557  -3.209  16.248  1.00  0.00     0.273 C 
BRANCH  19  20
HETATM   20  N3  UNL     1       8.575  -3.586  15.327  1.00  0.00     0.090 N 
HETATM   21  C13 UNL     1       9.900  -3.315  15.785  1.00  0.00     0.274 C 
HETATM   22  C14 UNL     1      10.210  -3.676  17.195  1.00  0.00     0.050 C 
HETATM   23  C15 UNL     1      10.738  -5.091  17.204  1.00  0.00     0.127 C 
HETATM   24  N4  UNL     1       9.724  -5.914  16.517  1.00  0.00    -0.354 N 
HETATM   25  C16 UNL     1       9.002  -6.753  17.381  1.00  0.00     0.184 C 
HETATM   26  C17 UNL     1       9.489  -5.877  15.105  1.00  0.00     0.155 C 
HETATM   27  N5  UNL     1       8.208  -7.634  16.997  1.00  0.00    -0.374 N 
HETATM   28  N6  UNL     1       9.179  -6.610  18.806  1.00  0.00    -0.064 NA
ATOM     29  H52 UNL     1       8.082  -7.736  15.990  1.00  0.00     0.158 HD
ATOM     30  H51 UNL     1       7.683  -8.244  17.624  1.00  0.00     0.158 HD
HETATM   31  C18 UNL     1       8.414  -4.884  14.753  1.00  0.00     0.292 C 
ENDBRANCH  19  20
ENDBRANCH  18  19
ENDBRANCH  17  18
ENDBRANCH   1  17
BRANCH   1  32
HETATM   32  C19 UNL     1       4.141  -1.535  14.923  1.00  0.00     0.216 C 
BRANCH  32  33
HETATM   33  C20 UNL     1       3.536  -0.243  14.514  1.00  0.00     0.232 C 
HETATM   34  O2  UNL     1       3.895   0.865  14.941  1.00  0.00    -0.272 OA
HETATM   35  N7  UNL     1       2.459  -0.284  13.555  1.00  0.00    -0.355 N 
ATOM     36  H7  UNL     1       2.135  -1.174  13.177  1.00  0.00     0.162 HD
BRANCH  35  37
HETATM   37  C21 UNL     1       1.855   0.938  13.145  1.00  0.00     0.092 C 
HETATM   38  C22 UNL     1       0.473   0.787  12.602  1.00  0.00     0.012 C 
HETATM   39  C23 UNL     1      -0.067   2.159  12.264  1.00  0.00     0.011 C 
HETATM   40  C30 UNL     1       0.480  -0.031  11.321  1.00  0.00     0.044 C 
HETATM   41  C24 UNL     1       0.856   2.864  11.294  1.00  0.00    -0.011 C 
HETATM   42  C25 UNL     1       2.224   2.983  11.884  1.00  0.00     0.011 C 
HETATM   43  C29 UNL     1       0.860   2.069  10.004  1.00  0.00     0.042 C 
HETATM   44  C26 UNL     1       2.774   1.575  12.085  1.00  0.00     0.012 C 
HETATM   45  C27 UNL     1       2.767   0.774  10.815  1.00  0.00     0.044 C 
HETATM   46  C28 UNL     1       1.337   0.663  10.308  1.00  0.00     0.059 C 
BRANCH  46  47
HETATM   47  O3  UNL     1       1.385  -0.085   9.125  1.00  0.00    -0.390 OA
ATOM     48  H3  UNL     1       0.487  -0.211   8.845  1.00  0.00     0.210 HD
ENDBRANCH  46  47
ENDBRANCH  35  37
ENDBRANCH  32  33
ENDBRANCH   1  32
TORSDOF 10
ENDMDL
