MODEL 1
REMARK VINA RESULT: -10.356388627      0.000      0.000
REMARK  9 active torsions:
REMARK  status: ('A' for Active; 'I' for Inactive)
REMARK       I    between atoms: N1_2  and  C2_4 
REMARK       I    between atoms: C2_4  and  N2_6 
REMARK    1  A    between atoms: C6_10  and  C7_11 
REMARK       I    between atoms: C7_11  and  N3_13 
REMARK    2  A    between atoms: N3_13  and  C8_15 
REMARK       I    between atoms: N4_25  and  C17_26 
REMARK       I    between atoms: C17_26  and  N5_28 
REMARK    3  A    between atoms: N5_28  and  C18_30 
REMARK    4  A    between atoms: C18_30  and  C19_31 
REMARK    5  A    between atoms: C19_31  and  C20_32 
REMARK    6  A    between atoms: C20_32  and  C21_33 
REMARK    7  A    between atoms: C21_33  and  C22_34 
REMARK    8  A    between atoms: C22_34  and  N6_35 
REMARK       I    between atoms: N6_35  and  C23_37 
REMARK    9  A    between atoms: C23_37  and  C24_39 
ROOT
HETATM    1  C8  UNL     1       6.424   1.532  12.490  1.00  0.00     0.035 A 
HETATM    2  C9  UNL     1       7.332   1.418  13.566  1.00  0.00     0.032 A 
HETATM    3  C10 UNL     1       7.196   0.398  14.461  1.00  0.00     0.033 A 
HETATM    4  C11 UNL     1       6.203  -0.551  14.375  1.00  0.00     0.052 A 
HETATM    5  C12 UNL     1       5.308  -0.456  13.333  1.00  0.00     0.039 A 
HETATM    6  C13 UNL     1       5.438   0.590  12.406  1.00  0.00     0.047 A 
HETATM    7  C14 UNL     1       4.247  -1.451  13.252  1.00  0.00     0.163 C 
HETATM    8  O3  UNL     1       3.500  -1.402  12.230  1.00  0.00    -0.292 OA
HETATM    9  C15 UNL     1       4.052  -2.468  14.311  1.00  0.00     0.104 C 
HETATM   10  C16 UNL     1       4.657  -1.992  15.591  1.00  0.00     0.142 C 
HETATM   11  N4  UNL     1       6.041  -1.607  15.280  1.00  0.00    -0.299 N 
HETATM   12  C17 UNL     1       7.150  -2.280  15.807  1.00  0.00     0.322 C 
HETATM   13  O4  UNL     1       6.865  -3.038  16.815  1.00  0.00    -0.247 OA
HETATM   14  N5  UNL     1       8.485  -2.245  15.397  1.00  0.00    -0.343 N 
ATOM     15  H5  UNL     1       8.712  -1.653  14.600  1.00  0.00     0.164 HD
ENDROOT
BRANCH  14  16
HETATM   16  C18 UNL     1       9.579  -2.983  16.013  1.00  0.00     0.124 C 
BRANCH  16  17
HETATM   17  C19 UNL     1      10.002  -4.101  15.139  1.00  0.00     0.020 C 
BRANCH  17  18
HETATM   18  C20 UNL     1       9.838  -5.462  15.878  1.00  0.00     0.007 C 
BRANCH  18  19
HETATM   19  C21 UNL     1       9.881  -5.236  17.343  1.00  0.00     0.044 C 
BRANCH  19  20
HETATM   20  C22 UNL     1       8.801  -5.740  18.202  1.00  0.00     0.064 C 
BRANCH  20  21
HETATM   21  N6  UNL     1       7.533  -6.053  17.687  1.00  0.00    -0.340 N 
HETATM   22  C23 UNL     1       6.275  -6.127  18.293  1.00  0.00     0.231 C 
HETATM   23  O5  UNL     1       6.128  -5.914  19.512  1.00  0.00    -0.272 OA
ATOM     24  H6  UNL     1       7.529  -6.264  16.689  1.00  0.00     0.167 HD
BRANCH  22  25
HETATM   25  C24 UNL     1       5.028  -6.460  17.548  1.00  0.00     0.060 C 
HETATM   26  C25 UNL     1       4.966  -7.929  17.165  1.00  0.00     0.047 C 
HETATM   27  C26 UNL     1       3.479  -8.020  16.787  1.00  0.00     0.096 C 
HETATM   28  C27 UNL     1       2.865  -7.444  18.068  1.00  0.00     0.032 C 
HETATM   29  N8  UNL     1       3.149  -7.162  15.710  1.00  0.00    -0.350 N 
HETATM   30  C28 UNL     1       3.782  -6.270  18.364  1.00  0.00     0.008 C 
HETATM   31  C29 UNL     1       3.031  -5.009  17.988  1.00  0.00     0.022 C 
HETATM   32  C30 UNL     1       2.701  -4.975  16.515  1.00  0.00     0.113 C 
HETATM   33  N7  UNL     1       3.558  -5.867  15.778  1.00  0.00    -0.234 NA
HETATM   34  C31 UNL     1       4.908  -5.684  16.257  1.00  0.00     0.133 C 
ATOM     35  H8  UNL     1       2.621  -7.505  14.908  1.00  0.00     0.174 HD
ENDBRANCH  22  25
ENDBRANCH  20  21
ENDBRANCH  19  20
ENDBRANCH  18  19
ENDBRANCH  17  18
ENDBRANCH  16  17
ENDBRANCH  14  16
BRANCH   1  36
HETATM   36  N3  UNL     1       6.587   2.606  11.583  1.00  0.00    -0.325 N 
HETATM   37  C7  UNL     1       7.311   2.571  10.402  1.00  0.00     0.245 C 
HETATM   38  O2  UNL     1       7.948   1.614   9.917  1.00  0.00    -0.271 OA
ATOM     39  H3  UNL     1       6.130   3.486  11.820  1.00  0.00     0.169 HD
BRANCH  37  40
HETATM   40  C6  UNL     1       7.362   3.827   9.568  1.00  0.00     0.181 C 
HETATM   41  N2  UNL     1       6.321   3.895   8.593  1.00  0.00    -0.321 N 
HETATM   42  C2  UNL     1       4.955   4.176   8.839  1.00  0.00     0.318 C 
HETATM   43  C3  UNL     1       6.871   3.627   7.260  1.00  0.00     0.129 C 
HETATM   44  N1  UNL     1       4.007   4.216   7.785  1.00  0.00    -0.347 N 
HETATM   45  O1  UNL     1       4.611   4.391  10.045  1.00  0.00    -0.247 OA
HETATM   46  C1  UNL     1       2.630   4.504   8.069  1.00  0.00     0.151 C 
ATOM     47  H1  UNL     1       4.304   4.040   6.825  1.00  0.00     0.163 HD
HETATM   48  C4  UNL     1       8.356   3.843   7.381  1.00  0.00     0.022 C 
HETATM   49  C5  UNL     1       8.672   3.843   8.844  1.00  0.00     0.037 C 
ENDBRANCH  37  40
ENDBRANCH   1  36
TORSDOF 9
ENDMDL
MODEL 2
REMARK VINA RESULT: -10.337221680      0.742      1.199
REMARK  9 active torsions:
REMARK  status: ('A' for Active; 'I' for Inactive)
REMARK       I    between atoms: N1_2  and  C2_4 
REMARK       I    between atoms: C2_4  and  N2_6 
REMARK    1  A    between atoms: C6_10  and  C7_11 
REMARK       I    between atoms: C7_11  and  N3_13 
REMARK    2  A    between atoms: N3_13  and  C8_15 
REMARK       I    between atoms: N4_25  and  C17_26 
REMARK       I    between atoms: C17_26  and  N5_28 
REMARK    3  A    between atoms: N5_28  and  C18_30 
REMARK    4  A    between atoms: C18_30  and  C19_31 
REMARK    5  A    between atoms: C19_31  and  C20_32 
REMARK    6  A    between atoms: C20_32  and  C21_33 
REMARK    7  A    between atoms: C21_33  and  C22_34 
REMARK    8  A    between atoms: C22_34  and  N6_35 
REMARK       I    between atoms: N6_35  and  C23_37 
REMARK    9  A    between atoms: C23_37  and  C24_39 
ROOT
HETATM    1  C8  UNL     1       6.338   1.517  12.517  1.00  0.00     0.035 A 
HETATM    2  C9  UNL     1       7.235   1.406  13.602  1.00  0.00     0.032 A 
HETATM    3  C10 UNL     1       7.087   0.390  14.501  1.00  0.00     0.033 A 
HETATM    4  C11 UNL     1       6.092  -0.557  14.409  1.00  0.00     0.052 A 
HETATM    5  C12 UNL     1       5.207  -0.463  13.357  1.00  0.00     0.039 A 
HETATM    6  C13 UNL     1       5.350   0.579  12.428  1.00  0.00     0.047 A 
HETATM    7  C14 UNL     1       4.144  -1.456  13.271  1.00  0.00     0.163 C 
HETATM    8  O3  UNL     1       3.407  -1.409  12.241  1.00  0.00    -0.292 OA
HETATM    9  C15 UNL     1       3.936  -2.467  14.331  1.00  0.00     0.104 C 
HETATM   10  C16 UNL     1       4.529  -1.988  15.615  1.00  0.00     0.142 C 
HETATM   11  N4  UNL     1       5.918  -1.609  15.316  1.00  0.00    -0.299 N 
HETATM   12  C17 UNL     1       7.020  -2.283  15.856  1.00  0.00     0.322 C 
HETATM   13  O4  UNL     1       6.723  -3.036  16.865  1.00  0.00    -0.247 OA
HETATM   14  N5  UNL     1       8.358  -2.254  15.460  1.00  0.00    -0.343 N 
ATOM     15  H5  UNL     1       8.596  -1.665  14.662  1.00  0.00     0.164 HD
ENDROOT
BRANCH  14  16
HETATM   16  C18 UNL     1       9.444  -2.992  16.089  1.00  0.00     0.124 C 
BRANCH  16  17
HETATM   17  C19 UNL     1       9.973  -4.019  15.162  1.00  0.00     0.020 C 
BRANCH  17  18
HETATM   18  C20 UNL     1       9.223  -5.370  15.360  1.00  0.00     0.007 C 
BRANCH  18  19
HETATM   19  C21 UNL     1       9.838  -6.115  16.485  1.00  0.00     0.044 C 
BRANCH  19  20
HETATM   20  C22 UNL     1       9.076  -7.154  17.191  1.00  0.00     0.064 C 
BRANCH  20  21
HETATM   21  N6  UNL     1       7.673  -7.139  17.233  1.00  0.00    -0.340 N 
HETATM   22  C23 UNL     1       6.773  -6.419  18.024  1.00  0.00     0.231 C 
HETATM   23  O5  UNL     1       7.169  -5.625  18.899  1.00  0.00    -0.272 OA
ATOM     24  H6  UNL     1       7.229  -7.769  16.563  1.00  0.00     0.167 HD
BRANCH  22  25
HETATM   25  C24 UNL     1       5.293  -6.535  17.891  1.00  0.00     0.060 C 
HETATM   26  C25 UNL     1       4.584  -6.366  19.224  1.00  0.00     0.047 C 
HETATM   27  C26 UNL     1       3.150  -6.157  18.712  1.00  0.00     0.096 C 
HETATM   28  C27 UNL     1       3.405  -5.010  17.728  1.00  0.00     0.032 C 
HETATM   29  N8  UNL     1       2.677  -7.274  17.982  1.00  0.00    -0.350 N 
HETATM   30  C28 UNL     1       4.687  -5.453  17.045  1.00  0.00     0.008 C 
HETATM   31  C29 UNL     1       4.312  -5.941  15.661  1.00  0.00     0.022 C 
HETATM   32  C30 UNL     1       3.388  -7.134  15.722  1.00  0.00     0.113 C 
HETATM   33  N7  UNL     1       3.475  -7.782  17.005  1.00  0.00    -0.234 NA
HETATM   34  C31 UNL     1       4.871  -7.885  17.359  1.00  0.00     0.133 C 
ATOM     35  H8  UNL     1       1.765  -7.684  18.182  1.00  0.00     0.174 HD
ENDBRANCH  22  25
ENDBRANCH  20  21
ENDBRANCH  19  20
ENDBRANCH  18  19
ENDBRANCH  17  18
ENDBRANCH  16  17
ENDBRANCH  14  16
BRANCH   1  36
HETATM   36  N3  UNL     1       6.513   2.588  11.607  1.00  0.00    -0.325 N 
HETATM   37  C7  UNL     1       7.155   2.516  10.382  1.00  0.00     0.245 C 
HETATM   38  O2  UNL     1       7.694   1.524   9.850  1.00  0.00    -0.271 OA
ATOM     39  H3  UNL     1       6.132   3.494  11.878  1.00  0.00     0.169 HD
BRANCH  37  40
HETATM   40  C6  UNL     1       7.235   3.774   9.553  1.00  0.00     0.181 C 
HETATM   41  N2  UNL     1       6.207   3.863   8.566  1.00  0.00    -0.321 N 
HETATM   42  C2  UNL     1       4.843   4.164   8.797  1.00  0.00     0.318 C 
HETATM   43  C3  UNL     1       6.768   3.591   7.239  1.00  0.00     0.129 C 
HETATM   44  N1  UNL     1       3.908   4.222   7.732  1.00  0.00    -0.347 N 
HETATM   45  O1  UNL     1       4.488   4.379  10.000  1.00  0.00    -0.247 OA
HETATM   46  C1  UNL     1       2.532   4.531   8.001  1.00  0.00     0.151 C 
ATOM     47  H1  UNL     1       4.213   4.045   6.775  1.00  0.00     0.163 HD
HETATM   48  C4  UNL     1       8.255   3.783   7.378  1.00  0.00     0.022 C 
HETATM   49  C5  UNL     1       8.554   3.772   8.845  1.00  0.00     0.037 C 
ENDBRANCH  37  40
ENDBRANCH   1  36
TORSDOF 9
ENDMDL
MODEL 3
REMARK VINA RESULT: -10.171595546      2.666      5.552
REMARK  9 active torsions:
REMARK  status: ('A' for Active; 'I' for Inactive)
REMARK       I    between atoms: N1_2  and  C2_4 
REMARK       I    between atoms: C2_4  and  N2_6 
REMARK    1  A    between atoms: C6_10  and  C7_11 
REMARK       I    between atoms: C7_11  and  N3_13 
REMARK    2  A    between atoms: N3_13  and  C8_15 
REMARK       I    between atoms: N4_25  and  C17_26 
REMARK       I    between atoms: C17_26  and  N5_28 
REMARK    3  A    between atoms: N5_28  and  C18_30 
REMARK    4  A    between atoms: C18_30  and  C19_31 
REMARK    5  A    between atoms: C19_31  and  C20_32 
REMARK    6  A    between atoms: C20_32  and  C21_33 
REMARK    7  A    between atoms: C21_33  and  C22_34 
REMARK    8  A    between atoms: C22_34  and  N6_35 
REMARK       I    between atoms: N6_35  and  C23_37 
REMARK    9  A    between atoms: C23_37  and  C24_39 
ROOT
HETATM    1  C8  UNL     1       7.303  -1.909  14.969  1.00  0.00     0.035 A 
HETATM    2  C9  UNL     1       6.194  -2.778  15.064  1.00  0.00     0.032 A 
HETATM    3  C10 UNL     1       6.315  -3.958  15.736  1.00  0.00     0.033 A 
HETATM    4  C11 UNL     1       7.482  -4.361  16.345  1.00  0.00     0.052 A 
HETATM    5  C12 UNL     1       8.574  -3.526  16.263  1.00  0.00     0.039 A 
HETATM    6  C13 UNL     1       8.461  -2.310  15.572  1.00  0.00     0.047 A 
HETATM    7  C14 UNL     1       9.814  -3.961  16.892  1.00  0.00     0.163 C 
HETATM    8  O3  UNL     1      10.773  -3.132  16.890  1.00  0.00    -0.292 OA
HETATM    9  C15 UNL     1       9.947  -5.303  17.504  1.00  0.00     0.104 C 
HETATM   10  C16 UNL     1       8.938  -6.233  16.915  1.00  0.00     0.142 C 
HETATM   11  N4  UNL     1       7.633  -5.566  17.042  1.00  0.00    -0.299 N 
HETATM   12  C17 UNL     1       6.605  -6.063  17.851  1.00  0.00     0.322 C 
HETATM   13  O4  UNL     1       6.778  -7.294  18.211  1.00  0.00    -0.247 OA
HETATM   14  N5  UNL     1       5.452  -5.425  18.311  1.00  0.00    -0.343 N 
ATOM     15  H5  UNL     1       5.314  -4.453  18.034  1.00  0.00     0.164 HD
ENDROOT
BRANCH  14  16
HETATM   16  C18 UNL     1       4.428  -6.028  19.153  1.00  0.00     0.124 C 
BRANCH  16  17
HETATM   17  C19 UNL     1       3.079  -5.687  18.647  1.00  0.00     0.020 C 
BRANCH  17  18
HETATM   18  C20 UNL     1       3.183  -4.771  17.392  1.00  0.00     0.007 C 
BRANCH  18  19
HETATM   19  C21 UNL     1       2.572  -5.457  16.228  1.00  0.00     0.044 C 
BRANCH  19  20
HETATM   20  C22 UNL     1       3.309  -6.511  15.517  1.00  0.00     0.064 C 
BRANCH  20  21
HETATM   21  N6  UNL     1       3.628  -7.732  16.132  1.00  0.00    -0.340 N 
HETATM   22  C23 UNL     1       3.949  -8.985  15.602  1.00  0.00     0.231 C 
HETATM   23  O5  UNL     1       3.974  -9.182  14.371  1.00  0.00    -0.272 OA
ATOM     24  H6  UNL     1       3.625  -7.699  17.152  1.00  0.00     0.167 HD
BRANCH  22  25
HETATM   25  C24 UNL     1       4.284 -10.167  16.444  1.00  0.00     0.060 C 
HETATM   26  C25 UNL     1       3.228 -11.255  16.348  1.00  0.00     0.047 C 
HETATM   27  C26 UNL     1       4.015 -12.416  16.977  1.00  0.00     0.096 C 
HETATM   28  C27 UNL     1       5.271 -12.364  16.100  1.00  0.00     0.032 C 
HETATM   29  N8  UNL     1       4.393 -12.141  18.313  1.00  0.00    -0.350 N 
HETATM   30  C28 UNL     1       5.536 -10.871  16.007  1.00  0.00     0.008 C 
HETATM   31  C29 UNL     1       6.714 -10.569  16.909  1.00  0.00     0.022 C 
HETATM   32  C30 UNL     1       6.410 -10.892  18.352  1.00  0.00     0.113 C 
HETATM   33  N7  UNL     1       4.990 -10.947  18.575  1.00  0.00    -0.234 NA
HETATM   34  C31 UNL     1       4.390  -9.814  17.910  1.00  0.00     0.133 C 
ATOM     35  H8  UNL     1       4.223 -12.818  19.057  1.00  0.00     0.174 HD
ENDBRANCH  22  25
ENDBRANCH  20  21
ENDBRANCH  19  20
ENDBRANCH  18  19
ENDBRANCH  17  18
ENDBRANCH  16  17
ENDBRANCH  14  16
BRANCH   1  36
HETATM   36  N3  UNL     1       7.147  -0.696  14.256  1.00  0.00    -0.325 N 
HETATM   37  C7  UNL     1       6.217   0.294  14.528  1.00  0.00     0.245 C 
HETATM   38  O2  UNL     1       5.352   0.313  15.428  1.00  0.00    -0.271 OA
ATOM     39  H3  UNL     1       7.778  -0.535  13.471  1.00  0.00     0.169 HD
BRANCH  37  40
HETATM   40  C6  UNL     1       6.214   1.520  13.650  1.00  0.00     0.181 C 
HETATM   41  N2  UNL     1       5.517   1.328  12.419  1.00  0.00    -0.321 N 
HETATM   42  C2  UNL     1       4.113   1.266  12.248  1.00  0.00     0.318 C 
HETATM   43  C3  UNL     1       6.479   1.198  11.319  1.00  0.00     0.129 C 
HETATM   44  N1  UNL     1       3.532   1.068  10.969  1.00  0.00    -0.347 N 
HETATM   45  O1  UNL     1       3.392   1.394  13.288  1.00  0.00    -0.247 OA
HETATM   46  C1  UNL     1       2.104   1.010  10.830  1.00  0.00     0.151 C 
ATOM     47  H1  UNL     1       4.128   0.966  10.148  1.00  0.00     0.163 HD
HETATM   48  C4  UNL     1       7.770   1.772  11.837  1.00  0.00     0.022 C 
HETATM   49  C5  UNL     1       7.636   1.855  13.326  1.00  0.00     0.037 C 
ENDBRANCH  37  40
ENDBRANCH   1  36
TORSDOF 9
ENDMDL
MODEL 4
REMARK VINA RESULT: -10.132606239      2.402     11.334
REMARK  9 active torsions:
REMARK  status: ('A' for Active; 'I' for Inactive)
REMARK       I    between atoms: N1_2  and  C2_4 
REMARK       I    between atoms: C2_4  and  N2_6 
REMARK    1  A    between atoms: C6_10  and  C7_11 
REMARK       I    between atoms: C7_11  and  N3_13 
REMARK    2  A    between atoms: N3_13  and  C8_15 
REMARK       I    between atoms: N4_25  and  C17_26 
REMARK       I    between atoms: C17_26  and  N5_28 
REMARK    3  A    between atoms: N5_28  and  C18_30 
REMARK    4  A    between atoms: C18_30  and  C19_31 
REMARK    5  A    between atoms: C19_31  and  C20_32 
REMARK    6  A    between atoms: C20_32  and  C21_33 
REMARK    7  A    between atoms: C21_33  and  C22_34 
REMARK    8  A    between atoms: C22_34  and  N6_35 
REMARK       I    between atoms: N6_35  and  C23_37 
REMARK    9  A    between atoms: C23_37  and  C24_39 
ROOT
HETATM    1  C8  UNL     1       4.640  -4.015  16.737  1.00  0.00     0.035 A 
HETATM    2  C9  UNL     1       3.423  -3.325  16.546  1.00  0.00     0.032 A 
HETATM    3  C10 UNL     1       3.415  -2.142  15.868  1.00  0.00     0.033 A 
HETATM    4  C11 UNL     1       4.551  -1.568  15.344  1.00  0.00     0.052 A 
HETATM    5  C12 UNL     1       5.748  -2.226  15.521  1.00  0.00     0.039 A 
HETATM    6  C13 UNL     1       5.768  -3.444  16.218  1.00  0.00     0.047 A 
HETATM    7  C14 UNL     1       6.952  -1.609  14.981  1.00  0.00     0.163 C 
HETATM    8  O3  UNL     1       8.023  -2.282  15.067  1.00  0.00    -0.292 OA
HETATM    9  C15 UNL     1       6.927  -0.264  14.362  1.00  0.00     0.104 C 
HETATM   10  C16 UNL     1       5.745   0.502  14.859  1.00  0.00     0.142 C 
HETATM   11  N4  UNL     1       4.571  -0.356  14.643  1.00  0.00    -0.299 N 
HETATM   12  C17 UNL     1       3.544  -0.023  13.752  1.00  0.00     0.322 C 
HETATM   13  O4  UNL     1       3.556   1.219  13.388  1.00  0.00    -0.247 OA
HETATM   14  N5  UNL     1       2.541  -0.831  13.214  1.00  0.00    -0.343 N 
ATOM     15  H5  UNL     1       2.531  -1.811  13.494  1.00  0.00     0.164 HD
ENDROOT
BRANCH  14  16
HETATM   16  C18 UNL     1       1.505  -0.393  12.289  1.00  0.00     0.124 C 
BRANCH  16  17
HETATM   17  C19 UNL     1       0.523   0.469  12.986  1.00  0.00     0.020 C 
BRANCH  17  18
HETATM   18  C20 UNL     1       0.379   1.835  12.251  1.00  0.00     0.007 C 
BRANCH  18  19
HETATM   19  C21 UNL     1       1.135   1.791  10.975  1.00  0.00     0.044 C 
BRANCH  19  20
HETATM   20  C22 UNL     1       2.110   2.842  10.655  1.00  0.00     0.064 C 
BRANCH  20  21
HETATM   21  N6  UNL     1       3.477   2.559  10.501  1.00  0.00    -0.340 N 
HETATM   22  C23 UNL     1       4.614   3.363  10.623  1.00  0.00     0.231 C 
HETATM   23  O5  UNL     1       4.524   4.576  10.900  1.00  0.00    -0.272 OA
ATOM     24  H6  UNL     1       3.677   1.589  10.256  1.00  0.00     0.167 HD
BRANCH  22  25
HETATM   25  C24 UNL     1       6.000   2.852  10.438  1.00  0.00     0.060 C 
HETATM   26  C25 UNL     1       6.341   2.640   8.973  1.00  0.00     0.047 C 
HETATM   27  C26 UNL     1       7.866   2.499   9.094  1.00  0.00     0.096 C 
HETATM   28  C27 UNL     1       8.171   3.789   9.864  1.00  0.00     0.032 C 
HETATM   29  N8  UNL     1       8.237   1.399   9.904  1.00  0.00    -0.350 N 
HETATM   30  C28 UNL     1       7.055   3.819  10.893  1.00  0.00     0.008 C 
HETATM   31  C29 UNL     1       7.662   3.428  12.225  1.00  0.00     0.022 C 
HETATM   32  C30 UNL     1       8.220   2.025  12.193  1.00  0.00     0.113 C 
HETATM   33  N7  UNL     1       7.636   1.268  11.117  1.00  0.00    -0.234 NA
HETATM   34  C31 UNL     1       6.214   1.519  11.117  1.00  0.00     0.133 C 
ATOM     35  H8  UNL     1       8.934   0.725   9.588  1.00  0.00     0.174 HD
ENDBRANCH  22  25
ENDBRANCH  20  21
ENDBRANCH  19  20
ENDBRANCH  18  19
ENDBRANCH  17  18
ENDBRANCH  16  17
ENDBRANCH  14  16
BRANCH   1  36
HETATM   36  N3  UNL     1       4.616  -5.236  17.453  1.00  0.00    -0.325 N 
HETATM   37  C7  UNL     1       4.137  -6.447  16.980  1.00  0.00     0.245 C 
HETATM   38  O2  UNL     1       3.643  -6.697  15.862  1.00  0.00    -0.271 OA
ATOM     39  H3  UNL     1       4.986  -5.224  18.404  1.00  0.00     0.169 HD
BRANCH  37  40
HETATM   40  C6  UNL     1       4.203  -7.640  17.902  1.00  0.00     0.181 C 
HETATM   41  N2  UNL     1       5.232  -8.565  17.550  1.00  0.00    -0.321 N 
HETATM   42  C2  UNL     1       6.622  -8.394  17.758  1.00  0.00     0.318 C 
HETATM   43  C3  UNL     1       4.640  -9.753  16.926  1.00  0.00     0.129 C 
HETATM   44  N1  UNL     1       7.556  -9.387  17.363  1.00  0.00    -0.347 N 
HETATM   45  O1  UNL     1       7.002  -7.314  18.311  1.00  0.00    -0.247 OA
HETATM   46  C1  UNL     1       8.958  -9.183  17.588  1.00  0.00     0.151 C 
ATOM     47  H1  UNL     1       7.230 -10.246  16.919  1.00  0.00     0.163 HD
HETATM   48  C4  UNL     1       3.186  -9.736  17.316  1.00  0.00     0.022 C 
HETATM   49  C5  UNL     1       2.891  -8.357  17.816  1.00  0.00     0.037 C 
ENDBRANCH  37  40
ENDBRANCH   1  36
TORSDOF 9
ENDMDL
MODEL 5
REMARK VINA RESULT: -10.088586280      0.663      1.249
REMARK  9 active torsions:
REMARK  status: ('A' for Active; 'I' for Inactive)
REMARK       I    between atoms: N1_2  and  C2_4 
REMARK       I    between atoms: C2_4  and  N2_6 
REMARK    1  A    between atoms: C6_10  and  C7_11 
REMARK       I    between atoms: C7_11  and  N3_13 
REMARK    2  A    between atoms: N3_13  and  C8_15 
REMARK       I    between atoms: N4_25  and  C17_26 
REMARK       I    between atoms: C17_26  and  N5_28 
REMARK    3  A    between atoms: N5_28  and  C18_30 
REMARK    4  A    between atoms: C18_30  and  C19_31 
REMARK    5  A    between atoms: C19_31  and  C20_32 
REMARK    6  A    between atoms: C20_32  and  C21_33 
REMARK    7  A    between atoms: C21_33  and  C22_34 
REMARK    8  A    between atoms: C22_34  and  N6_35 
REMARK       I    between atoms: N6_35  and  C23_37 
REMARK    9  A    between atoms: C23_37  and  C24_39 
ROOT
HETATM    1  C8  UNL     1       6.345   1.465  12.519  1.00  0.00     0.035 A 
HETATM    2  C9  UNL     1       7.224   1.362  13.620  1.00  0.00     0.032 A 
HETATM    3  C10 UNL     1       7.075   0.340  14.511  1.00  0.00     0.033 A 
HETATM    4  C11 UNL     1       6.097  -0.621  14.396  1.00  0.00     0.052 A 
HETATM    5  C12 UNL     1       5.231  -0.537  13.329  1.00  0.00     0.039 A 
HETATM    6  C13 UNL     1       5.374   0.512  12.407  1.00  0.00     0.047 A 
HETATM    7  C14 UNL     1       4.185  -1.545  13.218  1.00  0.00     0.163 C 
HETATM    8  O3  UNL     1       3.465  -1.504  12.175  1.00  0.00    -0.292 OA
HETATM    9  C15 UNL     1       3.972  -2.565  14.270  1.00  0.00     0.104 C 
HETATM   10  C16 UNL     1       4.535  -2.083  15.567  1.00  0.00     0.142 C 
HETATM   11  N4  UNL     1       5.923  -1.681  15.295  1.00  0.00    -0.299 N 
HETATM   12  C17 UNL     1       7.024  -2.340  15.852  1.00  0.00     0.322 C 
HETATM   13  O4  UNL     1       6.721  -3.103  16.852  1.00  0.00    -0.247 OA
HETATM   14  N5  UNL     1       8.369  -2.289  15.481  1.00  0.00    -0.343 N 
ATOM     15  H5  UNL     1       8.612  -1.693  14.690  1.00  0.00     0.164 HD
ENDROOT
BRANCH  14  16
HETATM   16  C18 UNL     1       9.454  -3.014  16.127  1.00  0.00     0.124 C 
BRANCH  16  17
HETATM   17  C19 UNL     1      10.027  -4.016  15.199  1.00  0.00     0.020 C 
BRANCH  17  18
HETATM   18  C20 UNL     1       9.358  -5.406  15.417  1.00  0.00     0.007 C 
BRANCH  18  19
HETATM   19  C21 UNL     1       9.772  -5.951  16.733  1.00  0.00     0.044 C 
BRANCH  19  20
HETATM   20  C22 UNL     1       8.837  -6.759  17.528  1.00  0.00     0.064 C 
BRANCH  20  21
HETATM   21  N6  UNL     1       7.474  -6.841  17.204  1.00  0.00    -0.340 N 
HETATM   22  C23 UNL     1       6.323  -6.510  17.926  1.00  0.00     0.231 C 
HETATM   23  O5  UNL     1       6.393  -6.066  19.089  1.00  0.00    -0.272 OA
ATOM     24  H6  UNL     1       7.288  -7.210  16.270  1.00  0.00     0.167 HD
BRANCH  22  25
HETATM   25  C24 UNL     1       4.945  -6.656  17.380  1.00  0.00     0.060 C 
HETATM   26  C25 UNL     1       4.729  -5.807  16.139  1.00  0.00     0.047 C 
HETATM   27  C26 UNL     1       3.428  -6.446  15.629  1.00  0.00     0.096 C 
HETATM   28  C27 UNL     1       3.872  -7.912  15.594  1.00  0.00     0.032 C 
HETATM   29  N8  UNL     1       2.372  -6.322  16.563  1.00  0.00    -0.350 N 
HETATM   30  C28 UNL     1       4.643  -8.045  16.896  1.00  0.00     0.008 C 
HETATM   31  C29 UNL     1       3.764  -8.815  17.860  1.00  0.00     0.022 C 
HETATM   32  C30 UNL     1       2.482  -8.076  18.159  1.00  0.00     0.113 C 
HETATM   33  N7  UNL     1       2.617  -6.676  17.854  1.00  0.00    -0.234 NA
HETATM   34  C31 UNL     1       3.888  -6.227  18.371  1.00  0.00     0.133 C 
ATOM     35  H8  UNL     1       1.455  -5.979  16.278  1.00  0.00     0.174 HD
ENDBRANCH  22  25
ENDBRANCH  20  21
ENDBRANCH  19  20
ENDBRANCH  18  19
ENDBRANCH  17  18
ENDBRANCH  16  17
ENDBRANCH  14  16
BRANCH   1  36
HETATM   36  N3  UNL     1       6.521   2.543  11.618  1.00  0.00    -0.325 N 
HETATM   37  C7  UNL     1       7.269   2.514  10.452  1.00  0.00     0.245 C 
HETATM   38  O2  UNL     1       7.921   1.562   9.978  1.00  0.00    -0.271 OA
ATOM     39  H3  UNL     1       6.053   3.420  11.847  1.00  0.00     0.169 HD
BRANCH  37  40
HETATM   40  C6  UNL     1       7.329   3.772   9.621  1.00  0.00     0.181 C 
HETATM   41  N2  UNL     1       6.277   3.861   8.660  1.00  0.00    -0.321 N 
HETATM   42  C2  UNL     1       4.920   4.163   8.925  1.00  0.00     0.318 C 
HETATM   43  C3  UNL     1       6.806   3.589   7.319  1.00  0.00     0.129 C 
HETATM   44  N1  UNL     1       3.959   4.222   7.883  1.00  0.00    -0.347 N 
HETATM   45  O1  UNL     1       4.594   4.379  10.135  1.00  0.00    -0.247 OA
HETATM   46  C1  UNL     1       2.590   4.531   8.185  1.00  0.00     0.151 C 
ATOM     47  H1  UNL     1       4.240   4.044   6.918  1.00  0.00     0.163 HD
HETATM   48  C4  UNL     1       8.295   3.780   7.422  1.00  0.00     0.022 C 
HETATM   49  C5  UNL     1       8.630   3.769   8.881  1.00  0.00     0.037 C 
ENDBRANCH  37  40
ENDBRANCH   1  36
TORSDOF 9
ENDMDL
