MODEL 1
REMARK VINA RESULT: -8.439251978      0.000      0.000
REMARK  12 active torsions:
REMARK  status: ('A' for Active; 'I' for Inactive)
REMARK    1  A    between atoms: C7_9  and  N2_10 
REMARK    2  A    between atoms: N2_10  and  C8_12 
REMARK    3  A    between atoms: C8_12  and  C9_14 
REMARK    4  A    between atoms: C11_17  and  N3_18 
REMARK       I    between atoms: N3_18  and  C12_20 
REMARK    5  A    between atoms: C12_20  and  C13_22 
REMARK       I    between atoms: C13_22  and  N4_24 
REMARK    6  A    between atoms: N4_24  and  C14_26 
REMARK    7  A    between atoms: C14_26  and  C15_27 
REMARK    8  A    between atoms: C15_27  and  N5_28 
REMARK    9  A    between atoms: N6_31  and  C18_32 
REMARK   10  A    between atoms: C18_32  and  C19_33 
REMARK   11  A    between atoms: C19_33  and  C20_34 
REMARK   12  A    between atoms: C20_34  and  O3_35 
ROOT
HETATM    1  C9  UNL     1       5.151  -7.988  17.449  1.00  0.00     0.093 A 
HETATM    2  C10 UNL     1       4.787  -6.745  16.990  1.00  0.00     0.070 A 
HETATM    3  S2  UNL     1       3.303  -6.386  16.073  1.00  0.00    -0.048 SA
HETATM    4  C11 UNL     1       5.760  -5.789  17.348  1.00  0.00     0.071 A 
HETATM    5  C25 UNL     1       6.702  -6.523  18.032  1.00  0.00     0.121 A 
HETATM    6  N7  UNL     1       6.318  -7.835  18.081  1.00  0.00    -0.355 N 
HETATM    7  C26 UNL     1       7.091  -8.852  18.727  1.00  0.00     0.156 C 
ENDROOT
BRANCH   4   8
HETATM    8  N3  UNL     1       5.692  -4.409  17.031  1.00  0.00    -0.316 N 
HETATM    9  C12 UNL     1       6.450  -3.851  16.000  1.00  0.00     0.314 C 
HETATM   10  O1  UNL     1       7.234  -4.505  15.288  1.00  0.00    -0.262 OA
ATOM     11  H3  UNL     1       5.071  -3.807  17.572  1.00  0.00     0.169 HD
BRANCH   9  12
HETATM   12  C13 UNL     1       6.308  -2.395  15.747  1.00  0.00     0.309 C 
HETATM   13  O2  UNL     1       5.462  -1.715  16.410  1.00  0.00    -0.262 OA
HETATM   14  N4  UNL     1       7.128  -1.789  14.763  1.00  0.00    -0.351 N 
ATOM     15  H4  UNL     1       7.808  -2.331  14.230  1.00  0.00     0.162 HD
BRANCH  14  16
HETATM   16  C14 UNL     1       6.955  -0.344  14.543  1.00  0.00     0.151 C 
BRANCH  16  17
HETATM   17  C15 UNL     1       6.418  -0.080  13.169  1.00  0.00     0.257 C 
BRANCH  17  18
HETATM   18  N5  UNL     1       5.016   0.164  13.086  1.00  0.00    -0.061 N 
HETATM   19  C16 UNL     1       4.381   0.651  14.267  1.00  0.00     0.265 C 
HETATM   20  C17 UNL     1       2.868   0.394  14.115  1.00  0.00     0.265 C 
HETATM   21  N6  UNL     1       2.496   0.428  12.714  1.00  0.00    -0.062 N 
HETATM   22  C21 UNL     1       2.988  -0.750  12.070  1.00  0.00     0.265 C 
HETATM   23  C23 UNL     1       3.289   1.537  12.112  1.00  0.00     0.265 C 
HETATM   24  C22 UNL     1       4.344  -1.084  12.707  1.00  0.00     0.265 C 
HETATM   25  C24 UNL     1       4.732   1.107  12.007  1.00  0.00     0.265 C 
BRANCH  21  26
HETATM   26  C18 UNL     1       1.135   0.756  12.509  1.00  0.00     0.239 C 
BRANCH  26  27
HETATM   27  C19 UNL     1       0.699   1.300  11.212  1.00  0.00     0.054 C 
BRANCH  27  28
HETATM   28  C20 UNL     1       0.012   2.634  11.264  1.00  0.00     0.165 C 
BRANCH  28  29
HETATM   29  O3  UNL     1       0.459   3.394  12.351  1.00  0.00    -0.401 OA
ATOM     30  H3  UNL     1       0.104   4.275  12.326  1.00  0.00     0.209 HD
ENDBRANCH  28  29
ENDBRANCH  27  28
ENDBRANCH  26  27
ENDBRANCH  21  26
ENDBRANCH  17  18
ENDBRANCH  16  17
ENDBRANCH  14  16
ENDBRANCH   9  12
ENDBRANCH   4   8
BRANCH   1  31
HETATM   31  C8  UNL     1       4.378  -9.233  17.264  1.00  0.00     0.144 C 
HETATM   32  S1  UNL     1       2.948  -9.428  17.999  1.00  0.00    -0.057 SA
BRANCH  31  33
HETATM   33  N2  UNL     1       4.898 -10.228  16.434  1.00  0.00    -0.179 N 
ATOM     34  H2  UNL     1       5.798 -10.646  16.672  1.00  0.00     0.185 HD
BRANCH  33  35
HETATM   35  C7  UNL     1       4.292 -10.631  15.396  1.00  0.00     0.684 A 
HETATM   36  N1  UNL     1       3.598 -11.761  15.258  1.00  0.00    -0.189 N 
HETATM   37  C6  UNL     1       3.088 -11.847  13.995  1.00  0.00     0.082 A 
ATOM     38  H1  UNL     1       3.468 -12.460  15.990  1.00  0.00     0.184 HD
HETATM   39  C4  UNL     1       2.315 -12.786  13.347  1.00  0.00    -0.032 A 
HETATM   40  C27 UNL     1       3.507 -10.701  13.357  1.00  0.00     0.077 A 
HETATM   41  C3  UNL     1       1.953 -12.572  12.023  1.00  0.00     0.015 A 
HETATM   42  C5  UNL     1       1.891 -14.004  14.085  1.00  0.00     0.050 C 
HETATM   43  C2  UNL     1       2.350 -11.442  11.347  1.00  0.00    -0.059 A 
HETATM   44  C1  UNL     1       1.949 -11.227   9.918  1.00  0.00     0.048 C 
HETATM   45  C28 UNL     1       3.121 -10.534  12.039  1.00  0.00     0.039 A 
HETATM   46  N8  UNL     1       4.233  -9.983  14.224  1.00  0.00    -0.189 N 
ATOM     47  H8  UNL     1       4.673  -9.085  14.024  1.00  0.00     0.184 HD
ENDBRANCH  33  35
ENDBRANCH  31  33
ENDBRANCH   1  31
TORSDOF 12
ENDMDL
MODEL 2
REMARK VINA RESULT: -8.344206088      3.233      5.172
REMARK  12 active torsions:
REMARK  status: ('A' for Active; 'I' for Inactive)
REMARK    1  A    between atoms: C7_9  and  N2_10 
REMARK    2  A    between atoms: N2_10  and  C8_12 
REMARK    3  A    between atoms: C8_12  and  C9_14 
REMARK    4  A    between atoms: C11_17  and  N3_18 
REMARK       I    between atoms: N3_18  and  C12_20 
REMARK    5  A    between atoms: C12_20  and  C13_22 
REMARK       I    between atoms: C13_22  and  N4_24 
REMARK    6  A    between atoms: N4_24  and  C14_26 
REMARK    7  A    between atoms: C14_26  and  C15_27 
REMARK    8  A    between atoms: C15_27  and  N5_28 
REMARK    9  A    between atoms: N6_31  and  C18_32 
REMARK   10  A    between atoms: C18_32  and  C19_33 
REMARK   11  A    between atoms: C19_33  and  C20_34 
REMARK   12  A    between atoms: C20_34  and  O3_35 
ROOT
HETATM    1  C9  UNL     1       5.433  -4.919  17.047  1.00  0.00     0.093 A 
HETATM    2  C10 UNL     1       4.426  -4.039  16.734  1.00  0.00     0.070 A 
HETATM    3  S2  UNL     1       2.692  -4.315  17.039  1.00  0.00    -0.048 SA
HETATM    4  C11 UNL     1       4.960  -2.881  16.133  1.00  0.00     0.071 A 
HETATM    5  C25 UNL     1       6.314  -3.121  16.109  1.00  0.00     0.121 A 
HETATM    6  N7  UNL     1       6.575  -4.345  16.660  1.00  0.00    -0.355 N 
HETATM    7  C26 UNL     1       7.897  -4.882  16.781  1.00  0.00     0.156 C 
ENDROOT
BRANCH   4   8
HETATM    8  N3  UNL     1       4.193  -1.773  15.690  1.00  0.00    -0.316 N 
HETATM    9  C12 UNL     1       3.684  -1.701  14.392  1.00  0.00     0.314 C 
HETATM   10  O1  UNL     1       3.857  -2.584  13.532  1.00  0.00    -0.262 OA
ATOM     11  H3  UNL     1       4.009  -1.007  16.338  1.00  0.00     0.169 HD
BRANCH   9  12
HETATM   12  C13 UNL     1       2.894  -0.498  14.024  1.00  0.00     0.309 C 
HETATM   13  O2  UNL     1       3.434   0.652  14.069  1.00  0.00    -0.262 OA
HETATM   14  N4  UNL     1       1.544  -0.663  13.629  1.00  0.00    -0.351 N 
ATOM     15  H4  UNL     1       1.108  -1.585  13.591  1.00  0.00     0.162 HD
BRANCH  14  16
HETATM   16  C14 UNL     1       0.796   0.554  13.274  1.00  0.00     0.151 C 
BRANCH  16  17
HETATM   17  C15 UNL     1       0.571   0.623  11.794  1.00  0.00     0.257 C 
BRANCH  17  18
HETATM   18  N5  UNL     1       1.297   1.636  11.101  1.00  0.00    -0.061 N 
HETATM   19  C16 UNL     1       2.679   1.382  10.861  1.00  0.00     0.265 C 
HETATM   20  C17 UNL     1       3.350   2.736  10.555  1.00  0.00     0.265 C 
HETATM   21  N6  UNL     1       2.394   3.635   9.935  1.00  0.00    -0.062 N 
HETATM   22  C21 UNL     1       1.454   4.069  10.921  1.00  0.00     0.265 C 
HETATM   23  C23 UNL     1       1.591   2.792   9.005  1.00  0.00     0.265 C 
HETATM   24  C22 UNL     1       1.204   2.885  11.865  1.00  0.00     0.265 C 
HETATM   25  C24 UNL     1       0.666   1.914   9.813  1.00  0.00     0.265 C 
BRANCH  21  26
HETATM   26  C18 UNL     1       3.005   4.633   9.141  1.00  0.00     0.239 C 
BRANCH  26  27
HETATM   27  C19 UNL     1       2.555   4.845   7.754  1.00  0.00     0.054 C 
BRANCH  27  28
HETATM   28  C20 UNL     1       1.936   6.182   7.468  1.00  0.00     0.165 C 
BRANCH  28  29
HETATM   29  O3  UNL     1       1.131   6.607   8.531  1.00  0.00    -0.401 OA
ATOM     30  H3  UNL     1       0.208   6.522   8.321  1.00  0.00     0.209 HD
ENDBRANCH  28  29
ENDBRANCH  27  28
ENDBRANCH  26  27
ENDBRANCH  21  26
ENDBRANCH  17  18
ENDBRANCH  16  17
ENDBRANCH  14  16
ENDBRANCH   9  12
ENDBRANCH   4   8
BRANCH   1  31
HETATM   31  C8  UNL     1       5.254  -6.237  17.689  1.00  0.00     0.144 C 
HETATM   32  S1  UNL     1       5.179  -6.362  19.302  1.00  0.00    -0.057 SA
BRANCH  31  33
HETATM   33  N2  UNL     1       5.138  -7.367  16.877  1.00  0.00    -0.179 N 
ATOM     34  H2  UNL     1       4.395  -7.397  16.179  1.00  0.00     0.185 HD
BRANCH  33  35
HETATM   35  C7  UNL     1       5.923  -8.358  16.978  1.00  0.00     0.684 A 
HETATM   36  N1  UNL     1       5.632  -9.640  16.754  1.00  0.00    -0.189 N 
HETATM   37  C6  UNL     1       6.736 -10.415  16.963  1.00  0.00     0.082 A 
ATOM     38  H1  UNL     1       4.718  -9.991  16.468  1.00  0.00     0.184 HD
HETATM   39  C4  UNL     1       6.975 -11.769  16.872  1.00  0.00    -0.032 A 
HETATM   40  C27 UNL     1       7.730  -9.537  17.331  1.00  0.00     0.077 A 
HETATM   41  C3  UNL     1       8.243 -12.257  17.159  1.00  0.00     0.015 A 
HETATM   42  C5  UNL     1       5.865 -12.671  16.469  1.00  0.00     0.050 C 
HETATM   43  C2  UNL     1       9.266 -11.415  17.531  1.00  0.00    -0.059 A 
HETATM   44  C1  UNL     1      10.629 -11.959  17.836  1.00  0.00     0.048 C 
HETATM   45  C28 UNL     1       8.976 -10.071  17.607  1.00  0.00     0.039 A 
HETATM   46  N8  UNL     1       7.214  -8.299  17.334  1.00  0.00    -0.189 N 
ATOM     47  H8  UNL     1       7.723  -7.448  17.569  1.00  0.00     0.184 HD
ENDBRANCH  33  35
ENDBRANCH  31  33
ENDBRANCH   1  31
TORSDOF 12
ENDMDL
MODEL 3
REMARK VINA RESULT: -8.307081911      1.727      2.604
REMARK  12 active torsions:
REMARK  status: ('A' for Active; 'I' for Inactive)
REMARK    1  A    between atoms: C7_9  and  N2_10 
REMARK    2  A    between atoms: N2_10  and  C8_12 
REMARK    3  A    between atoms: C8_12  and  C9_14 
REMARK    4  A    between atoms: C11_17  and  N3_18 
REMARK       I    between atoms: N3_18  and  C12_20 
REMARK    5  A    between atoms: C12_20  and  C13_22 
REMARK       I    between atoms: C13_22  and  N4_24 
REMARK    6  A    between atoms: N4_24  and  C14_26 
REMARK    7  A    between atoms: C14_26  and  C15_27 
REMARK    8  A    between atoms: C15_27  and  N5_28 
REMARK    9  A    between atoms: N6_31  and  C18_32 
REMARK   10  A    between atoms: C18_32  and  C19_33 
REMARK   11  A    between atoms: C19_33  and  C20_34 
REMARK   12  A    between atoms: C20_34  and  O3_35 
ROOT
HETATM    1  C9  UNL     1       4.794  -7.296  17.158  1.00  0.00     0.093 A 
HETATM    2  C10 UNL     1       4.119  -6.205  16.666  1.00  0.00     0.070 A 
HETATM    3  S2  UNL     1       2.561  -6.268  15.805  1.00  0.00    -0.048 SA
HETATM    4  C11 UNL     1       4.836  -5.024  16.941  1.00  0.00     0.071 A 
HETATM    5  C25 UNL     1       5.953  -5.469  17.610  1.00  0.00     0.121 A 
HETATM    6  N7  UNL     1       5.908  -6.830  17.729  1.00  0.00    -0.355 N 
HETATM    7  C26 UNL     1       6.930  -7.593  18.379  1.00  0.00     0.156 C 
ENDROOT
BRANCH   4   8
HETATM    8  N3  UNL     1       4.418  -3.720  16.573  1.00  0.00    -0.316 N 
HETATM    9  C12 UNL     1       5.027  -3.016  15.532  1.00  0.00     0.314 C 
HETATM   10  O1  UNL     1       5.970  -3.465  14.854  1.00  0.00    -0.262 OA
ATOM     11  H3  UNL     1       3.650  -3.283  17.083  1.00  0.00     0.169 HD
BRANCH   9  12
HETATM   12  C13 UNL     1       4.517  -1.656  15.224  1.00  0.00     0.309 C 
HETATM   13  O2  UNL     1       5.238  -0.638  15.470  1.00  0.00    -0.262 OA
HETATM   14  N4  UNL     1       3.224  -1.523  14.659  1.00  0.00    -0.351 N 
ATOM     15  H4  UNL     1       2.643  -2.338  14.460  1.00  0.00     0.162 HD
BRANCH  14  16
HETATM   16  C14 UNL     1       2.756  -0.158  14.370  1.00  0.00     0.151 C 
BRANCH  16  17
HETATM   17  C15 UNL     1       1.518  -0.192  13.528  1.00  0.00     0.257 C 
BRANCH  17  18
HETATM   18  N5  UNL     1       1.482   0.724  12.437  1.00  0.00    -0.061 N 
HETATM   19  C16 UNL     1       2.691   1.424  12.150  1.00  0.00     0.265 C 
HETATM   20  C17 UNL     1       2.320   2.654  11.298  1.00  0.00     0.265 C 
HETATM   21  N6  UNL     1       1.137   2.373  10.507  1.00  0.00    -0.062 N 
HETATM   22  C21 UNL     1      -0.005   2.345  11.368  1.00  0.00     0.265 C 
HETATM   23  C23 UNL     1       1.286   0.965  10.045  1.00  0.00     0.265 C 
HETATM   24  C22 UNL     1       0.444   1.727  12.699  1.00  0.00     0.265 C 
HETATM   25  C24 UNL     1       1.066   0.037  11.216  1.00  0.00     0.265 C 
BRANCH  21  26
HETATM   26  C18 UNL     1       1.047   3.167   9.341  1.00  0.00     0.239 C 
BRANCH  26  27
HETATM   27  C19 UNL     1       1.870   4.382   9.214  1.00  0.00     0.054 C 
BRANCH  27  28
HETATM   28  C20 UNL     1       2.664   4.501   7.946  1.00  0.00     0.165 C 
BRANCH  28  29
HETATM   29  O3  UNL     1       2.434   3.412   7.098  1.00  0.00    -0.401 OA
ATOM     30  H3  UNL     1       3.159   3.283   6.498  1.00  0.00     0.209 HD
ENDBRANCH  28  29
ENDBRANCH  27  28
ENDBRANCH  26  27
ENDBRANCH  21  26
ENDBRANCH  17  18
ENDBRANCH  16  17
ENDBRANCH  14  16
ENDBRANCH   9  12
ENDBRANCH   4   8
BRANCH   1  31
HETATM   31  C8  UNL     1       4.346  -8.701  17.058  1.00  0.00     0.144 C 
HETATM   32  S1  UNL     1       3.122  -9.239  17.970  1.00  0.00    -0.057 SA
BRANCH  31  33
HETATM   33  N2  UNL     1       4.992  -9.547  16.154  1.00  0.00    -0.179 N 
ATOM     34  H2  UNL     1       6.002  -9.667  16.228  1.00  0.00     0.185 HD
BRANCH  33  35
HETATM   35  C7  UNL     1       4.366 -10.171  15.244  1.00  0.00     0.684 A 
HETATM   36  N1  UNL     1       3.811 -11.380  15.335  1.00  0.00    -0.189 N 
HETATM   37  C6  UNL     1       3.223 -11.716  14.150  1.00  0.00     0.082 A 
ATOM     38  H1  UNL     1       3.824 -11.968  16.168  1.00  0.00     0.184 HD
HETATM   39  C4  UNL     1       2.529 -12.825  13.717  1.00  0.00    -0.032 A 
HETATM   40  C27 UNL     1       3.448 -10.643  13.317  1.00  0.00     0.077 A 
HETATM   41  C3  UNL     1       2.047 -12.860  12.415  1.00  0.00     0.015 A 
HETATM   42  C5  UNL     1       2.316 -13.955  14.658  1.00  0.00     0.050 C 
HETATM   43  C2  UNL     1       2.248 -11.810  11.549  1.00  0.00    -0.059 A 
HETATM   44  C1  UNL     1       1.720 -11.865  10.147  1.00  0.00     0.048 C 
HETATM   45  C28 UNL     1       2.948 -10.726  12.030  1.00  0.00     0.039 A 
HETATM   46  N8  UNL     1       4.140  -9.722  14.001  1.00  0.00    -0.189 N 
ATOM     47  H8  UNL     1       4.448  -8.822  13.634  1.00  0.00     0.184 HD
ENDBRANCH  33  35
ENDBRANCH  31  33
ENDBRANCH   1  31
TORSDOF 12
ENDMDL
MODEL 4
REMARK VINA RESULT: -8.296901195      3.498      5.397
REMARK  12 active torsions:
REMARK  status: ('A' for Active; 'I' for Inactive)
REMARK    1  A    between atoms: C7_9  and  N2_10 
REMARK    2  A    between atoms: N2_10  and  C8_12 
REMARK    3  A    between atoms: C8_12  and  C9_14 
REMARK    4  A    between atoms: C11_17  and  N3_18 
REMARK       I    between atoms: N3_18  and  C12_20 
REMARK    5  A    between atoms: C12_20  and  C13_22 
REMARK       I    between atoms: C13_22  and  N4_24 
REMARK    6  A    between atoms: N4_24  and  C14_26 
REMARK    7  A    between atoms: C14_26  and  C15_27 
REMARK    8  A    between atoms: C15_27  and  N5_28 
REMARK    9  A    between atoms: N6_31  and  C18_32 
REMARK   10  A    between atoms: C18_32  and  C19_33 
REMARK   11  A    between atoms: C19_33  and  C20_34 
REMARK   12  A    between atoms: C20_34  and  O3_35 
ROOT
HETATM    1  C9  UNL     1       7.856  -4.977  16.775  1.00  0.00     0.093 A 
HETATM    2  C10 UNL     1       6.749  -4.390  16.210  1.00  0.00     0.070 A 
HETATM    3  S2  UNL     1       5.134  -5.135  16.110  1.00  0.00    -0.048 SA
HETATM    4  C11 UNL     1       7.074  -3.110  15.718  1.00  0.00     0.071 A 
HETATM    5  C25 UNL     1       8.410  -2.975  16.017  1.00  0.00     0.121 A 
HETATM    6  N7  UNL     1       8.858  -4.102  16.649  1.00  0.00    -0.355 N 
HETATM    7  C26 UNL     1      10.210  -4.267  17.089  1.00  0.00     0.156 C 
ENDROOT
BRANCH   4   8
HETATM    8  N3  UNL     1       6.160  -2.236  15.077  1.00  0.00    -0.316 N 
HETATM    9  C12 UNL     1       5.301  -1.407  15.800  1.00  0.00     0.314 C 
HETATM   10  O1  UNL     1       5.264  -1.368  17.044  1.00  0.00    -0.262 OA
ATOM     11  H3  UNL     1       6.131  -2.211  14.057  1.00  0.00     0.169 HD
BRANCH   9  12
HETATM   12  C13 UNL     1       4.380  -0.528  15.036  1.00  0.00     0.309 C 
HETATM   13  O2  UNL     1       4.843   0.468  14.394  1.00  0.00    -0.262 OA
HETATM   14  N4  UNL     1       2.994  -0.821  15.039  1.00  0.00    -0.351 N 
ATOM     15  H4  UNL     1       2.620  -1.620  15.553  1.00  0.00     0.162 HD
BRANCH  14  16
HETATM   16  C14 UNL     1       2.117   0.076  14.270  1.00  0.00     0.151 C 
BRANCH  16  17
HETATM   17  C15 UNL     1       1.897  -0.459  12.888  1.00  0.00     0.257 C 
BRANCH  17  18
HETATM   18  N5  UNL     1       1.621   0.513  11.882  1.00  0.00    -0.061 N 
HETATM   19  C16 UNL     1       0.999   0.040  10.689  1.00  0.00     0.265 C 
HETATM   20  C17 UNL     1       1.225   1.105   9.598  1.00  0.00     0.265 C 
HETATM   21  N6  UNL     1       1.321   2.421  10.200  1.00  0.00    -0.062 N 
HETATM   22  C21 UNL     1       2.572   2.532  10.884  1.00  0.00     0.265 C 
HETATM   23  C23 UNL     1       0.303   2.443  11.288  1.00  0.00     0.265 C 
HETATM   24  C22 UNL     1       2.881   1.159  11.495  1.00  0.00     0.265 C 
HETATM   25  C24 UNL     1       0.784   1.578  12.428  1.00  0.00     0.265 C 
BRANCH  21  26
HETATM   26  C18 UNL     1       0.976   3.465   9.311  1.00  0.00     0.239 C 
BRANCH  26  27
HETATM   27  C19 UNL     1       1.957   4.519   9.000  1.00  0.00     0.054 C 
BRANCH  27  28
HETATM   28  C20 UNL     1       2.345   4.640   7.555  1.00  0.00     0.165 C 
BRANCH  28  29
HETATM   29  O3  UNL     1       2.401   3.385   6.936  1.00  0.00    -0.401 OA
ATOM     30  H3  UNL     1       2.607   3.465   6.012  1.00  0.00     0.209 HD
ENDBRANCH  28  29
ENDBRANCH  27  28
ENDBRANCH  26  27
ENDBRANCH  21  26
ENDBRANCH  17  18
ENDBRANCH  16  17
ENDBRANCH  14  16
ENDBRANCH   9  12
ENDBRANCH   4   8
BRANCH   1  31
HETATM   31  C8  UNL     1       7.897  -6.317  17.395  1.00  0.00     0.144 C 
HETATM   32  S1  UNL     1       6.914  -6.682  18.629  1.00  0.00    -0.057 SA
BRANCH  31  33
HETATM   33  N2  UNL     1       8.789  -7.264  16.886  1.00  0.00    -0.179 N 
ATOM     34  H2  UNL     1       9.516  -6.956  16.239  1.00  0.00     0.185 HD
BRANCH  33  35
HETATM   35  C7  UNL     1       8.727  -8.491  17.200  1.00  0.00     0.684 A 
HETATM   36  N1  UNL     1       7.807  -9.374  16.811  1.00  0.00    -0.189 N 
HETATM   37  C6  UNL     1       8.075 -10.598  17.352  1.00  0.00     0.082 A 
ATOM     38  H1  UNL     1       7.019  -9.166  16.199  1.00  0.00     0.184 HD
HETATM   39  C4  UNL     1       7.455 -11.826  17.272  1.00  0.00    -0.032 A 
HETATM   40  C27 UNL     1       9.217 -10.422  18.101  1.00  0.00     0.077 A 
HETATM   41  C3  UNL     1       7.992 -12.906  17.960  1.00  0.00     0.015 A 
HETATM   42  C5  UNL     1       6.226 -11.960  16.448  1.00  0.00     0.050 C 
HETATM   43  C2  UNL     1       9.131 -12.775  18.721  1.00  0.00    -0.059 A 
HETATM   44  C1  UNL     1       9.698 -13.951  19.457  1.00  0.00     0.048 C 
HETATM   45  C28 UNL     1       9.713 -11.527  18.769  1.00  0.00     0.039 A 
HETATM   46  N8  UNL     1       9.591  -9.139  17.994  1.00  0.00    -0.189 N 
ATOM     47  H8  UNL     1      10.405  -8.723  18.445  1.00  0.00     0.184 HD
ENDBRANCH  33  35
ENDBRANCH  31  33
ENDBRANCH   1  31
TORSDOF 12
ENDMDL
MODEL 5
REMARK VINA RESULT: -8.283553573      2.260      3.806
REMARK  12 active torsions:
REMARK  status: ('A' for Active; 'I' for Inactive)
REMARK    1  A    between atoms: C7_9  and  N2_10 
REMARK    2  A    between atoms: N2_10  and  C8_12 
REMARK    3  A    between atoms: C8_12  and  C9_14 
REMARK    4  A    between atoms: C11_17  and  N3_18 
REMARK       I    between atoms: N3_18  and  C12_20 
REMARK    5  A    between atoms: C12_20  and  C13_22 
REMARK       I    between atoms: C13_22  and  N4_24 
REMARK    6  A    between atoms: N4_24  and  C14_26 
REMARK    7  A    between atoms: C14_26  and  C15_27 
REMARK    8  A    between atoms: C15_27  and  N5_28 
REMARK    9  A    between atoms: N6_31  and  C18_32 
REMARK   10  A    between atoms: C18_32  and  C19_33 
REMARK   11  A    between atoms: C19_33  and  C20_34 
REMARK   12  A    between atoms: C20_34  and  O3_35 
ROOT
HETATM    1  C9  UNL     1       5.401  -4.832  16.861  1.00  0.00     0.093 A 
HETATM    2  C10 UNL     1       5.158  -3.575  16.362  1.00  0.00     0.070 A 
HETATM    3  S2  UNL     1       3.571  -2.981  15.811  1.00  0.00    -0.048 SA
HETATM    4  C11 UNL     1       6.346  -2.818  16.348  1.00  0.00     0.071 A 
HETATM    5  C25 UNL     1       7.289  -3.682  16.857  1.00  0.00     0.121 A 
HETATM    6  N7  UNL     1       6.702  -4.880  17.157  1.00  0.00    -0.355 N 
HETATM    7  C26 UNL     1       7.424  -5.988  17.706  1.00  0.00     0.156 C 
ENDROOT
BRANCH   4   8
HETATM    8  N3  UNL     1       6.446  -1.478  15.896  1.00  0.00    -0.316 N 
HETATM    9  C12 UNL     1       6.518  -1.162  14.538  1.00  0.00     0.314 C 
HETATM   10  O1  UNL     1       6.502  -2.012  13.629  1.00  0.00    -0.262 OA
ATOM     11  H3  UNL     1       6.466  -0.724  16.582  1.00  0.00     0.169 HD
BRANCH   9  12
HETATM   12  C13 UNL     1       6.621   0.272  14.166  1.00  0.00     0.309 C 
HETATM   13  O2  UNL     1       5.904   1.135  14.764  1.00  0.00    -0.262 OA
HETATM   14  N4  UNL     1       7.525   0.649  13.142  1.00  0.00    -0.351 N 
ATOM     15  H4  UNL     1       8.102  -0.041  12.661  1.00  0.00     0.162 HD
BRANCH  14  16
HETATM   16  C14 UNL     1       7.596   2.079  12.803  1.00  0.00     0.151 C 
BRANCH  16  17
HETATM   17  C15 UNL     1       7.239   2.299  11.365  1.00  0.00     0.257 C 
BRANCH  17  18
HETATM   18  N5  UNL     1       5.893   2.696  11.112  1.00  0.00    -0.061 N 
HETATM   19  C16 UNL     1       4.875   1.754  11.443  1.00  0.00     0.265 C 
HETATM   20  C17 UNL     1       3.602   2.164  10.678  1.00  0.00     0.265 C 
HETATM   21  N6  UNL     1       3.582   3.600  10.478  1.00  0.00    -0.062 N 
HETATM   22  C21 UNL     1       4.558   3.948   9.491  1.00  0.00     0.265 C 
HETATM   23  C23 UNL     1       4.108   4.191  11.740  1.00  0.00     0.265 C 
HETATM   24  C22 UNL     1       5.756   3.010   9.685  1.00  0.00     0.265 C 
HETATM   25  C24 UNL     1       5.595   3.940  11.819  1.00  0.00     0.265 C 
BRANCH  21  26
HETATM   26  C18 UNL     1       2.278   4.120  10.308  1.00  0.00     0.239 C 
BRANCH  26  27
HETATM   27  C19 UNL     1       1.177   3.226   9.914  1.00  0.00     0.054 C 
BRANCH  27  28
HETATM   28  C20 UNL     1       0.183   2.903  10.992  1.00  0.00     0.165 C 
BRANCH  28  29
HETATM   29  O3  UNL     1       0.546   3.488  12.210  1.00  0.00    -0.401 OA
ATOM     30  H3  UNL     1       0.693   2.829  12.879  1.00  0.00     0.209 HD
ENDBRANCH  28  29
ENDBRANCH  27  28
ENDBRANCH  26  27
ENDBRANCH  21  26
ENDBRANCH  17  18
ENDBRANCH  16  17
ENDBRANCH  14  16
ENDBRANCH   9  12
ENDBRANCH   4   8
BRANCH   1  31
HETATM   31  C8  UNL     1       4.394  -5.901  17.026  1.00  0.00     0.144 C 
HETATM   32  S1  UNL     1       3.530  -6.011  18.391  1.00  0.00    -0.057 SA
BRANCH  31  33
HETATM   33  N2  UNL     1       4.197  -6.803  15.978  1.00  0.00    -0.179 N 
ATOM     34  H2  UNL     1       3.840  -6.453  15.089  1.00  0.00     0.185 HD
BRANCH  33  35
HETATM   35  C7  UNL     1       4.445  -8.041  16.094  1.00  0.00     0.684 A 
HETATM   36  N1  UNL     1       3.858  -9.043  15.437  1.00  0.00    -0.189 N 
HETATM   37  C6  UNL     1       4.394 -10.236  15.827  1.00  0.00     0.082 A 
ATOM     38  H1  UNL     1       3.117  -8.933  14.745  1.00  0.00     0.184 HD
HETATM   39  C4  UNL     1       4.154 -11.545  15.468  1.00  0.00    -0.032 A 
HETATM   40  C27 UNL     1       5.348  -9.915  16.766  1.00  0.00     0.077 A 
HETATM   41  C3  UNL     1       4.890 -12.559  16.066  1.00  0.00     0.015 A 
HETATM   42  C5  UNL     1       3.112 -11.834  14.450  1.00  0.00     0.050 C 
HETATM   43  C2  UNL     1       5.853 -12.284  17.009  1.00  0.00    -0.059 A 
HETATM   44  C1  UNL     1       6.639 -13.393  17.644  1.00  0.00     0.048 C 
HETATM   45  C28 UNL     1       6.054 -10.961  17.333  1.00  0.00     0.039 A 
HETATM   46  N8  UNL     1       5.360  -8.582  16.910  1.00  0.00    -0.189 N 
ATOM     47  H8  UNL     1       5.969  -8.063  17.541  1.00  0.00     0.184 HD
ENDBRANCH  33  35
ENDBRANCH  31  33
ENDBRANCH   1  31
TORSDOF 12
ENDMDL
