MODEL 1
REMARK VINA RESULT: -10.522286431      0.000      0.000
REMARK  10 active torsions:
REMARK  status: ('A' for Active; 'I' for Inactive)
REMARK    1  A    between atoms: C7_7  and  N1_8 
REMARK       I    between atoms: N1_8  and  C8_10 
REMARK    2  A    between atoms: C8_10  and  C9_12 
REMARK    3  A    between atoms: C13_16  and  C14_17 
REMARK    4  A    between atoms: C14_17  and  N4_25 
REMARK    5  A    between atoms: N2_18  and  C15_20 
REMARK    6  A    between atoms: C15_20  and  C16_21 
REMARK    7  A    between atoms: C16_21  and  N3_22 
REMARK    8  A    between atoms: C22_29  and  C23_30 
REMARK       I    between atoms: C23_30  and  N5_32 
REMARK    9  A    between atoms: N5_32  and  C24_34 
REMARK   10  A    between atoms: C24_34  and  C25_35 
REMARK       I    between atoms: N6_38  and  C28_39 
ROOT
HETATM    1  C14 UNL     1       5.644  -5.158  16.676  1.00  0.00     0.081 C 
HETATM    2  N2  UNL     1       5.066  -5.839  17.528  1.00  0.00    -0.378 N 
ATOM      3  H2  UNL     1       4.073  -5.770  17.301  1.00  0.00     0.160 HD
ENDROOT
BRANCH   1   4
HETATM    4  C13 UNL     1       4.723  -4.504  15.657  1.00  0.00     0.066 C 
HETATM    5  C9  UNL     1       4.330  -3.113  16.084  1.00  0.00     0.089 C 
HETATM    6  C10 UNL     1       3.188  -3.341  17.071  1.00  0.00     0.015 C 
HETATM    7  C11 UNL     1       2.396  -4.404  16.388  1.00  0.00     0.002 C 
HETATM    8  C12 UNL     1       3.372  -5.230  15.632  1.00  0.00     0.013 C 
BRANCH   5   9
HETATM    9  C8  UNL     1       3.872  -2.297  14.916  1.00  0.00     0.227 C 
HETATM   10  N1  UNL     1       3.030  -1.196  15.045  1.00  0.00    -0.327 N 
ATOM     11  H1  UNL     1       2.725  -0.948  15.986  1.00  0.00     0.169 HD
HETATM   12  O1  UNL     1       4.298  -2.673  13.805  1.00  0.00    -0.273 OA
BRANCH  10  13
HETATM   13  C7  UNL     1       2.568  -0.401  13.989  1.00  0.00     0.035 A 
HETATM   14  C6  UNL     1       3.187   0.735  13.494  1.00  0.00     0.039 A 
HETATM   15  C5  UNL     1       2.667   1.505  12.460  1.00  0.00    -0.029 A 
HETATM   16  C4  UNL     1       3.357   2.706  11.965  1.00  0.00     0.043 C 
HETATM   17  C33 UNL     1       1.475   1.112  11.901  1.00  0.00     0.034 A 
HETATM   18  C3  UNL     1       3.194   2.764  10.464  1.00  0.00     0.029 C 
HETATM   19  C2  UNL     1       1.725   2.911  10.149  1.00  0.00     0.078 C 
HETATM   20  C1  UNL     1       1.334   4.324  10.557  1.00  0.00     0.032 C 
HETATM   21  N9  UNL     1       0.948   1.907  10.844  1.00  0.00    -0.385 N 
ATOM     22  H9  UNL     1      -0.022   1.763  10.564  1.00  0.00     0.160 HD
HETATM   23  C32 UNL     1       0.836  -0.010  12.369  1.00  0.00     0.032 A 
HETATM   24  C31 UNL     1       1.360  -0.758  13.388  1.00  0.00     0.032 A 
ENDBRANCH  10  13
ENDBRANCH   5   9
ENDBRANCH   1   4
BRANCH   1  25
HETATM   25  N4  UNL     1       7.052  -4.959  16.613  1.00  0.00    -0.357 N 
HETATM   26  C19 UNL     1       8.019  -5.145  17.675  1.00  0.00     0.125 C 
HETATM   27  C20 UNL     1       9.359  -5.434  16.997  1.00  0.00     0.022 C 
HETATM   28  C21 UNL     1       9.060  -5.405  15.537  1.00  0.00     0.037 C 
HETATM   29  C22 UNL     1       7.817  -4.535  15.484  1.00  0.00     0.177 C 
BRANCH  29  30
HETATM   30  C23 UNL     1       8.144  -3.094  15.444  1.00  0.00     0.240 C 
HETATM   31  O2  UNL     1       9.156  -2.666  16.084  1.00  0.00    -0.271 OA
HETATM   32  N5  UNL     1       7.394  -2.137  14.730  1.00  0.00    -0.359 N 
ATOM     33  H5  UNL     1       6.579  -2.477  14.220  1.00  0.00     0.162 HD
BRANCH  32  34
HETATM   34  C24 UNL     1       7.668  -0.723  14.651  1.00  0.00     0.127 C 
BRANCH  34  35
HETATM   35  C25 UNL     1       6.575   0.084  14.003  1.00  0.00     0.006 C 
HETATM   36  C26 UNL     1       6.727   1.558  14.248  1.00  0.00     0.026 C 
HETATM   37  C27 UNL     1       7.604   2.275  13.283  1.00  0.00     0.126 C 
HETATM   38  N6  UNL     1       7.540   1.765  11.943  1.00  0.00    -0.356 N 
HETATM   39  C28 UNL     1       7.361   2.601  10.824  1.00  0.00     0.183 C 
HETATM   40  C29 UNL     1       7.665   0.342  11.760  1.00  0.00     0.126 C 
HETATM   41  N7  UNL     1       7.844   3.815  10.792  1.00  0.00    -0.374 N 
HETATM   42  N8  UNL     1       6.646   2.169   9.669  1.00  0.00    -0.064 NA
ATOM     43  H72 UNL     1       8.356   4.124  11.618  1.00  0.00     0.158 HD
ATOM     44  H71 UNL     1       7.715   4.420   9.981  1.00  0.00     0.158 HD
HETATM   45  C30 UNL     1       6.532  -0.280  12.545  1.00  0.00     0.026 C 
ENDBRANCH  34  35
ENDBRANCH  32  34
ENDBRANCH  29  30
ENDBRANCH   1  25
BRANCH   2  46
HETATM   46  C15 UNL     1       5.126  -6.638  18.628  1.00  0.00     0.140 C 
BRANCH  46  47
HETATM   47  C16 UNL     1       5.044  -8.101  18.178  1.00  0.00     0.135 C 
BRANCH  47  48
HETATM   48  N3  UNL     1       3.934  -8.357  17.339  1.00  0.00    -0.419 N 
HETATM   49  C17 UNL     1       4.177  -9.127  16.169  1.00  0.00     0.142 C 
HETATM   50  C18 UNL     1       2.666  -8.514  17.956  1.00  0.00     0.142 C 
ENDBRANCH  47  48
ENDBRANCH  46  47
ENDBRANCH   2  46
TORSDOF 10
ENDMDL
MODEL 2
REMARK VINA RESULT: -9.852979289      3.264      9.645
REMARK  10 active torsions:
REMARK  status: ('A' for Active; 'I' for Inactive)
REMARK    1  A    between atoms: C7_7  and  N1_8 
REMARK       I    between atoms: N1_8  and  C8_10 
REMARK    2  A    between atoms: C8_10  and  C9_12 
REMARK    3  A    between atoms: C13_16  and  C14_17 
REMARK    4  A    between atoms: C14_17  and  N4_25 
REMARK    5  A    between atoms: N2_18  and  C15_20 
REMARK    6  A    between atoms: C15_20  and  C16_21 
REMARK    7  A    between atoms: C16_21  and  N3_22 
REMARK    8  A    between atoms: C22_29  and  C23_30 
REMARK       I    between atoms: C23_30  and  N5_32 
REMARK    9  A    between atoms: N5_32  and  C24_34 
REMARK   10  A    between atoms: C24_34  and  C25_35 
REMARK       I    between atoms: N6_38  and  C28_39 
ROOT
HETATM    1  C14 UNL     1       4.214   0.972  11.716  1.00  0.00     0.081 C 
HETATM    2  N2  UNL     1       5.106   1.712  11.292  1.00  0.00    -0.378 N 
ATOM      3  H2  UNL     1       5.972   1.348  11.691  1.00  0.00     0.160 HD
ENDROOT
BRANCH   1   4
HETATM    4  C13 UNL     1       4.700  -0.147  12.625  1.00  0.00     0.066 C 
HETATM    5  C9  UNL     1       3.778  -0.339  13.802  1.00  0.00     0.089 C 
HETATM    6  C10 UNL     1       4.213   0.743  14.788  1.00  0.00     0.015 C 
HETATM    7  C11 UNL     1       5.699   0.664  14.699  1.00  0.00     0.002 C 
HETATM    8  C12 UNL     1       6.013   0.263  13.303  1.00  0.00     0.013 C 
BRANCH   5   9
HETATM    9  C8  UNL     1       3.939  -1.701  14.400  1.00  0.00     0.227 C 
HETATM   10  N1  UNL     1       3.935  -1.932  15.773  1.00  0.00    -0.327 N 
ATOM     11  H1  UNL     1       3.813  -1.123  16.382  1.00  0.00     0.169 HD
HETATM   12  O1  UNL     1       4.078  -2.630  13.577  1.00  0.00    -0.273 OA
BRANCH  10  13
HETATM   13  C7  UNL     1       4.084  -3.182  16.385  1.00  0.00     0.035 A 
HETATM   14  C6  UNL     1       5.276  -3.865  16.560  1.00  0.00     0.039 A 
HETATM   15  C5  UNL     1       5.362  -5.121  17.151  1.00  0.00    -0.029 A 
HETATM   16  C4  UNL     1       6.649  -5.813  17.316  1.00  0.00     0.043 C 
HETATM   17  C33 UNL     1       4.200  -5.710  17.584  1.00  0.00     0.034 A 
HETATM   18  C3  UNL     1       6.640  -6.527  18.647  1.00  0.00     0.029 C 
HETATM   19  C2  UNL     1       5.551  -7.573  18.620  1.00  0.00     0.078 C 
HETATM   20  C1  UNL     1       6.032  -8.672  17.684  1.00  0.00     0.032 C 
HETATM   21  N9  UNL     1       4.297  -6.997  18.186  1.00  0.00    -0.385 N 
ATOM     22  H9  UNL     1       3.443  -7.538  18.318  1.00  0.00     0.160 HD
HETATM   23  C32 UNL     1       3.001  -5.058  17.427  1.00  0.00     0.032 A 
HETATM   24  C31 UNL     1       2.931  -3.822  16.842  1.00  0.00     0.032 A 
ENDBRANCH  10  13
ENDBRANCH   5   9
ENDBRANCH   1   4
BRANCH   1  25
HETATM   25  N4  UNL     1       2.830   1.115  11.421  1.00  0.00    -0.357 N 
HETATM   26  C19 UNL     1       2.016   0.270  10.572  1.00  0.00     0.125 C 
HETATM   27  C20 UNL     1       0.574   0.419  11.061  1.00  0.00     0.022 C 
HETATM   28  C21 UNL     1       0.661   1.368  12.209  1.00  0.00     0.037 C 
HETATM   29  C22 UNL     1       1.940   2.124  11.902  1.00  0.00     0.177 C 
BRANCH  29  30
HETATM   30  C23 UNL     1       1.713   3.259  10.982  1.00  0.00     0.240 C 
HETATM   31  O2  UNL     1       0.854   4.146  11.287  1.00  0.00    -0.271 OA
HETATM   32  N5  UNL     1       2.398   3.432   9.762  1.00  0.00    -0.359 N 
ATOM     33  H5  UNL     1       3.084   2.719   9.513  1.00  0.00     0.162 HD
BRANCH  32  34
HETATM   34  C24 UNL     1       2.222   4.520   8.831  1.00  0.00     0.127 C 
BRANCH  34  35
HETATM   35  C25 UNL     1       1.805   4.090   7.450  1.00  0.00     0.006 C 
HETATM   36  C26 UNL     1       0.634   4.878   6.933  1.00  0.00     0.026 C 
HETATM   37  C27 UNL     1       0.978   6.156   6.254  1.00  0.00     0.126 C 
HETATM   38  N6  UNL     1       2.208   6.115   5.515  1.00  0.00    -0.356 N 
HETATM   39  C28 UNL     1       2.307   6.575   4.188  1.00  0.00     0.183 C 
HETATM   40  C29 UNL     1       3.369   5.579   6.176  1.00  0.00     0.126 C 
HETATM   41  N7  UNL     1       1.586   7.574   3.753  1.00  0.00    -0.374 N 
HETATM   42  N8  UNL     1       3.199   5.976   3.249  1.00  0.00    -0.064 NA
ATOM     43  H72 UNL     1       0.949   8.002   4.425  1.00  0.00     0.158 HD
ATOM     44  H71 UNL     1       1.659   7.907   2.792  1.00  0.00     0.158 HD
HETATM   45  C30 UNL     1       3.014   4.160   6.559  1.00  0.00     0.026 C 
ENDBRANCH  34  35
ENDBRANCH  32  34
ENDBRANCH  29  30
ENDBRANCH   1  25
BRANCH   2  46
HETATM   46  C15 UNL     1       5.481   2.784  10.542  1.00  0.00     0.140 C 
BRANCH  46  47
HETATM   47  C16 UNL     1       7.006   2.766  10.384  1.00  0.00     0.135 C 
BRANCH  47  48
HETATM   48  N3  UNL     1       7.473   1.626   9.688  1.00  0.00    -0.419 N 
HETATM   49  C17 UNL     1       7.492   1.703   8.268  1.00  0.00     0.142 C 
HETATM   50  C18 UNL     1       8.494   0.854  10.300  1.00  0.00     0.142 C 
ENDBRANCH  47  48
ENDBRANCH  46  47
ENDBRANCH   2  46
TORSDOF 10
ENDMDL
MODEL 3
REMARK VINA RESULT: -9.805170351      3.213      9.397
REMARK  10 active torsions:
REMARK  status: ('A' for Active; 'I' for Inactive)
REMARK    1  A    between atoms: C7_7  and  N1_8 
REMARK       I    between atoms: N1_8  and  C8_10 
REMARK    2  A    between atoms: C8_10  and  C9_12 
REMARK    3  A    between atoms: C13_16  and  C14_17 
REMARK    4  A    between atoms: C14_17  and  N4_25 
REMARK    5  A    between atoms: N2_18  and  C15_20 
REMARK    6  A    between atoms: C15_20  and  C16_21 
REMARK    7  A    between atoms: C16_21  and  N3_22 
REMARK    8  A    between atoms: C22_29  and  C23_30 
REMARK       I    between atoms: C23_30  and  N5_32 
REMARK    9  A    between atoms: N5_32  and  C24_34 
REMARK   10  A    between atoms: C24_34  and  C25_35 
REMARK       I    between atoms: N6_38  and  C28_39 
ROOT
HETATM    1  C14 UNL     1       5.100   1.992  12.188  1.00  0.00     0.081 C 
HETATM    2  N2  UNL     1       4.070   2.670  12.252  1.00  0.00    -0.378 N 
ATOM      3  H2  UNL     1       3.490   2.213  12.956  1.00  0.00     0.160 HD
ENDROOT
BRANCH   1   4
HETATM    4  C13 UNL     1       5.128   0.795  13.126  1.00  0.00     0.066 C 
HETATM    5  C9  UNL     1       5.135  -0.504  12.360  1.00  0.00     0.089 C 
HETATM    6  C10 UNL     1       3.667  -0.728  12.008  1.00  0.00     0.015 C 
HETATM    7  C11 UNL     1       2.982  -0.358  13.280  1.00  0.00     0.002 C 
HETATM    8  C12 UNL     1       3.809   0.708  13.903  1.00  0.00     0.013 C 
BRANCH   5   9
HETATM    9  C8  UNL     1       5.660  -1.626  13.200  1.00  0.00     0.227 C 
HETATM   10  N1  UNL     1       6.269  -1.427  14.436  1.00  0.00    -0.327 N 
ATOM     11  H1  UNL     1       6.349  -0.466  14.768  1.00  0.00     0.169 HD
HETATM   12  O1  UNL     1       5.514  -2.766  12.714  1.00  0.00    -0.273 OA
BRANCH  10  13
HETATM   13  C7  UNL     1       6.780  -2.437  15.260  1.00  0.00     0.035 A 
HETATM   14  C6  UNL     1       8.095  -2.870  15.296  1.00  0.00     0.039 A 
HETATM   15  C5  UNL     1       8.542  -3.900  16.115  1.00  0.00    -0.029 A 
HETATM   16  C4  UNL     1       9.949  -4.331  16.121  1.00  0.00     0.043 C 
HETATM   17  C33 UNL     1       7.627  -4.517  16.933  1.00  0.00     0.034 A 
HETATM   18  C3  UNL     1      10.340  -4.663  17.542  1.00  0.00     0.029 C 
HETATM   19  C2  UNL     1       9.497  -5.826  18.009  1.00  0.00     0.078 C 
HETATM   20  C1  UNL     1       9.996  -7.051  17.257  1.00  0.00     0.032 C 
HETATM   21  N9  UNL     1       8.093  -5.572  17.767  1.00  0.00    -0.385 N 
ATOM     22  H9  UNL     1       7.406  -6.177  18.216  1.00  0.00     0.160 HD
HETATM   23  C32 UNL     1       6.315  -4.110  16.922  1.00  0.00     0.032 A 
HETATM   24  C31 UNL     1       5.889  -3.094  16.109  1.00  0.00     0.032 A 
ENDBRANCH  10  13
ENDBRANCH   5   9
ENDBRANCH   1   4
BRANCH   1  25
HETATM   25  N4  UNL     1       6.195   2.257  11.319  1.00  0.00    -0.357 N 
HETATM   26  C19 UNL     1       7.519   2.720  11.682  1.00  0.00     0.125 C 
HETATM   27  C20 UNL     1       8.464   2.250  10.575  1.00  0.00     0.022 C 
HETATM   28  C21 UNL     1       7.589   1.511   9.619  1.00  0.00     0.037 C 
HETATM   29  C22 UNL     1       6.227   2.120   9.898  1.00  0.00     0.177 C 
BRANCH  29  30
HETATM   30  C23 UNL     1       6.005   3.366   9.136  1.00  0.00     0.240 C 
HETATM   31  O2  UNL     1       5.835   4.460   9.763  1.00  0.00    -0.271 OA
HETATM   32  N5  UNL     1       5.967   3.432   7.727  1.00  0.00    -0.359 N 
ATOM     33  H5  UNL     1       6.098   2.556   7.222  1.00  0.00     0.162 HD
BRANCH  32  34
HETATM   34  C24 UNL     1       5.760   4.618   6.933  1.00  0.00     0.127 C 
BRANCH  34  35
HETATM   35  C25 UNL     1       4.466   4.628   6.163  1.00  0.00     0.006 C 
HETATM   36  C26 UNL     1       3.292   4.222   7.008  1.00  0.00     0.026 C 
HETATM   37  C27 UNL     1       2.653   5.323   7.778  1.00  0.00     0.126 C 
HETATM   38  N6  UNL     1       2.658   6.590   7.104  1.00  0.00    -0.356 N 
HETATM   39  C28 UNL     1       1.504   7.387   6.984  1.00  0.00     0.183 C 
HETATM   40  C29 UNL     1       3.902   7.042   6.536  1.00  0.00     0.126 C 
HETATM   41  N7  UNL     1       0.585   7.407   7.914  1.00  0.00    -0.374 N 
HETATM   42  N8  UNL     1       1.275   8.214   5.845  1.00  0.00    -0.064 NA
ATOM     43  H72 UNL     1       0.749   6.816   8.729  1.00  0.00     0.158 HD
ATOM     44  H71 UNL     1      -0.251   7.984   7.827  1.00  0.00     0.158 HD
HETATM   45  C30 UNL     1       4.312   5.986   5.536  1.00  0.00     0.026 C 
ENDBRANCH  34  35
ENDBRANCH  32  34
ENDBRANCH  29  30
ENDBRANCH   1  25
BRANCH   2  46
HETATM   46  C15 UNL     1       3.344   3.739  11.828  1.00  0.00     0.140 C 
BRANCH  46  47
HETATM   47  C16 UNL     1       2.403   3.281  10.707  1.00  0.00     0.135 C 
BRANCH  47  48
HETATM   48  N3  UNL     1       1.551   2.223  11.103  1.00  0.00    -0.419 N 
HETATM   49  C17 UNL     1       0.544   2.531  12.057  1.00  0.00     0.142 C 
HETATM   50  C18 UNL     1       1.233   1.237  10.132  1.00  0.00     0.142 C 
ENDBRANCH  47  48
ENDBRANCH  46  47
ENDBRANCH   2  46
TORSDOF 10
ENDMDL
MODEL 4
REMARK VINA RESULT: -9.796022706      0.679      1.123
REMARK  10 active torsions:
REMARK  status: ('A' for Active; 'I' for Inactive)
REMARK    1  A    between atoms: C7_7  and  N1_8 
REMARK       I    between atoms: N1_8  and  C8_10 
REMARK    2  A    between atoms: C8_10  and  C9_12 
REMARK    3  A    between atoms: C13_16  and  C14_17 
REMARK    4  A    between atoms: C14_17  and  N4_25 
REMARK    5  A    between atoms: N2_18  and  C15_20 
REMARK    6  A    between atoms: C15_20  and  C16_21 
REMARK    7  A    between atoms: C16_21  and  N3_22 
REMARK    8  A    between atoms: C22_29  and  C23_30 
REMARK       I    between atoms: C23_30  and  N5_32 
REMARK    9  A    between atoms: N5_32  and  C24_34 
REMARK   10  A    between atoms: C24_34  and  C25_35 
REMARK       I    between atoms: N6_38  and  C28_39 
ROOT
HETATM    1  C14 UNL     1       5.629  -5.168  16.436  1.00  0.00     0.081 C 
HETATM    2  N2  UNL     1       5.192  -6.069  17.158  1.00  0.00    -0.378 N 
ATOM      3  H2  UNL     1       4.203  -6.149  16.919  1.00  0.00     0.160 HD
ENDROOT
BRANCH   1   4
HETATM    4  C13 UNL     1       4.597  -4.542  15.510  1.00  0.00     0.066 C 
HETATM    5  C9  UNL     1       4.215  -3.158  15.967  1.00  0.00     0.089 C 
HETATM    6  C10 UNL     1       3.181  -3.406  17.062  1.00  0.00     0.015 C 
HETATM    7  C11 UNL     1       2.352  -4.492  16.466  1.00  0.00     0.002 C 
HETATM    8  C12 UNL     1       3.268  -5.299  15.620  1.00  0.00     0.013 C 
BRANCH   5   9
HETATM    9  C8  UNL     1       3.625  -2.360  14.846  1.00  0.00     0.227 C 
HETATM   10  N1  UNL     1       2.931  -1.171  15.047  1.00  0.00    -0.327 N 
ATOM     11  H1  UNL     1       2.833  -0.842  16.007  1.00  0.00     0.169 HD
HETATM   12  O1  UNL     1       3.798  -2.838  13.706  1.00  0.00    -0.273 OA
BRANCH  10  13
HETATM   13  C7  UNL     1       2.356  -0.388  14.038  1.00  0.00     0.035 A 
HETATM   14  C6  UNL     1       2.972   0.655  13.367  1.00  0.00     0.039 A 
HETATM   15  C5  UNL     1       2.343   1.419  12.391  1.00  0.00    -0.029 A 
HETATM   16  C4  UNL     1       3.034   2.520  11.703  1.00  0.00     0.043 C 
HETATM   17  C33 UNL     1       1.040   1.119  12.079  1.00  0.00     0.034 A 
HETATM   18  C3  UNL     1       2.607   2.520  10.254  1.00  0.00     0.029 C 
HETATM   19  C2  UNL     1       1.124   2.794  10.193  1.00  0.00     0.078 C 
HETATM   20  C1  UNL     1       0.939   4.257  10.568  1.00  0.00     0.032 C 
HETATM   21  N9  UNL     1       0.401   1.908  11.080  1.00  0.00    -0.385 N 
ATOM     22  H9  UNL     1      -0.612   1.846  10.985  1.00  0.00     0.160 HD
HETATM   23  C32 UNL     1       0.400   0.090  12.726  1.00  0.00     0.032 A 
HETATM   24  C31 UNL     1       1.033  -0.655  13.685  1.00  0.00     0.032 A 
ENDBRANCH  10  13
ENDBRANCH   5   9
ENDBRANCH   1   4
BRANCH   1  25
HETATM   25  N4  UNL     1       6.975  -4.705  16.439  1.00  0.00    -0.357 N 
HETATM   26  C19 UNL     1       7.904  -4.698  17.550  1.00  0.00     0.125 C 
HETATM   27  C20 UNL     1       9.308  -4.731  16.944  1.00  0.00     0.022 C 
HETATM   28  C21 UNL     1       9.083  -4.767  15.470  1.00  0.00     0.037 C 
HETATM   29  C22 UNL     1       7.703  -4.150  15.343  1.00  0.00     0.177 C 
BRANCH  29  30
HETATM   30  C23 UNL     1       7.752  -2.673  15.298  1.00  0.00     0.240 C 
HETATM   31  O2  UNL     1       8.651  -2.058  15.955  1.00  0.00    -0.271 OA
HETATM   32  N5  UNL     1       6.851  -1.878  14.560  1.00  0.00    -0.359 N 
ATOM     33  H5  UNL     1       6.126  -2.369  14.035  1.00  0.00     0.162 HD
BRANCH  32  34
HETATM   34  C24 UNL     1       6.855  -0.438  14.474  1.00  0.00     0.127 C 
BRANCH  34  35
HETATM   35  C25 UNL     1       7.787   0.117  13.430  1.00  0.00     0.006 C 
HETATM   36  C26 UNL     1       7.256  -0.058  12.035  1.00  0.00     0.026 C 
HETATM   37  C27 UNL     1       6.346   1.020  11.562  1.00  0.00     0.126 C 
HETATM   38  N6  UNL     1       6.682   2.327  12.052  1.00  0.00    -0.356 N 
HETATM   39  C28 UNL     1       6.777   3.449  11.208  1.00  0.00     0.183 C 
HETATM   40  C29 UNL     1       6.925   2.471  13.464  1.00  0.00     0.126 C 
HETATM   41  N7  UNL     1       6.022   3.576  10.149  1.00  0.00    -0.374 N 
HETATM   42  N8  UNL     1       7.701   4.505  11.462  1.00  0.00    -0.064 NA
ATOM     43  H72 UNL     1       5.361   2.821   9.967  1.00  0.00     0.158 HD
ATOM     44  H71 UNL     1       6.092   4.389   9.537  1.00  0.00     0.158 HD
HETATM   45  C30 UNL     1       8.079   1.549  13.785  1.00  0.00     0.026 C 
ENDBRANCH  34  35
ENDBRANCH  32  34
ENDBRANCH  29  30
ENDBRANCH   1  25
BRANCH   2  46
HETATM   46  C15 UNL     1       5.405  -7.007  18.120  1.00  0.00     0.140 C 
BRANCH  46  47
HETATM   47  C16 UNL     1       5.283  -8.398  17.488  1.00  0.00     0.135 C 
BRANCH  47  48
HETATM   48  N3  UNL     1       4.005  -8.638  16.930  1.00  0.00    -0.419 N 
HETATM   49  C17 UNL     1       3.963  -9.347  15.699  1.00  0.00     0.142 C 
HETATM   50  C18 UNL     1       2.925  -8.850  17.827  1.00  0.00     0.142 C 
ENDBRANCH  47  48
ENDBRANCH  46  47
ENDBRANCH   2  46
TORSDOF 10
ENDMDL
MODEL 5
REMARK VINA RESULT: -9.790461810      1.672      8.781
REMARK  10 active torsions:
REMARK  status: ('A' for Active; 'I' for Inactive)
REMARK    1  A    between atoms: C7_7  and  N1_8 
REMARK       I    between atoms: N1_8  and  C8_10 
REMARK    2  A    between atoms: C8_10  and  C9_12 
REMARK    3  A    between atoms: C13_16  and  C14_17 
REMARK    4  A    between atoms: C14_17  and  N4_25 
REMARK    5  A    between atoms: N2_18  and  C15_20 
REMARK    6  A    between atoms: C15_20  and  C16_21 
REMARK    7  A    between atoms: C16_21  and  N3_22 
REMARK    8  A    between atoms: C22_29  and  C23_30 
REMARK       I    between atoms: C23_30  and  N5_32 
REMARK    9  A    between atoms: N5_32  and  C24_34 
REMARK   10  A    between atoms: C24_34  and  C25_35 
REMARK       I    between atoms: N6_38  and  C28_39 
ROOT
HETATM    1  C14 UNL     1       4.256   1.852  12.766  1.00  0.00     0.081 C 
HETATM    2  N2  UNL     1       3.409   2.659  12.372  1.00  0.00    -0.378 N 
ATOM      3  H2  UNL     1       2.537   2.375  12.819  1.00  0.00     0.160 HD
ENDROOT
BRANCH   1   4
HETATM    4  C13 UNL     1       3.724   0.792  13.718  1.00  0.00     0.066 C 
HETATM    5  C9  UNL     1       4.059  -0.597  13.238  1.00  0.00     0.089 C 
HETATM    6  C10 UNL     1       2.982  -0.894  12.198  1.00  0.00     0.015 C 
HETATM    7  C11 UNL     1       1.755  -0.369  12.863  1.00  0.00     0.002 C 
HETATM    8  C12 UNL     1       2.191   0.785  13.690  1.00  0.00     0.013 C 
BRANCH   5   9
HETATM    9  C8  UNL     1       4.005  -1.586  14.360  1.00  0.00     0.227 C 
HETATM   10  N1  UNL     1       3.509  -2.878  14.208  1.00  0.00    -0.327 N 
ATOM     11  H1  UNL     1       3.174  -3.144  13.282  1.00  0.00     0.169 HD
HETATM   12  O1  UNL     1       4.440  -1.173  15.455  1.00  0.00    -0.273 OA
BRANCH  10  13
HETATM   13  C7  UNL     1       3.431  -3.841  15.222  1.00  0.00     0.035 A 
HETATM   14  C6  UNL     1       3.664  -5.198  15.074  1.00  0.00     0.039 A 
HETATM   15  C5  UNL     1       3.544  -6.116  16.111  1.00  0.00    -0.029 A 
HETATM   16  C4  UNL     1       3.799  -7.550  15.911  1.00  0.00     0.043 C 
HETATM   17  C33 UNL     1       3.177  -5.645  17.348  1.00  0.00     0.034 A 
HETATM   18  C3  UNL     1       4.498  -8.087  17.138  1.00  0.00     0.029 C 
HETATM   19  C2  UNL     1       3.567  -7.942  18.318  1.00  0.00     0.078 C 
HETATM   20  C1  UNL     1       2.458  -8.966  18.122  1.00  0.00     0.032 C 
HETATM   21  N9  UNL     1       3.054  -6.592  18.405  1.00  0.00    -0.385 N 
ATOM     22  H9  UNL     1       2.583  -6.306  19.262  1.00  0.00     0.160 HD
HETATM   23  C32 UNL     1       2.940  -4.304  17.528  1.00  0.00     0.032 A 
HETATM   24  C31 UNL     1       3.061  -3.412  16.497  1.00  0.00     0.032 A 
ENDBRANCH  10  13
ENDBRANCH   5   9
ENDBRANCH   1   4
BRANCH   1  25
HETATM   25  N4  UNL     1       5.627   1.860  12.384  1.00  0.00    -0.357 N 
HETATM   26  C19 UNL     1       6.172   2.025  11.052  1.00  0.00     0.125 C 
HETATM   27  C20 UNL     1       7.583   2.590  11.226  1.00  0.00     0.022 C 
HETATM   28  C21 UNL     1       7.757   2.726  12.701  1.00  0.00     0.037 C 
HETATM   29  C22 UNL     1       6.765   1.710  13.234  1.00  0.00     0.177 C 
BRANCH  29  30
HETATM   30  C23 UNL     1       7.336   0.348  13.295  1.00  0.00     0.240 C 
HETATM   31  O2  UNL     1       7.950  -0.117  12.282  1.00  0.00    -0.271 OA
HETATM   32  N5  UNL     1       7.247  -0.494  14.423  1.00  0.00    -0.359 N 
ATOM     33  H5  UNL     1       6.752  -0.125  15.235  1.00  0.00     0.162 HD
BRANCH  32  34
HETATM   34  C24 UNL     1       7.789  -1.825  14.540  1.00  0.00     0.127 C 
BRANCH  34  35
HETATM   35  C25 UNL     1       8.070  -2.256  15.955  1.00  0.00     0.006 C 
HETATM   36  C26 UNL     1       7.020  -3.188  16.491  1.00  0.00     0.026 C 
HETATM   37  C27 UNL     1       7.232  -4.628  16.182  1.00  0.00     0.126 C 
HETATM   38  N6  UNL     1       8.612  -5.025  16.159  1.00  0.00    -0.356 N 
HETATM   39  C28 UNL     1       9.083  -6.160  16.846  1.00  0.00     0.183 C 
HETATM   40  C29 UNL     1       9.529  -4.218  15.398  1.00  0.00     0.126 C 
HETATM   41  N7  UNL     1       8.340  -7.223  17.004  1.00  0.00    -0.374 N 
HETATM   42  N8  UNL     1      10.394  -6.210  17.406  1.00  0.00    -0.064 NA
ATOM     43  H72 UNL     1       7.402  -7.188  16.603  1.00  0.00     0.158 HD
ATOM     44  H71 UNL     1       8.681  -8.045  17.502  1.00  0.00     0.158 HD
HETATM   45  C30 UNL     1       9.459  -2.831  15.996  1.00  0.00     0.026 C 
ENDBRANCH  34  35
ENDBRANCH  32  34
ENDBRANCH  29  30
ENDBRANCH   1  25
BRANCH   2  46
HETATM   46  C15 UNL     1       3.089   3.749  11.622  1.00  0.00     0.140 C 
BRANCH  46  47
HETATM   47  C16 UNL     1       2.397   3.277  10.338  1.00  0.00     0.135 C 
BRANCH  47  48
HETATM   48  N3  UNL     1       1.343   2.366  10.585  1.00  0.00    -0.419 N 
HETATM   49  C17 UNL     1       0.127   2.908  11.083  1.00  0.00     0.142 C 
HETATM   50  C18 UNL     1       1.238   1.236   9.733  1.00  0.00     0.142 C 
ENDBRANCH  47  48
ENDBRANCH  46  47
ENDBRANCH   2  46
TORSDOF 10
ENDMDL
