MODEL 1
REMARK VINA RESULT: -8.659200439      0.000      0.000
REMARK  12 active torsions:
REMARK  status: ('A' for Active; 'I' for Inactive)
REMARK    1  A    between atoms: C2_2  and  C4_4 
REMARK    2  A    between atoms: C4_4  and  N1_5 
REMARK    3  A    between atoms: C4_4  and  C29_45 
REMARK       I    between atoms: N1_5  and  C5_7 
REMARK       I    between atoms: C5_7  and  N2_9 
REMARK    4  A    between atoms: C8_12  and  C9_13 
REMARK    5  A    between atoms: C9_13  and  S1_14 
REMARK    6  A    between atoms: S1_14  and  N3_17 
REMARK    7  A    between atoms: N3_17  and  C10_19 
REMARK    8  A    between atoms: N4_24  and  C15_25 
REMARK    9  A    between atoms: C15_25  and  O4_26 
REMARK   10  A    between atoms: C15_25  and  C16_28 
REMARK   11  A    between atoms: C16_28  and  N5_29 
REMARK   12  A    between atoms: C16_28  and  C17_33 
ROOT
HETATM    1  C10 UNL     1       4.094  -8.907  17.760  1.00  0.00     0.121 C 
HETATM    2  C11 UNL     1       3.605 -10.180  17.120  1.00  0.00     0.026 C 
HETATM    3  C12 UNL     1       4.294 -11.302  17.872  1.00  0.00     0.006 C 
HETATM    4  C13 UNL     1       3.433 -11.659  19.061  1.00  0.00     0.012 C 
HETATM    5  C14 UNL     1       5.620 -10.808  18.388  1.00  0.00     0.130 C 
HETATM    6  N4  UNL     1       6.240  -9.884  17.401  1.00  0.00    -0.356 N 
HETATM    7  C23 UNL     1       5.295  -8.998  16.785  1.00  0.00     0.118 C 
HETATM    8  C24 UNL     1       4.342  -9.759  15.861  1.00  0.00    -0.019 C 
HETATM    9  C25 UNL     1       3.544  -8.883  14.953  1.00  0.00     0.017 C 
HETATM   10  C26 UNL     1       5.007 -10.871  15.094  1.00  0.00     0.017 C 
ENDROOT
BRANCH   1  11
HETATM   11  N3  UNL     1       3.269  -7.727  17.546  1.00  0.00    -0.312 N 
ATOM     12  H3  UNL     1       2.332  -7.748  17.142  1.00  0.00     0.172 HD
BRANCH  11  13
HETATM   13  S1  UNL     1       4.069  -6.299  18.057  1.00  0.00     0.227 S 
HETATM   14  O2  UNL     1       5.059  -6.654  19.145  1.00  0.00    -0.206 OA
HETATM   15  O3  UNL     1       3.037  -5.425  18.771  1.00  0.00    -0.206 OA
BRANCH  13  16
HETATM   16  C9  UNL     1       4.778  -5.338  16.795  1.00  0.00     0.167 C 
BRANCH  16  17
HETATM   17  C8  UNL     1       4.565  -3.876  16.814  1.00  0.00     0.004 C 
HETATM   18  C7  UNL     1       5.717  -2.997  16.505  1.00  0.00     0.025 C 
HETATM   19  C6  UNL     1       5.209  -1.574  16.216  1.00  0.00     0.128 C 
HETATM   20  N2  UNL     1       4.297  -1.548  15.093  1.00  0.00    -0.334 N 
HETATM   21  C5  UNL     1       3.841  -0.345  14.531  1.00  0.00     0.319 C 
HETATM   22  C28 UNL     1       3.897  -2.879  14.610  1.00  0.00     0.128 C 
HETATM   23  N1  UNL     1       2.950  -0.251  13.442  1.00  0.00    -0.328 N 
HETATM   24  O1  UNL     1       4.277   0.735  15.060  1.00  0.00    -0.247 OA
ATOM     25  H1  UNL     1       2.592  -1.101  13.007  1.00  0.00     0.165 HD
HETATM   26  C27 UNL     1       3.390  -3.590  15.872  1.00  0.00     0.025 C 
BRANCH  23  27
HETATM   27  C4  UNL     1       2.542   1.034  12.941  1.00  0.00     0.190 C 
BRANCH  27  28
HETATM   28  C2  UNL     1       1.270   0.918  12.102  1.00  0.00     0.011 C 
HETATM   29  C1  UNL     1       0.409   2.137  12.271  1.00  0.00     0.012 C 
HETATM   30  C3  UNL     1       0.517  -0.340  12.465  1.00  0.00     0.012 C 
ENDBRANCH  27  28
BRANCH  27  31
HETATM   31  C29 UNL     1       3.568   1.653  12.068  1.00  0.00     0.197 C 
HETATM   32  O5  UNL     1       4.205   0.888  11.302  1.00  0.00    -0.646 OA
HETATM   33  O6  UNL     1       3.835   2.993  12.069  1.00  0.00    -0.646 OA
ENDBRANCH  27  31
ENDBRANCH  23  27
ENDBRANCH  16  17
ENDBRANCH  13  16
ENDBRANCH  11  13
ENDBRANCH   1  11
BRANCH   6  34
HETATM   34  C15 UNL     1       7.628  -9.984  17.196  1.00  0.00     0.145 C 
BRANCH  34  35
HETATM   35  O4  UNL     1       7.972 -10.933  16.374  1.00  0.00    -0.348 OA
ATOM     36  H4  UNL     1       8.911 -11.050  16.295  1.00  0.00     0.219 HD
ENDBRANCH  34  35
BRANCH  34  37
HETATM   37  C16 UNL     1       8.705  -9.180  17.771  1.00  0.00     0.261 C 
BRANCH  37  38
HETATM   38  N5  UNL     1       8.772  -9.153  19.213  1.00  0.00    -0.067 N 
ATOM     39  H53 UNL     1       8.483  -8.238  19.556  1.00  0.00     0.275 HD
ATOM     40  H52 UNL     1       8.033  -9.737  19.605  1.00  0.00     0.275 HD
ATOM     41  H51 UNL     1       9.670  -9.410  19.622  1.00  0.00     0.275 HD
ENDBRANCH  37  38
BRANCH  37  42
HETATM   42  C17 UNL     1       8.612  -7.722  17.340  1.00  0.00     0.024 C 
HETATM   43  C18 UNL     1       8.429  -6.845  18.573  1.00  0.00     0.007 C 
HETATM   44  C19 UNL     1       7.992  -5.483  18.092  1.00  0.00     0.000 C 
HETATM   45  C20 UNL     1       9.114  -4.898  17.240  1.00  0.00     0.000 C 
HETATM   46  C21 UNL     1       9.445  -5.794  16.092  1.00  0.00     0.000 C 
HETATM   47  C22 UNL     1       9.772  -7.222  16.559  1.00  0.00     0.007 C 
ENDBRANCH  37  42
ENDBRANCH  34  37
ENDBRANCH   6  34
TORSDOF 12
ENDMDL
MODEL 2
REMARK VINA RESULT: -8.633110760      2.493      3.792
REMARK  12 active torsions:
REMARK  status: ('A' for Active; 'I' for Inactive)
REMARK    1  A    between atoms: C2_2  and  C4_4 
REMARK    2  A    between atoms: C4_4  and  N1_5 
REMARK    3  A    between atoms: C4_4  and  C29_45 
REMARK       I    between atoms: N1_5  and  C5_7 
REMARK       I    between atoms: C5_7  and  N2_9 
REMARK    4  A    between atoms: C8_12  and  C9_13 
REMARK    5  A    between atoms: C9_13  and  S1_14 
REMARK    6  A    between atoms: S1_14  and  N3_17 
REMARK    7  A    between atoms: N3_17  and  C10_19 
REMARK    8  A    between atoms: N4_24  and  C15_25 
REMARK    9  A    between atoms: C15_25  and  O4_26 
REMARK   10  A    between atoms: C15_25  and  C16_28 
REMARK   11  A    between atoms: C16_28  and  N5_29 
REMARK   12  A    between atoms: C16_28  and  C17_33 
ROOT
HETATM    1  C10 UNL     1       4.802  -4.903  17.249  1.00  0.00     0.121 C 
HETATM    2  C11 UNL     1       3.636  -5.761  17.669  1.00  0.00     0.026 C 
HETATM    3  C12 UNL     1       3.988  -6.275  19.052  1.00  0.00     0.006 C 
HETATM    4  C13 UNL     1       3.506  -5.258  20.060  1.00  0.00     0.012 C 
HETATM    5  C14 UNL     1       5.485  -6.376  19.173  1.00  0.00     0.130 C 
HETATM    6  N4  UNL     1       6.073  -6.820  17.880  1.00  0.00    -0.356 N 
HETATM    7  C23 UNL     1       5.451  -6.215  16.739  1.00  0.00     0.118 C 
HETATM    8  C24 UNL     1       4.018  -6.720  16.556  1.00  0.00    -0.019 C 
HETATM    9  C25 UNL     1       3.417  -6.384  15.231  1.00  0.00     0.017 C 
HETATM   10  C26 UNL     1       3.850  -8.182  16.872  1.00  0.00     0.017 C 
ENDROOT
BRANCH   1  11
HETATM   11  N3  UNL     1       4.539  -3.943  16.188  1.00  0.00    -0.312 N 
ATOM     12  H3  UNL     1       3.726  -3.978  15.571  1.00  0.00     0.172 HD
BRANCH  11  13
HETATM   13  S1  UNL     1       5.764  -2.746  16.104  1.00  0.00     0.227 S 
HETATM   14  O2  UNL     1       6.906  -3.149  17.012  1.00  0.00    -0.206 OA
HETATM   15  O3  UNL     1       5.210  -1.476  16.752  1.00  0.00    -0.206 OA
BRANCH  13  16
HETATM   16  C9  UNL     1       6.298  -2.323  14.506  1.00  0.00     0.167 C 
BRANCH  16  17
HETATM   17  C8  UNL     1       5.282  -2.095  13.457  1.00  0.00     0.004 C 
HETATM   18  C7  UNL     1       3.855  -2.086  13.856  1.00  0.00     0.025 C 
HETATM   19  C6  UNL     1       3.014  -1.476  12.721  1.00  0.00     0.128 C 
HETATM   20  N2  UNL     1       3.417  -0.119  12.424  1.00  0.00    -0.334 N 
HETATM   21  C5  UNL     1       2.684   0.702  11.552  1.00  0.00     0.319 C 
HETATM   22  C28 UNL     1       4.648   0.308  13.107  1.00  0.00     0.128 C 
HETATM   23  N1  UNL     1       3.025   2.029  11.217  1.00  0.00    -0.328 N 
HETATM   24  O1  UNL     1       1.633   0.192  11.032  1.00  0.00    -0.247 OA
ATOM     25  H1  UNL     1       3.860   2.454  11.621  1.00  0.00     0.165 HD
HETATM   26  C27 UNL     1       5.663  -0.788  12.752  1.00  0.00     0.025 C 
BRANCH  23  27
HETATM   27  C4  UNL     1       2.206   2.787  10.310  1.00  0.00     0.190 C 
BRANCH  27  28
HETATM   28  C2  UNL     1       2.886   4.100   9.922  1.00  0.00     0.011 C 
HETATM   29  C1  UNL     1       2.592   4.449   8.491  1.00  0.00     0.012 C 
HETATM   30  C3  UNL     1       4.373   4.013  10.171  1.00  0.00     0.012 C 
ENDBRANCH  27  28
BRANCH  27  31
HETATM   31  C29 UNL     1       0.895   3.148  10.897  1.00  0.00     0.197 C 
HETATM   32  O5  UNL     1       0.908   3.823  11.957  1.00  0.00    -0.646 OA
HETATM   33  O6  UNL     1      -0.298   2.782  10.339  1.00  0.00    -0.646 OA
ENDBRANCH  27  31
ENDBRANCH  23  27
ENDBRANCH  16  17
ENDBRANCH  13  16
ENDBRANCH  11  13
ENDBRANCH   1  11
BRANCH   6  34
HETATM   34  C15 UNL     1       7.132  -7.746  17.928  1.00  0.00     0.145 C 
BRANCH  34  35
HETATM   35  O4  UNL     1       6.907  -8.763  18.709  1.00  0.00    -0.348 OA
ATOM     36  H4  UNL     1       6.831  -8.533  19.627  1.00  0.00     0.219 HD
ENDBRANCH  34  35
BRANCH  34  37
HETATM   37  C16 UNL     1       8.416  -7.714  17.233  1.00  0.00     0.261 C 
BRANCH  37  38
HETATM   38  N5  UNL     1       9.537  -8.276  17.949  1.00  0.00    -0.067 N 
ATOM     39  H53 UNL     1       9.258  -8.505  18.903  1.00  0.00     0.275 HD
ATOM     40  H52 UNL     1       9.744  -9.209  17.591  1.00  0.00     0.275 HD
ATOM     41  H51 UNL     1      10.386  -7.713  17.962  1.00  0.00     0.275 HD
ENDBRANCH  37  38
BRANCH  37  42
HETATM   42  C17 UNL     1       8.832  -6.292  16.880  1.00  0.00     0.024 C 
HETATM   43  C18 UNL     1      10.053  -5.905  17.704  1.00  0.00     0.007 C 
HETATM   44  C19 UNL     1      10.212  -4.409  17.594  1.00  0.00     0.000 C 
HETATM   45  C20 UNL     1      10.483  -4.067  16.133  1.00  0.00     0.000 C 
HETATM   46  C21 UNL     1       9.384  -4.558  15.248  1.00  0.00     0.000 C 
HETATM   47  C22 UNL     1       9.126  -6.062  15.442  1.00  0.00     0.007 C 
ENDBRANCH  37  42
ENDBRANCH  34  37
ENDBRANCH   6  34
TORSDOF 12
ENDMDL
MODEL 3
REMARK VINA RESULT: -8.534126261      2.673      4.915
REMARK  12 active torsions:
REMARK  status: ('A' for Active; 'I' for Inactive)
REMARK    1  A    between atoms: C2_2  and  C4_4 
REMARK    2  A    between atoms: C4_4  and  N1_5 
REMARK    3  A    between atoms: C4_4  and  C29_45 
REMARK       I    between atoms: N1_5  and  C5_7 
REMARK       I    between atoms: C5_7  and  N2_9 
REMARK    4  A    between atoms: C8_12  and  C9_13 
REMARK    5  A    between atoms: C9_13  and  S1_14 
REMARK    6  A    between atoms: S1_14  and  N3_17 
REMARK    7  A    between atoms: N3_17  and  C10_19 
REMARK    8  A    between atoms: N4_24  and  C15_25 
REMARK    9  A    between atoms: C15_25  and  O4_26 
REMARK   10  A    between atoms: C15_25  and  C16_28 
REMARK   11  A    between atoms: C16_28  and  N5_29 
REMARK   12  A    between atoms: C16_28  and  C17_33 
ROOT
HETATM    1  C10 UNL     1       5.114  -5.807  16.784  1.00  0.00     0.121 C 
HETATM    2  C11 UNL     1       4.052  -5.870  17.851  1.00  0.00     0.026 C 
HETATM    3  C12 UNL     1       4.642  -6.721  18.959  1.00  0.00     0.006 C 
HETATM    4  C13 UNL     1       5.411  -5.808  19.885  1.00  0.00     0.012 C 
HETATM    5  C14 UNL     1       5.614  -7.704  18.361  1.00  0.00     0.130 C 
HETATM    6  N4  UNL     1       5.114  -8.178  17.042  1.00  0.00    -0.356 N 
HETATM    7  C23 UNL     1       4.518  -7.137  16.256  1.00  0.00     0.118 C 
HETATM    8  C24 UNL     1       3.201  -6.661  16.873  1.00  0.00    -0.019 C 
HETATM    9  C25 UNL     1       2.373  -5.814  15.965  1.00  0.00     0.017 C 
HETATM   10  C26 UNL     1       2.383  -7.772  17.476  1.00  0.00     0.017 C 
ENDROOT
BRANCH   1  11
HETATM   11  N3  UNL     1       4.999  -4.710  15.834  1.00  0.00    -0.312 N 
ATOM     12  H3  UNL     1       4.169  -4.523  15.271  1.00  0.00     0.172 HD
BRANCH  11  13
HETATM   13  S1  UNL     1       6.434  -3.772  15.779  1.00  0.00     0.227 S 
HETATM   14  O2  UNL     1       7.486  -4.530  14.998  1.00  0.00    -0.206 OA
HETATM   15  O3  UNL     1       7.001  -3.715  17.198  1.00  0.00    -0.206 OA
BRANCH  13  16
HETATM   16  C9  UNL     1       6.245  -2.135  15.228  1.00  0.00     0.167 C 
BRANCH  16  17
HETATM   17  C8  UNL     1       5.568  -1.896  13.937  1.00  0.00     0.004 C 
HETATM   18  C7  UNL     1       4.144  -2.287  13.810  1.00  0.00     0.025 C 
HETATM   19  C6  UNL     1       3.545  -1.629  12.556  1.00  0.00     0.128 C 
HETATM   20  N2  UNL     1       3.621  -0.186  12.619  1.00  0.00    -0.334 N 
HETATM   21  C5  UNL     1       2.983   0.636  11.676  1.00  0.00     0.319 C 
HETATM   22  C28 UNL     1       4.421   0.328  13.743  1.00  0.00     0.128 C 
HETATM   23  N1  UNL     1       3.022   2.046  11.679  1.00  0.00    -0.328 N 
HETATM   24  O1  UNL     1       2.322   0.045  10.755  1.00  0.00    -0.247 OA
ATOM     25  H1  UNL     1       3.544   2.536  12.406  1.00  0.00     0.165 HD
HETATM   26  C27 UNL     1       5.760  -0.411  13.607  1.00  0.00     0.025 C 
BRANCH  23  27
HETATM   27  C4  UNL     1       2.334   2.798  10.665  1.00  0.00     0.190 C 
BRANCH  27  28
HETATM   28  C2  UNL     1       2.982   4.166  10.460  1.00  0.00     0.011 C 
HETATM   29  C1  UNL     1       2.998   4.534   9.003  1.00  0.00     0.012 C 
HETATM   30  C3  UNL     1       4.375   4.178  11.044  1.00  0.00     0.012 C 
ENDBRANCH  27  28
BRANCH  27  31
HETATM   31  C29 UNL     1       0.915   3.051  11.011  1.00  0.00     0.197 C 
HETATM   32  O5  UNL     1       0.685   3.598  12.119  1.00  0.00    -0.646 OA
HETATM   33  O6  UNL     1      -0.124   2.718  10.188  1.00  0.00    -0.646 OA
ENDBRANCH  27  31
ENDBRANCH  23  27
ENDBRANCH  16  17
ENDBRANCH  13  16
ENDBRANCH  11  13
ENDBRANCH   1  11
BRANCH   6  34
HETATM   34  C15 UNL     1       5.281  -9.540  16.732  1.00  0.00     0.145 C 
BRANCH  34  35
HETATM   35  O4  UNL     1       6.507  -9.869  16.445  1.00  0.00    -0.348 OA
ATOM     36  H4  UNL     1       6.752  -9.690  15.545  1.00  0.00     0.219 HD
ENDBRANCH  34  35
BRANCH  34  37
HETATM   37  C16 UNL     1       4.282 -10.605  16.694  1.00  0.00     0.261 C 
BRANCH  37  38
HETATM   38  N5  UNL     1       4.603 -11.800  17.437  1.00  0.00    -0.067 N 
ATOM     39  H53 UNL     1       3.811 -12.069  18.021  1.00  0.00     0.275 HD
ATOM     40  H52 UNL     1       4.645 -12.601  16.806  1.00  0.00     0.275 HD
ATOM     41  H51 UNL     1       5.452 -11.760  18.001  1.00  0.00     0.275 HD
ENDBRANCH  37  38
BRANCH  37  42
HETATM   42  C17 UNL     1       4.010 -11.073  15.269  1.00  0.00     0.024 C 
HETATM   43  C18 UNL     1       2.744 -11.920  15.251  1.00  0.00     0.007 C 
HETATM   44  C19 UNL     1       2.708 -12.642  13.927  1.00  0.00     0.000 C 
HETATM   45  C20 UNL     1       2.611 -11.598  12.819  1.00  0.00     0.000 C 
HETATM   46  C21 UNL     1       3.754 -10.638  12.879  1.00  0.00     0.000 C 
HETATM   47  C22 UNL     1       3.879  -9.985  14.266  1.00  0.00     0.007 C 
ENDBRANCH  37  42
ENDBRANCH  34  37
ENDBRANCH   6  34
TORSDOF 12
ENDMDL
MODEL 4
REMARK VINA RESULT: -8.511417800      2.878      4.288
REMARK  12 active torsions:
REMARK  status: ('A' for Active; 'I' for Inactive)
REMARK    1  A    between atoms: C2_2  and  C4_4 
REMARK    2  A    between atoms: C4_4  and  N1_5 
REMARK    3  A    between atoms: C4_4  and  C29_45 
REMARK       I    between atoms: N1_5  and  C5_7 
REMARK       I    between atoms: C5_7  and  N2_9 
REMARK    4  A    between atoms: C8_12  and  C9_13 
REMARK    5  A    between atoms: C9_13  and  S1_14 
REMARK    6  A    between atoms: S1_14  and  N3_17 
REMARK    7  A    between atoms: N3_17  and  C10_19 
REMARK    8  A    between atoms: N4_24  and  C15_25 
REMARK    9  A    between atoms: C15_25  and  O4_26 
REMARK   10  A    between atoms: C15_25  and  C16_28 
REMARK   11  A    between atoms: C16_28  and  N5_29 
REMARK   12  A    between atoms: C16_28  and  C17_33 
ROOT
HETATM    1  C10 UNL     1       4.357  -5.514  16.773  1.00  0.00     0.121 C 
HETATM    2  C11 UNL     1       3.535  -6.554  17.488  1.00  0.00     0.026 C 
HETATM    3  C12 UNL     1       4.057  -6.575  18.912  1.00  0.00     0.006 C 
HETATM    4  C13 UNL     1       3.292  -5.538  19.700  1.00  0.00     0.012 C 
HETATM    5  C14 UNL     1       5.510  -6.180  18.909  1.00  0.00     0.130 C 
HETATM    6  N4  UNL     1       6.186  -6.730  17.703  1.00  0.00    -0.356 N 
HETATM    7  C23 UNL     1       5.383  -6.648  16.518  1.00  0.00     0.118 C 
HETATM    8  C24 UNL     1       4.184  -7.596  16.594  1.00  0.00    -0.019 C 
HETATM    9  C25 UNL     1       3.484  -7.801  15.292  1.00  0.00     0.017 C 
HETATM   10  C26 UNL     1       4.499  -8.912  17.254  1.00  0.00     0.017 C 
ENDROOT
BRANCH   1  11
HETATM   11  N3  UNL     1       3.781  -4.976  15.549  1.00  0.00    -0.312 N 
ATOM     12  H3  UNL     1       3.120  -5.479  14.957  1.00  0.00     0.172 HD
BRANCH  11  13
HETATM   13  S1  UNL     1       4.353  -3.392  15.228  1.00  0.00     0.227 S 
HETATM   14  O2  UNL     1       5.277  -3.438  14.029  1.00  0.00    -0.206 OA
HETATM   15  O3  UNL     1       5.272  -2.992  16.383  1.00  0.00    -0.206 OA
BRANCH  13  16
HETATM   16  C9  UNL     1       3.134  -2.163  15.084  1.00  0.00     0.167 C 
BRANCH  16  17
HETATM   17  C8  UNL     1       3.086  -1.355  13.847  1.00  0.00     0.004 C 
HETATM   18  C7  UNL     1       2.486  -0.002  13.918  1.00  0.00     0.025 C 
HETATM   19  C6  UNL     1       2.865   0.790  12.656  1.00  0.00     0.128 C 
HETATM   20  N2  UNL     1       4.299   0.930  12.521  1.00  0.00    -0.334 N 
HETATM   21  C5  UNL     1       4.878   1.761  11.547  1.00  0.00     0.319 C 
HETATM   22  C28 UNL     1       5.076   0.130  13.480  1.00  0.00     0.128 C 
HETATM   23  N1  UNL     1       6.264   1.937  11.361  1.00  0.00    -0.328 N 
HETATM   24  O1  UNL     1       4.073   2.396  10.784  1.00  0.00    -0.247 OA
ATOM     25  H1  UNL     1       6.923   1.439  11.960  1.00  0.00     0.165 HD
HETATM   26  C27 UNL     1       4.520  -1.291  13.307  1.00  0.00     0.025 C 
BRANCH  23  27
HETATM   27  C4  UNL     1       6.758   2.812  10.332  1.00  0.00     0.190 C 
BRANCH  27  28
HETATM   28  C2  UNL     1       7.828   2.120   9.489  1.00  0.00     0.011 C 
HETATM   29  C1  UNL     1       7.296   1.783   8.125  1.00  0.00     0.012 C 
HETATM   30  C3  UNL     1       8.338   0.888  10.198  1.00  0.00     0.012 C 
ENDBRANCH  27  28
BRANCH  27  31
HETATM   31  C29 UNL     1       7.381   4.039  10.881  1.00  0.00     0.197 C 
HETATM   32  O5  UNL     1       8.448   4.429  10.345  1.00  0.00    -0.646 OA
HETATM   33  O6  UNL     1       6.847   4.742  11.924  1.00  0.00    -0.646 OA
ENDBRANCH  27  31
ENDBRANCH  23  27
ENDBRANCH  16  17
ENDBRANCH  13  16
ENDBRANCH  11  13
ENDBRANCH   1  11
BRANCH   6  34
HETATM   34  C15 UNL     1       7.486  -7.244  17.861  1.00  0.00     0.145 C 
BRANCH  34  35
HETATM   35  O4  UNL     1       7.605  -8.080  18.853  1.00  0.00    -0.348 OA
ATOM     36  H4  UNL     1       8.500  -8.209  19.141  1.00  0.00     0.219 HD
ENDBRANCH  34  35
BRANCH  34  37
HETATM   37  C16 UNL     1       8.688  -6.970  17.077  1.00  0.00     0.261 C 
BRANCH  37  38
HETATM   38  N5  UNL     1       9.929  -7.452  17.634  1.00  0.00    -0.067 N 
ATOM     39  H53 UNL     1      10.671  -6.772  17.470  1.00  0.00     0.275 HD
ATOM     40  H52 UNL     1       9.884  -7.430  18.653  1.00  0.00     0.275 HD
ATOM     41  H51 UNL     1      10.230  -8.375  17.321  1.00  0.00     0.275 HD
ENDBRANCH  37  38
BRANCH  37  42
HETATM   42  C17 UNL     1       8.892  -5.476  16.861  1.00  0.00     0.024 C 
HETATM   43  C18 UNL     1      10.356  -5.129  17.099  1.00  0.00     0.007 C 
HETATM   44  C19 UNL     1      10.445  -3.628  17.225  1.00  0.00     0.000 C 
HETATM   45  C20 UNL     1      10.009  -3.014  15.899  1.00  0.00     0.000 C 
HETATM   46  C21 UNL     1       8.626  -3.443  15.532  1.00  0.00     0.000 C 
HETATM   47  C22 UNL     1       8.487  -4.974  15.522  1.00  0.00     0.007 C 
ENDBRANCH  37  42
ENDBRANCH  34  37
ENDBRANCH   6  34
TORSDOF 12
ENDMDL
MODEL 5
REMARK VINA RESULT: -8.499534124      4.917     13.408
REMARK  12 active torsions:
REMARK  status: ('A' for Active; 'I' for Inactive)
REMARK    1  A    between atoms: C2_2  and  C4_4 
REMARK    2  A    between atoms: C4_4  and  N1_5 
REMARK    3  A    between atoms: C4_4  and  C29_45 
REMARK       I    between atoms: N1_5  and  C5_7 
REMARK       I    between atoms: C5_7  and  N2_9 
REMARK    4  A    between atoms: C8_12  and  C9_13 
REMARK    5  A    between atoms: C9_13  and  S1_14 
REMARK    6  A    between atoms: S1_14  and  N3_17 
REMARK    7  A    between atoms: N3_17  and  C10_19 
REMARK    8  A    between atoms: N4_24  and  C15_25 
REMARK    9  A    between atoms: C15_25  and  O4_26 
REMARK   10  A    between atoms: C15_25  and  C16_28 
REMARK   11  A    between atoms: C16_28  and  N5_29 
REMARK   12  A    between atoms: C16_28  and  C17_33 
ROOT
HETATM    1  C10 UNL     1       6.472   4.442   8.388  1.00  0.00     0.121 C 
HETATM    2  C11 UNL     1       7.013   4.432   6.982  1.00  0.00     0.026 C 
HETATM    3  C12 UNL     1       6.296   5.560   6.264  1.00  0.00     0.006 C 
HETATM    4  C13 UNL     1       7.093   6.825   6.481  1.00  0.00     0.012 C 
HETATM    5  C14 UNL     1       4.938   5.753   6.884  1.00  0.00     0.130 C 
HETATM    6  N4  UNL     1       4.363   4.438   7.275  1.00  0.00    -0.356 N 
HETATM    7  C23 UNL     1       5.330   3.546   7.846  1.00  0.00     0.118 C 
HETATM    8  C24 UNL     1       6.344   3.082   6.798  1.00  0.00    -0.019 C 
HETATM    9  C25 UNL     1       7.181   1.924   7.231  1.00  0.00     0.017 C 
HETATM   10  C26 UNL     1       5.738   2.836   5.442  1.00  0.00     0.017 C 
ENDROOT
BRANCH   1  11
HETATM   11  N3  UNL     1       7.293   3.781   9.392  1.00  0.00    -0.312 N 
ATOM     12  H3  UNL     1       8.237   3.434   9.224  1.00  0.00     0.172 HD
BRANCH  11  13
HETATM   13  S1  UNL     1       6.473   3.659  10.894  1.00  0.00     0.227 S 
HETATM   14  O2  UNL     1       5.411   4.735  10.962  1.00  0.00    -0.206 OA
HETATM   15  O3  UNL     1       7.464   4.050  11.991  1.00  0.00    -0.206 OA
BRANCH  13  16
HETATM   16  C9  UNL     1       5.855   2.084  11.290  1.00  0.00     0.167 C 
BRANCH  16  17
HETATM   17  C8  UNL     1       5.900   1.640  12.699  1.00  0.00     0.004 C 
HETATM   18  C7  UNL     1       4.661   1.092  13.300  1.00  0.00     0.025 C 
HETATM   19  C6  UNL     1       5.010   0.363  14.609  1.00  0.00     0.128 C 
HETATM   20  N2  UNL     1       5.933  -0.728  14.385  1.00  0.00    -0.334 N 
HETATM   21  C5  UNL     1       6.259  -1.647  15.395  1.00  0.00     0.319 C 
HETATM   22  C28 UNL     1       6.490  -0.778  13.024  1.00  0.00     0.128 C 
HETATM   23  N1  UNL     1       7.154  -2.727  15.243  1.00  0.00    -0.328 N 
HETATM   24  O1  UNL     1       5.694  -1.476  16.529  1.00  0.00    -0.247 OA
ATOM     25  H1  UNL     1       7.614  -2.881  14.346  1.00  0.00     0.165 HD
HETATM   26  C27 UNL     1       7.052   0.634  12.806  1.00  0.00     0.025 C 
BRANCH  23  27
HETATM   27  C4  UNL     1       7.422  -3.613  16.344  1.00  0.00     0.190 C 
BRANCH  27  28
HETATM   28  C2  UNL     1       8.780  -4.296  16.181  1.00  0.00     0.011 C 
HETATM   29  C1  UNL     1       9.896  -3.305  16.355  1.00  0.00     0.012 C 
HETATM   30  C3  UNL     1       8.862  -4.986  14.841  1.00  0.00     0.012 C 
ENDBRANCH  27  28
BRANCH  27  31
HETATM   31  C29 UNL     1       6.416  -4.696  16.457  1.00  0.00     0.197 C 
HETATM   32  O5  UNL     1       6.552  -5.506  17.409  1.00  0.00    -0.646 OA
HETATM   33  O6  UNL     1       5.374  -4.839  15.586  1.00  0.00    -0.646 OA
ENDBRANCH  27  31
ENDBRANCH  23  27
ENDBRANCH  16  17
ENDBRANCH  13  16
ENDBRANCH  11  13
ENDBRANCH   1  11
BRANCH   6  34
HETATM   34  C15 UNL     1       2.990   4.232   7.047  1.00  0.00     0.145 C 
BRANCH  34  35
HETATM   35  O4  UNL     1       2.712   3.811   5.847  1.00  0.00    -0.348 OA
ATOM     36  H4  UNL     1       2.139   3.054   5.828  1.00  0.00     0.219 HD
ENDBRANCH  34  35
BRANCH  34  37
HETATM   37  C16 UNL     1       1.865   4.422   7.961  1.00  0.00     0.261 C 
BRANCH  37  38
HETATM   38  N5  UNL     1       1.742   5.737   8.544  1.00  0.00    -0.067 N 
ATOM     39  H53 UNL     1       2.502   5.895   9.206  1.00  0.00     0.275 HD
ATOM     40  H52 UNL     1       1.957   6.448   7.845  1.00  0.00     0.275 HD
ATOM     41  H51 UNL     1       0.848   5.946   8.987  1.00  0.00     0.275 HD
ENDBRANCH  37  38
BRANCH  37  42
HETATM   42  C17 UNL     1       1.925   3.458   9.138  1.00  0.00     0.024 C 
HETATM   43  C18 UNL     1       1.888   4.250  10.439  1.00  0.00     0.007 C 
HETATM   44  C19 UNL     1       2.301   3.311  11.546  1.00  0.00     0.000 C 
HETATM   45  C20 UNL     1       1.268   2.192  11.628  1.00  0.00     0.000 C 
HETATM   46  C21 UNL     1       1.148   1.469  10.326  1.00  0.00     0.000 C 
HETATM   47  C22 UNL     1       0.850   2.433   9.165  1.00  0.00     0.007 C 
ENDBRANCH  37  42
ENDBRANCH  34  37
ENDBRANCH   6  34
TORSDOF 12
ENDMDL
