MODEL 1
REMARK VINA RESULT: -8.126542162      0.000      0.000
REMARK  8 active torsions:
REMARK  status: ('A' for Active; 'I' for Inactive)
REMARK    1  A    between atoms: O1_2  and  C2_3 
REMARK    2  A    between atoms: C2_3  and  C3_4 
REMARK    3  A    between atoms: C3_4  and  O2_5 
REMARK    4  A    between atoms: O2_5  and  C4_6 
REMARK    5  A    between atoms: C5_9  and  O3_10 
REMARK    6  A    between atoms: O3_10  and  C6_11 
REMARK    7  A    between atoms: C6_11  and  C7_12 
REMARK    8  A    between atoms: C13_25  and  C14_26 
ROOT
HETATM    1  C7  UNL     1      12.839 -12.376  20.514  1.00  0.00     0.408 C 
HETATM    2  N2  UNL     1      12.226 -13.313  21.390  1.00  0.00    -0.041 N 
ATOM      3  H21 UNL     1      12.898 -13.899  21.884  1.00  0.00     0.279 HD
ATOM      4  H22 UNL     1      11.738 -14.061  20.897  1.00  0.00     0.279 HD
HETATM    5  C8  UNL     1      11.382 -12.575  22.260  1.00  0.00     0.283 C 
HETATM    6  C9  UNL     1      11.622 -11.123  22.008  1.00  0.00     0.319 C 
HETATM    7  C10 UNL     1      11.824 -10.395  23.283  1.00  0.00     0.094 C 
HETATM    8  N3  UNL     1      11.970  -9.810  24.274  1.00  0.00    -0.195 NA
HETATM    9  N4  UNL     1      12.852 -11.099  21.234  1.00  0.00    -0.026 N 
ATOM     10  H41 UNL     1      12.955 -10.281  20.635  1.00  0.00     0.281 HD
ATOM     11  H42 UNL     1      13.693 -10.937  21.788  1.00  0.00     0.281 HD
ENDROOT
BRANCH   1  12
HETATM   12  C6  UNL     1      14.249 -12.846  20.197  1.00  0.00     0.240 C 
BRANCH  12  13
HETATM   13  O3  UNL     1      14.476 -14.011  20.958  1.00  0.00    -0.332 OA
BRANCH  13  14
HETATM   14  C5  UNL     1      15.681 -14.238  21.607  1.00  0.00     0.144 A 
HETATM   15  N1  UNL     1      15.933 -15.383  22.248  1.00  0.00    -0.317 N 
HETATM   16  C4  UNL     1      17.096 -15.618  22.883  1.00  0.00     0.150 A 
ATOM     17  H1  UNL     1      15.216 -16.108  22.257  1.00  0.00     0.170 HD
HETATM   18  C13 UNL     1      18.112 -14.689  22.916  1.00  0.00    -0.003 A 
HETATM   19  C12 UNL     1      17.876 -13.496  22.260  1.00  0.00     0.016 A 
HETATM   20  C11 UNL     1      16.659 -13.265  21.604  1.00  0.00     0.057 A 
BRANCH  16  21
HETATM   21  O2  UNL     1      17.278 -16.819  23.520  1.00  0.00    -0.333 OA
BRANCH  21  22
HETATM   22  C3  UNL     1      16.660 -17.965  22.970  1.00  0.00     0.203 C 
BRANCH  22  23
HETATM   23  C2  UNL     1      15.576 -18.534  23.856  1.00  0.00     0.193 C 
BRANCH  23  24
HETATM   24  O1  UNL     1      14.360 -18.060  23.384  1.00  0.00    -0.394 OA
HETATM   25  C1  UNL     1      14.050 -18.484  22.115  1.00  0.00     0.201 C 
ENDBRANCH  23  24
ENDBRANCH  22  23
ENDBRANCH  21  22
ENDBRANCH  16  21
BRANCH  18  26
HETATM   26  C14 UNL     1      19.342 -15.018  23.628  1.00  0.00     0.026 C 
HETATM   27  C15 UNL     1      20.567 -14.310  23.115  1.00  0.00     0.015 C 
HETATM   28  C16 UNL     1      21.738 -15.031  23.760  1.00  0.00     0.083 C 
HETATM   29  C17 UNL     1      21.707 -14.764  25.215  1.00  0.00     0.278 C 
HETATM   30  F1  UNL     1      22.789 -13.935  25.524  1.00  0.00    -0.203 F 
HETATM   31  F2  UNL     1      21.942 -15.974  25.886  1.00  0.00    -0.203 F 
HETATM   32  C18 UNL     1      20.444 -14.206  25.768  1.00  0.00     0.165 C 
HETATM   33  C19 UNL     1      20.270 -14.555  27.248  1.00  0.00     0.058 C 
HETATM   34  F3  UNL     1      20.595 -12.810  25.771  1.00  0.00    -0.237 F 
HETATM   35  C20 UNL     1      19.187 -14.528  25.069  1.00  0.00     0.058 C 
ENDBRANCH  18  26
ENDBRANCH  13  14
ENDBRANCH  12  13
ENDBRANCH   1  12
TORSDOF 8
ENDMDL
MODEL 2
REMARK VINA RESULT: -8.002032969      1.151      1.343
REMARK  8 active torsions:
REMARK  status: ('A' for Active; 'I' for Inactive)
REMARK    1  A    between atoms: O1_2  and  C2_3 
REMARK    2  A    between atoms: C2_3  and  C3_4 
REMARK    3  A    between atoms: C3_4  and  O2_5 
REMARK    4  A    between atoms: O2_5  and  C4_6 
REMARK    5  A    between atoms: C5_9  and  O3_10 
REMARK    6  A    between atoms: O3_10  and  C6_11 
REMARK    7  A    between atoms: C6_11  and  C7_12 
REMARK    8  A    between atoms: C13_25  and  C14_26 
ROOT
HETATM    1  C7  UNL     1      12.281 -14.483  21.624  1.00  0.00     0.408 C 
HETATM    2  N2  UNL     1      12.271 -14.021  22.968  1.00  0.00    -0.041 N 
ATOM      3  H21 UNL     1      13.118 -14.260  23.482  1.00  0.00     0.279 HD
ATOM      4  H22 UNL     1      11.613 -14.528  23.561  1.00  0.00     0.279 HD
HETATM    5  C8  UNL     1      12.021 -12.624  22.924  1.00  0.00     0.283 C 
HETATM    6  C9  UNL     1      12.046 -12.201  21.491  1.00  0.00     0.319 C 
HETATM    7  C10 UNL     1      12.893 -10.998  21.315  1.00  0.00     0.094 C 
HETATM    8  N3  UNL     1      13.542 -10.047  21.165  1.00  0.00    -0.195 NA
HETATM    9  N4  UNL     1      12.652 -13.327  20.803  1.00  0.00    -0.026 N 
ATOM     10  H41 UNL     1      12.390 -13.409  19.821  1.00  0.00     0.281 HD
ATOM     11  H42 UNL     1      13.654 -13.231  20.641  1.00  0.00     0.281 HD
ENDROOT
BRANCH   1  12
HETATM   12  C6  UNL     1      13.300 -15.603  21.495  1.00  0.00     0.240 C 
BRANCH  12  13
HETATM   13  O3  UNL     1      14.478 -15.032  20.971  1.00  0.00    -0.332 OA
BRANCH  13  14
HETATM   14  C5  UNL     1      15.685 -15.092  21.651  1.00  0.00     0.144 A 
HETATM   15  N1  UNL     1      16.072 -16.190  22.308  1.00  0.00    -0.317 N 
HETATM   16  C4  UNL     1      17.240 -16.264  22.972  1.00  0.00     0.150 A 
ATOM     17  H1  UNL     1      15.458 -17.004  22.305  1.00  0.00     0.170 HD
HETATM   18  C13 UNL     1      18.122 -15.208  23.021  1.00  0.00    -0.003 A 
HETATM   19  C12 UNL     1      17.745 -14.061  22.350  1.00  0.00     0.016 A 
HETATM   20  C11 UNL     1      16.525 -13.998  21.663  1.00  0.00     0.057 A 
BRANCH  16  21
HETATM   21  O2  UNL     1      17.565 -17.427  23.623  1.00  0.00    -0.333 OA
BRANCH  21  22
HETATM   22  C3  UNL     1      16.715 -17.869  24.662  1.00  0.00     0.203 C 
BRANCH  22  23
HETATM   23  C2  UNL     1      15.836 -19.029  24.254  1.00  0.00     0.193 C 
BRANCH  23  24
HETATM   24  O1  UNL     1      14.628 -18.505  23.817  1.00  0.00    -0.394 OA
HETATM   25  C1  UNL     1      14.091 -19.164  22.739  1.00  0.00     0.201 C 
ENDBRANCH  23  24
ENDBRANCH  22  23
ENDBRANCH  21  22
ENDBRANCH  16  21
BRANCH  18  26
HETATM   26  C14 UNL     1      19.367 -15.366  23.765  1.00  0.00     0.026 C 
HETATM   27  C15 UNL     1      20.536 -14.615  23.188  1.00  0.00     0.015 C 
HETATM   28  C16 UNL     1      21.755 -15.173  23.904  1.00  0.00     0.083 C 
HETATM   29  C17 UNL     1      21.688 -14.769  25.326  1.00  0.00     0.278 C 
HETATM   30  F1  UNL     1      22.696 -13.829  25.555  1.00  0.00    -0.203 F 
HETATM   31  F2  UNL     1      22.011 -15.884  26.112  1.00  0.00    -0.203 F 
HETATM   32  C18 UNL     1      20.378 -14.263  25.818  1.00  0.00     0.165 C 
HETATM   33  C19 UNL     1      20.217 -14.478  27.325  1.00  0.00     0.058 C 
HETATM   34  F3  UNL     1      20.417 -12.866  25.685  1.00  0.00    -0.237 F 
HETATM   35  C20 UNL     1      19.158 -14.752  25.151  1.00  0.00     0.058 C 
ENDBRANCH  18  26
ENDBRANCH  13  14
ENDBRANCH  12  13
ENDBRANCH   1  12
TORSDOF 8
ENDMDL
MODEL 3
REMARK VINA RESULT: -7.950830081      1.384      1.531
REMARK  8 active torsions:
REMARK  status: ('A' for Active; 'I' for Inactive)
REMARK    1  A    between atoms: O1_2  and  C2_3 
REMARK    2  A    between atoms: C2_3  and  C3_4 
REMARK    3  A    between atoms: C3_4  and  O2_5 
REMARK    4  A    between atoms: O2_5  and  C4_6 
REMARK    5  A    between atoms: C5_9  and  O3_10 
REMARK    6  A    between atoms: O3_10  and  C6_11 
REMARK    7  A    between atoms: C6_11  and  C7_12 
REMARK    8  A    between atoms: C13_25  and  C14_26 
ROOT
HETATM    1  C7  UNL     1      13.764 -11.729  20.874  1.00  0.00     0.408 C 
HETATM    2  N2  UNL     1      12.675 -10.959  20.381  1.00  0.00    -0.041 N 
ATOM      3  H21 UNL     1      12.093 -11.468  19.716  1.00  0.00     0.279 HD
ATOM      4  H22 UNL     1      12.966 -10.210  19.753  1.00  0.00     0.279 HD
HETATM    5  C8  UNL     1      11.953 -10.491  21.510  1.00  0.00     0.283 C 
HETATM    6  C9  UNL     1      12.533 -11.140  22.724  1.00  0.00     0.319 C 
HETATM    7  C10 UNL     1      11.463 -11.703  23.580  1.00  0.00     0.094 C 
HETATM    8  N3  UNL     1      10.633 -12.137  24.268  1.00  0.00    -0.195 NA
HETATM    9  N4  UNL     1      13.347 -12.219  22.191  1.00  0.00    -0.026 N 
ATOM     10  H41 UNL     1      14.117 -12.502  22.796  1.00  0.00     0.281 HD
ATOM     11  H42 UNL     1      12.882 -13.126  22.173  1.00  0.00     0.281 HD
ENDROOT
BRANCH   1  12
HETATM   12  C6  UNL     1      14.032 -12.876  19.915  1.00  0.00     0.240 C 
BRANCH  12  13
HETATM   13  O3  UNL     1      15.403 -12.831  19.589  1.00  0.00    -0.332 OA
BRANCH  13  14
HETATM   14  C5  UNL     1      16.374 -13.337  20.440  1.00  0.00     0.144 A 
HETATM   15  N1  UNL     1      16.359 -14.608  20.852  1.00  0.00    -0.317 N 
HETATM   16  C4  UNL     1      17.293 -15.115  21.677  1.00  0.00     0.150 A 
ATOM     17  H1  UNL     1      15.609 -15.219  20.527  1.00  0.00     0.170 HD
HETATM   18  C13 UNL     1      18.335 -14.354  22.157  1.00  0.00    -0.003 A 
HETATM   19  C12 UNL     1      18.373 -13.035  21.746  1.00  0.00     0.016 A 
HETATM   20  C11 UNL     1      17.393 -12.521  20.887  1.00  0.00     0.057 A 
BRANCH  16  21
HETATM   21  O2  UNL     1      17.207 -16.430  22.056  1.00  0.00    -0.333 OA
BRANCH  21  22
HETATM   22  C3  UNL     1      16.501 -17.320  21.215  1.00  0.00     0.203 C 
BRANCH  22  23
HETATM   23  C2  UNL     1      15.123 -17.658  21.737  1.00  0.00     0.193 C 
BRANCH  23  24
HETATM   24  O1  UNL     1      14.216 -16.839  21.081  1.00  0.00    -0.394 OA
HETATM   25  C1  UNL     1      13.274 -16.274  21.907  1.00  0.00     0.201 C 
ENDBRANCH  23  24
ENDBRANCH  22  23
ENDBRANCH  21  22
ENDBRANCH  16  21
BRANCH  18  26
HETATM   26  C14 UNL     1      19.306 -14.975  23.051  1.00  0.00     0.026 C 
HETATM   27  C15 UNL     1      20.697 -14.411  22.948  1.00  0.00     0.015 C 
HETATM   28  C16 UNL     1      21.579 -15.397  23.696  1.00  0.00     0.083 C 
HETATM   29  C17 UNL     1      21.232 -15.336  25.133  1.00  0.00     0.278 C 
HETATM   30  F1  UNL     1      22.303 -14.746  25.810  1.00  0.00    -0.203 F 
HETATM   31  F2  UNL     1      21.145 -16.650  25.617  1.00  0.00    -0.203 F 
HETATM   32  C18 UNL     1      19.953 -14.664  25.487  1.00  0.00     0.165 C 
HETATM   33  C19 UNL     1      19.386 -15.184  26.810  1.00  0.00     0.058 C 
HETATM   34  F3  UNL     1      20.273 -13.325  25.768  1.00  0.00    -0.237 F 
HETATM   35  C20 UNL     1      18.871 -14.675  24.487  1.00  0.00     0.058 C 
ENDBRANCH  18  26
ENDBRANCH  13  14
ENDBRANCH  12  13
ENDBRANCH   1  12
TORSDOF 8
ENDMDL
MODEL 4
REMARK VINA RESULT: -7.924390606      1.412      1.999
REMARK  8 active torsions:
REMARK  status: ('A' for Active; 'I' for Inactive)
REMARK    1  A    between atoms: O1_2  and  C2_3 
REMARK    2  A    between atoms: C2_3  and  C3_4 
REMARK    3  A    between atoms: C3_4  and  O2_5 
REMARK    4  A    between atoms: O2_5  and  C4_6 
REMARK    5  A    between atoms: C5_9  and  O3_10 
REMARK    6  A    between atoms: O3_10  and  C6_11 
REMARK    7  A    between atoms: C6_11  and  C7_12 
REMARK    8  A    between atoms: C13_25  and  C14_26 
ROOT
HETATM    1  C7  UNL     1      12.272 -14.397  21.616  1.00  0.00     0.408 C 
HETATM    2  N2  UNL     1      12.283 -13.927  22.958  1.00  0.00    -0.041 N 
ATOM      3  H21 UNL     1      13.140 -14.159  23.457  1.00  0.00     0.279 HD
ATOM      4  H22 UNL     1      11.638 -14.434  23.565  1.00  0.00     0.279 HD
HETATM    5  C8  UNL     1      12.025 -12.532  22.910  1.00  0.00     0.283 C 
HETATM    6  C9  UNL     1      12.023 -12.117  21.475  1.00  0.00     0.319 C 
HETATM    7  C10 UNL     1      12.860 -10.911  21.277  1.00  0.00     0.094 C 
HETATM    8  N3  UNL     1      13.502  -9.958  21.109  1.00  0.00    -0.195 NA
HETATM    9  N4  UNL     1      12.622 -13.244  20.782  1.00  0.00    -0.026 N 
ATOM     10  H41 UNL     1      12.343 -13.333  19.805  1.00  0.00     0.281 HD
ATOM     11  H42 UNL     1      13.621 -13.144  20.602  1.00  0.00     0.281 HD
ENDROOT
BRANCH   1  12
HETATM   12  C6  UNL     1      13.294 -15.513  21.476  1.00  0.00     0.240 C 
BRANCH  12  13
HETATM   13  O3  UNL     1      14.479 -14.929  20.983  1.00  0.00    -0.332 OA
BRANCH  13  14
HETATM   14  C5  UNL     1      15.677 -15.006  21.677  1.00  0.00     0.144 A 
HETATM   15  N1  UNL     1      16.165 -16.171  22.114  1.00  0.00    -0.317 N 
HETATM   16  C4  UNL     1      17.326 -16.263  22.789  1.00  0.00     0.150 A 
ATOM     17  H1  UNL     1      15.637 -17.024  21.930  1.00  0.00     0.170 HD
HETATM   18  C13 UNL     1      18.094 -15.158  23.076  1.00  0.00    -0.003 A 
HETATM   19  C12 UNL     1      17.611 -13.941  22.634  1.00  0.00     0.016 A 
HETATM   20  C11 UNL     1      16.400 -13.860  21.934  1.00  0.00     0.057 A 
BRANCH  16  21
HETATM   21  O2  UNL     1      17.759 -17.495  23.206  1.00  0.00    -0.333 OA
BRANCH  21  22
HETATM   22  C3  UNL     1      16.867 -18.297  23.954  1.00  0.00     0.203 C 
BRANCH  22  23
HETATM   23  C2  UNL     1      16.898 -17.993  25.434  1.00  0.00     0.193 C 
BRANCH  23  24
HETATM   24  O1  UNL     1      18.204 -18.161  25.868  1.00  0.00    -0.394 OA
HETATM   25  C1  UNL     1      18.424 -17.737  27.156  1.00  0.00     0.201 C 
ENDBRANCH  23  24
ENDBRANCH  22  23
ENDBRANCH  21  22
ENDBRANCH  16  21
BRANCH  18  26
HETATM   26  C14 UNL     1      19.340 -15.340  23.815  1.00  0.00     0.026 C 
HETATM   27  C15 UNL     1      20.524 -14.622  23.226  1.00  0.00     0.015 C 
HETATM   28  C16 UNL     1      21.732 -15.205  23.940  1.00  0.00     0.083 C 
HETATM   29  C17 UNL     1      21.683 -14.787  25.358  1.00  0.00     0.278 C 
HETATM   30  F1  UNL     1      22.715 -13.871  25.575  1.00  0.00    -0.203 F 
HETATM   31  F2  UNL     1      21.983 -15.904  26.152  1.00  0.00    -0.203 F 
HETATM   32  C18 UNL     1      20.388 -14.246  25.854  1.00  0.00     0.165 C 
HETATM   33  C19 UNL     1      20.231 -14.445  27.363  1.00  0.00     0.058 C 
HETATM   34  F3  UNL     1      20.461 -12.851  25.709  1.00  0.00    -0.237 F 
HETATM   35  C20 UNL     1      19.153 -14.710  25.197  1.00  0.00     0.058 C 
ENDBRANCH  18  26
ENDBRANCH  13  14
ENDBRANCH  12  13
ENDBRANCH   1  12
TORSDOF 8
ENDMDL
MODEL 5
REMARK VINA RESULT: -7.849748014      1.685      2.193
REMARK  8 active torsions:
REMARK  status: ('A' for Active; 'I' for Inactive)
REMARK    1  A    between atoms: O1_2  and  C2_3 
REMARK    2  A    between atoms: C2_3  and  C3_4 
REMARK    3  A    between atoms: C3_4  and  O2_5 
REMARK    4  A    between atoms: O2_5  and  C4_6 
REMARK    5  A    between atoms: C5_9  and  O3_10 
REMARK    6  A    between atoms: O3_10  and  C6_11 
REMARK    7  A    between atoms: C6_11  and  C7_12 
REMARK    8  A    between atoms: C13_25  and  C14_26 
ROOT
HETATM    1  C7  UNL     1      10.867 -12.556  22.470  1.00  0.00     0.408 C 
HETATM    2  N2  UNL     1      11.068 -12.930  23.827  1.00  0.00    -0.041 N 
ATOM      3  H21 UNL     1      11.888 -13.520  23.963  1.00  0.00     0.279 HD
ATOM      4  H22 UNL     1      10.372 -13.595  24.166  1.00  0.00     0.279 HD
HETATM    5  C8  UNL     1      11.110 -11.731  24.586  1.00  0.00     0.283 C 
HETATM    6  C9  UNL     1      11.100 -10.584  23.628  1.00  0.00     0.319 C 
HETATM    7  C10 UNL     1      12.160  -9.606  23.970  1.00  0.00     0.094 C 
HETATM    8  N3  UNL     1      12.977  -8.825  24.234  1.00  0.00    -0.195 NA
HETATM    9  N4  UNL     1      11.398 -11.195  22.344  1.00  0.00    -0.026 N 
ATOM     10  H41 UNL     1      11.041 -10.679  21.541  1.00  0.00     0.281 HD
ATOM     11  H42 UNL     1      12.381 -11.151  22.076  1.00  0.00     0.281 HD
ENDROOT
BRANCH   1  12
HETATM   12  C6  UNL     1      11.617 -13.528  21.574  1.00  0.00     0.240 C 
BRANCH  12  13
HETATM   13  O3  UNL     1      12.744 -12.844  21.075  1.00  0.00    -0.332 OA
BRANCH  13  14
HETATM   14  C5  UNL     1      14.036 -13.283  21.326  1.00  0.00     0.144 A 
HETATM   15  N1  UNL     1      14.355 -14.581  21.315  1.00  0.00    -0.317 N 
HETATM   16  C4  UNL     1      15.603 -15.023  21.557  1.00  0.00     0.150 A 
ATOM     17  H1  UNL     1      13.624 -15.264  21.115  1.00  0.00     0.170 HD
HETATM   18  C13 UNL     1      16.642 -14.164  21.833  1.00  0.00    -0.003 A 
HETATM   19  C12 UNL     1      16.338 -12.816  21.851  1.00  0.00     0.016 A 
HETATM   20  C11 UNL     1      15.034 -12.370  21.599  1.00  0.00     0.057 A 
BRANCH  16  21
HETATM   21  O2  UNL     1      15.850 -16.372  21.528  1.00  0.00    -0.333 OA
BRANCH  21  22
HETATM   22  C3  UNL     1      15.196 -17.189  22.477  1.00  0.00     0.203 C 
BRANCH  22  23
HETATM   23  C2  UNL     1      14.025 -17.949  21.895  1.00  0.00     0.193 C 
BRANCH  23  24
HETATM   24  O1  UNL     1      12.883 -17.195  22.124  1.00  0.00    -0.394 OA
HETATM   25  C1  UNL     1      11.955 -17.267  21.115  1.00  0.00     0.201 C 
ENDBRANCH  23  24
ENDBRANCH  22  23
ENDBRANCH  21  22
ENDBRANCH  16  21
BRANCH  18  26
HETATM   26  C14 UNL     1      17.967 -14.721  22.087  1.00  0.00     0.026 C 
HETATM   27  C15 UNL     1      19.107 -13.821  21.695  1.00  0.00     0.015 C 
HETATM   28  C16 UNL     1      20.340 -14.708  21.735  1.00  0.00     0.083 C 
HETATM   29  C17 UNL     1      20.600 -15.084  23.143  1.00  0.00     0.278 C 
HETATM   30  F1  UNL     1      21.761 -14.428  23.558  1.00  0.00    -0.203 F 
HETATM   31  F2  UNL     1      20.894 -16.455  23.181  1.00  0.00    -0.203 F 
HETATM   32  C18 UNL     1      19.494 -14.856  24.112  1.00  0.00     0.165 C 
HETATM   33  C19 UNL     1      19.587 -15.805  25.310  1.00  0.00     0.058 C 
HETATM   34  F3  UNL     1      19.715 -13.589  24.675  1.00  0.00    -0.237 F 
HETATM   35  C20 UNL     1      18.113 -14.894  23.601  1.00  0.00     0.058 C 
ENDBRANCH  18  26
ENDBRANCH  13  14
ENDBRANCH  12  13
ENDBRANCH   1  12
TORSDOF 8
ENDMDL
