MODEL 1
REMARK VINA RESULT: -7.122762787      0.000      0.000
REMARK  9 active torsions:
REMARK  status: ('A' for Active; 'I' for Inactive)
REMARK    1  A    between atoms: O1_2  and  C2_3 
REMARK    2  A    between atoms: C6_9  and  S1_10 
REMARK    3  A    between atoms: S1_10  and  N1_13 
REMARK    4  A    between atoms: N3_16  and  C7_17 
REMARK    5  A    between atoms: C7_17  and  C8_18 
REMARK    6  A    between atoms: C8_18  and  C9_19 
REMARK    7  A    between atoms: C9_19  and  C10_20 
REMARK    8  A    between atoms: C10_20  and  N4_21 
REMARK    9  A    between atoms: C13_24  and  N5_25 
ROOT
HETATM    1  N1  UNL     1      16.546 -14.249  22.106  1.00  0.00     0.015 N 
HETATM    2  N2  UNL     1      15.246 -14.047  22.229  1.00  0.00    -0.195 N 
ATOM      3  H2  UNL     1      14.467 -14.627  22.541  1.00  0.00     0.211 HD
HETATM    4  N3  UNL     1      15.347 -12.808  21.793  1.00  0.00    -0.106 N 
HETATM    5  C13 UNL     1      16.686 -13.010  21.664  1.00  0.00     0.726 A 
ENDROOT
BRANCH   1   6
HETATM    6  S1  UNL     1      17.529 -15.621  22.425  1.00  0.00     0.301 S 
HETATM    7  O2  UNL     1      16.727 -16.543  23.300  1.00  0.00    -0.198 OA
HETATM    8  O3  UNL     1      17.800 -16.408  21.151  1.00  0.00    -0.198 OA
BRANCH   6   9
HETATM    9  C6  UNL     1      19.059 -15.219  23.139  1.00  0.00     0.128 A 
HETATM   10  C5  UNL     1      20.141 -14.787  22.361  1.00  0.00     0.060 A 
HETATM   11  C4  UNL     1      21.364 -14.474  22.913  1.00  0.00     0.052 A 
HETATM   12 CL2  UNL     1      19.847 -14.666  20.633  1.00  0.00    -0.083 Cl
HETATM   13  C3  UNL     1      21.572 -14.576  24.270  1.00  0.00     0.070 A 
HETATM   14  C2  UNL     1      20.527 -14.997  25.050  1.00  0.00     0.113 A 
HETATM   15 CL1  UNL     1      23.134 -14.179  24.993  1.00  0.00    -0.081 Cl
HETATM   16  C14 UNL     1      19.286 -15.315  24.493  1.00  0.00     0.094 A 
HETATM   17 CL3  UNL     1      18.001 -15.863  25.536  1.00  0.00    -0.080 Cl
BRANCH  14  18
HETATM   18  O1  UNL     1      20.738 -15.102  26.433  1.00  0.00    -0.352 OA
HETATM   19  C1  UNL     1      20.662 -14.017  27.308  1.00  0.00     0.210 C 
ENDBRANCH  14  18
ENDBRANCH   6   9
ENDBRANCH   1   6
BRANCH   5  20
HETATM   20  N5  UNL     1      17.664 -12.247  21.260  1.00  0.00    -0.231 N 
ATOM     21  H52 UNL     1      18.288 -11.603  21.746  1.00  0.00     0.174 HD
ATOM     22  H51 UNL     1      18.128 -12.035  20.376  1.00  0.00     0.174 HD
ENDBRANCH   5  20
BRANCH   4  23
HETATM   23  C7  UNL     1      14.418 -11.744  21.569  1.00  0.00     0.170 C 
BRANCH  23  24
HETATM   24  C8  UNL     1      13.170 -12.150  20.855  1.00  0.00     0.024 C 
BRANCH  24  25
HETATM   25  C9  UNL     1      11.949 -12.214  21.743  1.00  0.00     0.032 C 
BRANCH  25  26
HETATM   26  C10 UNL     1      11.793 -10.902  22.483  1.00  0.00     0.271 C 
BRANCH  26  27
HETATM   27  N4  UNL     1      11.831 -11.126  23.919  1.00  0.00     0.080 N 
HETATM   28  C11 UNL     1      10.870 -12.159  24.252  1.00  0.00     0.309 C 
HETATM   29  C12 UNL     1      11.396  -9.912  24.595  1.00  0.00     0.309 C 
ENDBRANCH  26  27
ENDBRANCH  25  26
ENDBRANCH  24  25
ENDBRANCH  23  24
ENDBRANCH   4  23
TORSDOF 9
ENDMDL
MODEL 2
REMARK VINA RESULT: -6.680890240      1.774      2.179
REMARK  9 active torsions:
REMARK  status: ('A' for Active; 'I' for Inactive)
REMARK    1  A    between atoms: O1_2  and  C2_3 
REMARK    2  A    between atoms: C6_9  and  S1_10 
REMARK    3  A    between atoms: S1_10  and  N1_13 
REMARK    4  A    between atoms: N3_16  and  C7_17 
REMARK    5  A    between atoms: C7_17  and  C8_18 
REMARK    6  A    between atoms: C8_18  and  C9_19 
REMARK    7  A    between atoms: C9_19  and  C10_20 
REMARK    8  A    between atoms: C10_20  and  N4_21 
REMARK    9  A    between atoms: C13_24  and  N5_25 
ROOT
HETATM    1  N1  UNL     1      15.580 -14.876  21.695  1.00  0.00     0.015 N 
HETATM    2  N2  UNL     1      14.666 -14.210  22.379  1.00  0.00    -0.195 N 
ATOM      3  H2  UNL     1      14.329 -14.258  23.340  1.00  0.00     0.211 HD
HETATM    4  N3  UNL     1      14.359 -13.463  21.338  1.00  0.00    -0.106 N 
HETATM    5  C13 UNL     1      15.298 -14.145  20.628  1.00  0.00     0.726 A 
ENDROOT
BRANCH   1   6
HETATM    6  S1  UNL     1      16.636 -16.157  22.135  1.00  0.00     0.301 S 
HETATM    7  O2  UNL     1      15.776 -17.359  22.412  1.00  0.00    -0.198 OA
HETATM    8  O3  UNL     1      17.525 -16.558  20.968  1.00  0.00    -0.198 OA
BRANCH   6   9
HETATM    9  C6  UNL     1      17.661 -15.770  23.481  1.00  0.00     0.128 A 
HETATM   10  C5  UNL     1      18.540 -14.679  23.443  1.00  0.00     0.060 A 
HETATM   11  C4  UNL     1      19.367 -14.366  24.499  1.00  0.00     0.052 A 
HETATM   12 CL2  UNL     1      18.526 -13.729  21.965  1.00  0.00    -0.083 Cl
HETATM   13  C3  UNL     1      19.362 -15.125  25.649  1.00  0.00     0.070 A 
HETATM   14  C2  UNL     1      18.510 -16.197  25.706  1.00  0.00     0.113 A 
HETATM   15 CL1  UNL     1      20.416 -14.736  27.012  1.00  0.00    -0.081 Cl
HETATM   16  C14 UNL     1      17.670 -16.516  24.636  1.00  0.00     0.094 A 
HETATM   17 CL3  UNL     1      16.623 -17.903  24.764  1.00  0.00    -0.080 Cl
BRANCH  14  18
HETATM   18  O1  UNL     1      18.503 -16.970  26.876  1.00  0.00    -0.352 OA
HETATM   19  C1  UNL     1      19.205 -18.169  27.012  1.00  0.00     0.210 C 
ENDBRANCH  14  18
ENDBRANCH   6   9
ENDBRANCH   1   6
BRANCH   5  20
HETATM   20  N5  UNL     1      15.711 -14.063  19.393  1.00  0.00    -0.231 N 
ATOM     21  H52 UNL     1      16.637 -14.103  18.967  1.00  0.00     0.174 HD
ATOM     22  H51 UNL     1      15.288 -13.939  18.473  1.00  0.00     0.174 HD
ENDBRANCH   5  20
BRANCH   4  23
HETATM   23  C7  UNL     1      13.430 -12.401  21.103  1.00  0.00     0.170 C 
BRANCH  23  24
HETATM   24  C8  UNL     1      13.890 -11.059  21.570  1.00  0.00     0.024 C 
BRANCH  24  25
HETATM   25  C9  UNL     1      12.954 -10.400  22.557  1.00  0.00     0.032 C 
BRANCH  25  26
HETATM   26  C10 UNL     1      11.634 -11.142  22.575  1.00  0.00     0.271 C 
BRANCH  26  27
HETATM   27  N4  UNL     1      10.929 -10.885  23.819  1.00  0.00     0.080 N 
HETATM   28  C11 UNL     1      11.642  -9.857  24.552  1.00  0.00     0.309 C 
HETATM   29  C12 UNL     1      10.967 -12.088  24.637  1.00  0.00     0.309 C 
ENDBRANCH  26  27
ENDBRANCH  25  26
ENDBRANCH  24  25
ENDBRANCH  23  24
ENDBRANCH   4  23
TORSDOF 9
ENDMDL
MODEL 3
REMARK VINA RESULT: -6.628295183      4.068      7.836
REMARK  9 active torsions:
REMARK  status: ('A' for Active; 'I' for Inactive)
REMARK    1  A    between atoms: O1_2  and  C2_3 
REMARK    2  A    between atoms: C6_9  and  S1_10 
REMARK    3  A    between atoms: S1_10  and  N1_13 
REMARK    4  A    between atoms: N3_16  and  C7_17 
REMARK    5  A    between atoms: C7_17  and  C8_18 
REMARK    6  A    between atoms: C8_18  and  C9_19 
REMARK    7  A    between atoms: C9_19  and  C10_20 
REMARK    8  A    between atoms: C10_20  and  N4_21 
REMARK    9  A    between atoms: C13_24  and  N5_25 
ROOT
HETATM    1  N1  UNL     1      15.929 -12.935  20.038  1.00  0.00     0.015 N 
HETATM    2  N2  UNL     1      16.971 -12.542  19.327  1.00  0.00    -0.195 N 
ATOM      3  H2  UNL     1      17.083 -12.162  18.387  1.00  0.00     0.211 HD
HETATM    4  N3  UNL     1      17.809 -12.832  20.302  1.00  0.00    -0.106 N 
HETATM    5  C13 UNL     1      16.740 -13.238  21.039  1.00  0.00     0.726 A 
ENDROOT
BRANCH   1   6
HETATM    6  S1  UNL     1      14.249 -12.983  19.682  1.00  0.00     0.301 S 
HETATM    7  O2  UNL     1      13.977 -11.881  18.696  1.00  0.00    -0.198 OA
HETATM    8  O3  UNL     1      13.879 -14.270  18.960  1.00  0.00    -0.198 OA
BRANCH   6   9
HETATM    9  C6  UNL     1      13.244 -12.853  21.091  1.00  0.00     0.128 A 
HETATM   10  C5  UNL     1      12.893 -13.980  21.847  1.00  0.00     0.060 A 
HETATM   11  C4  UNL     1      12.087 -13.893  22.961  1.00  0.00     0.052 A 
HETATM   12 CL2  UNL     1      13.540 -15.515  21.290  1.00  0.00    -0.083 Cl
HETATM   13  C3  UNL     1      11.591 -12.679  23.381  1.00  0.00     0.070 A 
HETATM   14  C2  UNL     1      11.922 -11.564  22.655  1.00  0.00     0.113 A 
HETATM   15 CL1  UNL     1      10.557 -12.552  24.807  1.00  0.00    -0.081 Cl
HETATM   16  C14 UNL     1      12.738 -11.650  21.525  1.00  0.00     0.094 A 
HETATM   17 CL3  UNL     1      13.109 -10.198  20.633  1.00  0.00    -0.080 Cl
BRANCH  14  18
HETATM   18  O1  UNL     1      11.416 -10.327  23.081  1.00  0.00    -0.352 OA
HETATM   19  C1  UNL     1      12.023  -9.544  24.064  1.00  0.00     0.210 C 
ENDBRANCH  14  18
ENDBRANCH   6   9
ENDBRANCH   1   6
BRANCH   5  20
HETATM   20  N5  UNL     1      16.624 -13.723  22.244  1.00  0.00    -0.231 N 
ATOM     21  H52 UNL     1      16.519 -14.672  22.604  1.00  0.00     0.174 HD
ATOM     22  H51 UNL     1      16.601 -13.356  23.196  1.00  0.00     0.174 HD
ENDBRANCH   5  20
BRANCH   4  23
HETATM   23  C7  UNL     1      19.226 -12.740  20.468  1.00  0.00     0.170 C 
BRANCH  23  24
HETATM   24  C8  UNL     1      19.975 -13.981  20.106  1.00  0.00     0.024 C 
BRANCH  24  25
HETATM   25  C9  UNL     1      20.023 -15.011  21.210  1.00  0.00     0.032 C 
BRANCH  25  26
HETATM   26  C10 UNL     1      20.619 -14.390  22.456  1.00  0.00     0.271 C 
BRANCH  26  27
HETATM   27  N4  UNL     1      19.731 -14.582  23.590  1.00  0.00     0.080 N 
HETATM   28  C11 UNL     1      20.482 -14.360  24.810  1.00  0.00     0.309 C 
HETATM   29  C12 UNL     1      19.294 -15.971  23.613  1.00  0.00     0.309 C 
ENDBRANCH  26  27
ENDBRANCH  25  26
ENDBRANCH  24  25
ENDBRANCH  23  24
ENDBRANCH   4  23
TORSDOF 9
ENDMDL
MODEL 4
REMARK VINA RESULT: -6.586821706      3.283      7.982
REMARK  9 active torsions:
REMARK  status: ('A' for Active; 'I' for Inactive)
REMARK    1  A    between atoms: O1_2  and  C2_3 
REMARK    2  A    between atoms: C6_9  and  S1_10 
REMARK    3  A    between atoms: S1_10  and  N1_13 
REMARK    4  A    between atoms: N3_16  and  C7_17 
REMARK    5  A    between atoms: C7_17  and  C8_18 
REMARK    6  A    between atoms: C8_18  and  C9_19 
REMARK    7  A    between atoms: C9_19  and  C10_20 
REMARK    8  A    between atoms: C10_20  and  N4_21 
REMARK    9  A    between atoms: C13_24  and  N5_25 
ROOT
HETATM    1  N1  UNL     1      17.474 -15.374  23.083  1.00  0.00     0.015 N 
HETATM    2  N2  UNL     1      17.360 -15.122  24.375  1.00  0.00    -0.195 N 
ATOM      3  H2  UNL     1      16.570 -14.939  24.993  1.00  0.00     0.211 HD
HETATM    4  N3  UNL     1      18.664 -15.200  24.556  1.00  0.00    -0.106 N 
HETATM    5  C13 UNL     1      18.787 -15.459  23.226  1.00  0.00     0.726 A 
ENDROOT
BRANCH   1   6
HETATM    6  S1  UNL     1      16.304 -15.506  21.832  1.00  0.00     0.301 S 
HETATM    7  O2  UNL     1      17.049 -15.822  20.565  1.00  0.00    -0.198 OA
HETATM    8  O3  UNL     1      15.385 -16.695  22.066  1.00  0.00    -0.198 OA
BRANCH   6   9
HETATM    9  C6  UNL     1      15.314 -14.090  21.665  1.00  0.00     0.128 A 
HETATM   10  C5  UNL     1      15.869 -12.838  21.373  1.00  0.00     0.060 A 
HETATM   11  C4  UNL     1      15.096 -11.704  21.248  1.00  0.00     0.052 A 
HETATM   12 CL2  UNL     1      17.614 -12.795  21.175  1.00  0.00    -0.083 Cl
HETATM   13  C3  UNL     1      13.729 -11.760  21.407  1.00  0.00     0.070 A 
HETATM   14  C2  UNL     1      13.166 -12.976  21.694  1.00  0.00     0.113 A 
HETATM   15 CL1  UNL     1      12.726 -10.315  21.250  1.00  0.00    -0.081 Cl
HETATM   16  C14 UNL     1      13.947 -14.127  21.821  1.00  0.00     0.094 A 
HETATM   17 CL3  UNL     1      13.173 -15.641  22.205  1.00  0.00    -0.080 Cl
BRANCH  14  18
HETATM   18  O1  UNL     1      11.774 -13.034  21.857  1.00  0.00    -0.352 OA
HETATM   19  C1  UNL     1      11.122 -12.697  23.044  1.00  0.00     0.210 C 
ENDBRANCH  14  18
ENDBRANCH   6   9
ENDBRANCH   1   6
BRANCH   5  20
HETATM   20  N5  UNL     1      19.815 -15.691  22.458  1.00  0.00    -0.231 N 
ATOM     21  H52 UNL     1      20.025 -15.456  21.488  1.00  0.00     0.174 HD
ATOM     22  H51 UNL     1      20.719 -16.158  22.543  1.00  0.00     0.174 HD
ENDBRANCH   5  20
BRANCH   4  23
HETATM   23  C7  UNL     1      19.530 -15.063  25.685  1.00  0.00     0.170 C 
BRANCH  23  24
HETATM   24  C8  UNL     1      20.348 -13.813  25.692  1.00  0.00     0.024 C 
BRANCH  24  25
HETATM   25  C9  UNL     1      21.826 -14.050  25.898  1.00  0.00     0.032 C 
BRANCH  25  26
HETATM   26  C10 UNL     1      22.144 -15.508  25.643  1.00  0.00     0.271 C 
BRANCH  26  27
HETATM   27  N4  UNL     1      22.999 -15.642  24.476  1.00  0.00     0.080 N 
HETATM   28  C11 UNL     1      23.910 -16.749  24.693  1.00  0.00     0.309 C 
HETATM   29  C12 UNL     1      23.817 -14.444  24.353  1.00  0.00     0.309 C 
ENDBRANCH  26  27
ENDBRANCH  25  26
ENDBRANCH  24  25
ENDBRANCH  23  24
ENDBRANCH   4  23
TORSDOF 9
ENDMDL
MODEL 5
REMARK VINA RESULT: -6.578382867      2.237      2.943
REMARK  9 active torsions:
REMARK  status: ('A' for Active; 'I' for Inactive)
REMARK    1  A    between atoms: O1_2  and  C2_3 
REMARK    2  A    between atoms: C6_9  and  S1_10 
REMARK    3  A    between atoms: S1_10  and  N1_13 
REMARK    4  A    between atoms: N3_16  and  C7_17 
REMARK    5  A    between atoms: C7_17  and  C8_18 
REMARK    6  A    between atoms: C8_18  and  C9_19 
REMARK    7  A    between atoms: C9_19  and  C10_20 
REMARK    8  A    between atoms: C10_20  and  N4_21 
REMARK    9  A    between atoms: C13_24  and  N5_25 
ROOT
HETATM    1  N1  UNL     1      15.710 -12.563  20.130  1.00  0.00     0.015 N 
HETATM    2  N2  UNL     1      15.700 -11.404  20.765  1.00  0.00    -0.195 N 
ATOM      3  H2  UNL     1      16.428 -10.799  21.144  1.00  0.00     0.211 HD
HETATM    4  N3  UNL     1      14.384 -11.334  20.718  1.00  0.00    -0.106 N 
HETATM    5  C13 UNL     1      14.389 -12.527  20.065  1.00  0.00     0.726 A 
ENDROOT
BRANCH   1   6
HETATM    6  S1  UNL     1      16.995 -13.596  19.649  1.00  0.00     0.301 S 
HETATM    7  O2  UNL     1      16.370 -14.856  19.117  1.00  0.00    -0.198 OA
HETATM    8  O3  UNL     1      17.765 -13.004  18.479  1.00  0.00    -0.198 OA
BRANCH   6   9
HETATM    9  C6  UNL     1      18.127 -13.924  20.923  1.00  0.00     0.128 A 
HETATM   10  C5  UNL     1      19.508 -13.798  20.727  1.00  0.00     0.060 A 
HETATM   11  C4  UNL     1      20.419 -14.065  21.726  1.00  0.00     0.052 A 
HETATM   12 CL2  UNL     1      20.015 -13.278  19.127  1.00  0.00    -0.083 Cl
HETATM   13  C3  UNL     1      20.000 -14.471  22.973  1.00  0.00     0.070 A 
HETATM   14  C2  UNL     1      18.652 -14.601  23.186  1.00  0.00     0.113 A 
HETATM   15 CL1  UNL     1      21.155 -14.816  24.264  1.00  0.00    -0.081 Cl
HETATM   16  C14 UNL     1      17.727 -14.331  22.175  1.00  0.00     0.094 A 
HETATM   17 CL3  UNL     1      16.027 -14.533  22.504  1.00  0.00    -0.080 Cl
BRANCH  14  18
HETATM   18  O1  UNL     1      18.224 -15.014  24.457  1.00  0.00    -0.352 OA
HETATM   19  C1  UNL     1      18.068 -16.353  24.819  1.00  0.00     0.210 C 
ENDBRANCH  14  18
ENDBRANCH   6   9
ENDBRANCH   1   6
BRANCH   5  20
HETATM   20  N5  UNL     1      13.438 -13.282  19.588  1.00  0.00    -0.231 N 
ATOM     21  H52 UNL     1      13.150 -14.241  19.782  1.00  0.00     0.174 HD
ATOM     22  H51 UNL     1      12.690 -13.194  18.899  1.00  0.00     0.174 HD
ENDBRANCH   5  20
BRANCH   4  23
HETATM   23  C7  UNL     1      13.413 -10.388  21.174  1.00  0.00     0.170 C 
BRANCH  23  24
HETATM   24  C8  UNL     1      13.412 -10.162  22.651  1.00  0.00     0.024 C 
BRANCH  24  25
HETATM   25  C9  UNL     1      12.092 -10.474  23.316  1.00  0.00     0.032 C 
BRANCH  25  26
HETATM   26  C10 UNL     1      11.283 -11.396  22.428  1.00  0.00     0.271 C 
BRANCH  26  27
HETATM   27  N4  UNL     1      11.016 -12.649  23.114  1.00  0.00     0.080 N 
HETATM   28  C11 UNL     1      10.919 -12.387  24.537  1.00  0.00     0.309 C 
HETATM   29  C12 UNL     1      12.153 -13.538  22.926  1.00  0.00     0.309 C 
ENDBRANCH  26  27
ENDBRANCH  25  26
ENDBRANCH  24  25
ENDBRANCH  23  24
ENDBRANCH   4  23
TORSDOF 9
ENDMDL
