MODEL 1
REMARK VINA RESULT: -8.119388027      0.000      0.000
REMARK  11 active torsions:
REMARK  status: ('A' for Active; 'I' for Inactive)
REMARK    1  A    between atoms: C6_8  and  N2_9 
REMARK    2  A    between atoms: N2_9  and  C7_10 
REMARK    3  A    between atoms: C7_10  and  C8_11 
REMARK    4  A    between atoms: C8_11  and  N3_12 
REMARK    5  A    between atoms: C11_15  and  C12_16 
REMARK    6  A    between atoms: C11_15  and  C13_19 
REMARK    7  A    between atoms: C12_16  and  O1_17 
REMARK    8  A    between atoms: C15_21  and  N4_22 
REMARK    9  A    between atoms: N4_22  and  C16_24 
REMARK   10  A    between atoms: N5_28  and  C20_29 
REMARK   11  A    between atoms: C20_29  and  C21_30 
ROOT
HETATM    1  N1  UNL     1      24.031 -14.472  23.860  1.00  0.00    -0.196 NA
HETATM    2  C1  UNL     1      23.109 -14.852  24.421  1.00  0.00     0.071 C 
HETATM    3  C2  UNL     1      21.929 -15.336  25.113  1.00  0.00     0.155 C 
HETATM    4  C3  UNL     1      21.879 -14.787  26.515  1.00  0.00     0.064 C 
HETATM    5  C4  UNL     1      20.578 -14.046  26.648  1.00  0.00     0.178 C 
HETATM    6  F1  UNL     1      20.759 -12.734  26.287  1.00  0.00    -0.249 F 
HETATM    7  C5  UNL     1      19.710 -14.701  25.594  1.00  0.00     0.106 C 
HETATM    8  C6  UNL     1      20.666 -14.825  24.455  1.00  0.00     0.081 C 
ENDROOT
BRANCH   8   9
HETATM    9  N2  UNL     1      20.503 -14.597  23.313  1.00  0.00    -0.428 NA
BRANCH   9  10
HETATM   10  C7  UNL     1      20.312 -14.353  22.024  1.00  0.00     0.184 C 
BRANCH  10  11
HETATM   11  C8  UNL     1      19.223 -15.151  21.324  1.00  0.00     0.331 C 
BRANCH  11  12
HETATM   12  N3  UNL     1      18.010 -14.389  21.239  1.00  0.00     0.095 N 
HETATM   13  C9  UNL     1      18.209 -13.115  20.575  1.00  0.00     0.273 C 
HETATM   14  C10 UNL     1      16.994 -12.920  19.678  1.00  0.00     0.046 C 
HETATM   15  C11 UNL     1      16.031 -13.991  20.007  1.00  0.00     0.040 C 
HETATM   16  C22 UNL     1      16.977 -15.079  20.550  1.00  0.00     0.286 C 
BRANCH  15  17
HETATM   17  C12 UNL     1      15.436 -14.589  18.744  1.00  0.00     0.177 C 
BRANCH  17  18
HETATM   18  O1  UNL     1      15.367 -13.681  17.702  1.00  0.00    -0.400 OA
ATOM     19  H1  UNL     1      15.828 -13.976  16.926  1.00  0.00     0.209 HD
ENDBRANCH  17  18
ENDBRANCH  15  17
BRANCH  15  20
HETATM   20  C13 UNL     1      14.980 -13.746  21.006  1.00  0.00     0.237 C 
HETATM   21  C14 UNL     1      14.907 -12.399  21.636  1.00  0.00     0.063 C 
HETATM   22  C15 UNL     1      13.414 -12.197  21.801  1.00  0.00     0.107 C 
HETATM   23  C19 UNL     1      12.927 -12.869  20.528  1.00  0.00     0.298 C 
HETATM   24  N5  UNL     1      13.620 -14.119  20.579  1.00  0.00     0.104 N 
BRANCH  22  25
HETATM   25  N4  UNL     1      12.993 -10.904  22.053  1.00  0.00    -0.411 N 
ATOM     26  H4  UNL     1      13.597 -10.147  21.733  1.00  0.00     0.154 HD
BRANCH  25  27
HETATM   27  C16 UNL     1      11.823 -10.553  22.701  1.00  0.00     0.077 A 
HETATM   28  C17 UNL     1      11.413 -11.295  23.964  1.00  0.00     0.027 A 
HETATM   29  C18 UNL     1      11.937  -9.892  24.073  1.00  0.00     0.027 A 
ENDBRANCH  25  27
ENDBRANCH  22  25
BRANCH  24  30
HETATM   30  C20 UNL     1      13.088 -15.149  21.388  1.00  0.00     0.389 C 
BRANCH  30  31
HETATM   31  C21 UNL     1      12.638 -16.364  20.693  1.00  0.00     0.413 C 
HETATM   32  F2  UNL     1      13.616 -17.264  20.389  1.00  0.00    -0.169 F 
HETATM   33  F3  UNL     1      11.553 -16.986  21.309  1.00  0.00    -0.169 F 
HETATM   34  F4  UNL     1      12.119 -15.952  19.443  1.00  0.00    -0.169 F 
ENDBRANCH  30  31
ENDBRANCH  24  30
ENDBRANCH  15  20
ENDBRANCH  11  12
ENDBRANCH  10  11
ENDBRANCH   9  10
ENDBRANCH   8   9
TORSDOF 11
ENDMDL
MODEL 2
REMARK VINA RESULT: -8.093296074      2.228      3.604
REMARK  11 active torsions:
REMARK  status: ('A' for Active; 'I' for Inactive)
REMARK    1  A    between atoms: C6_8  and  N2_9 
REMARK    2  A    between atoms: N2_9  and  C7_10 
REMARK    3  A    between atoms: C7_10  and  C8_11 
REMARK    4  A    between atoms: C8_11  and  N3_12 
REMARK    5  A    between atoms: C11_15  and  C12_16 
REMARK    6  A    between atoms: C11_15  and  C13_19 
REMARK    7  A    between atoms: C12_16  and  O1_17 
REMARK    8  A    between atoms: C15_21  and  N4_22 
REMARK    9  A    between atoms: N4_22  and  C16_24 
REMARK   10  A    between atoms: N5_28  and  C20_29 
REMARK   11  A    between atoms: C20_29  and  C21_30 
ROOT
HETATM    1  N1  UNL     1      23.675 -14.322  23.545  1.00  0.00    -0.196 NA
HETATM    2  C1  UNL     1      22.898 -14.766  24.259  1.00  0.00     0.071 C 
HETATM    3  C2  UNL     1      21.899 -15.332  25.146  1.00  0.00     0.155 C 
HETATM    4  C3  UNL     1      22.042 -14.761  26.533  1.00  0.00     0.064 C 
HETATM    5  C4  UNL     1      20.725 -14.129  26.882  1.00  0.00     0.178 C 
HETATM    6  F1  UNL     1      20.728 -12.813  26.488  1.00  0.00    -0.249 F 
HETATM    7  C5  UNL     1      19.748 -14.874  25.997  1.00  0.00     0.106 C 
HETATM    8  C6  UNL     1      20.503 -14.941  24.712  1.00  0.00     0.081 C 
ENDROOT
BRANCH   8   9
HETATM    9  N2  UNL     1      20.129 -14.751  23.613  1.00  0.00    -0.428 NA
BRANCH   9  10
HETATM   10  C7  UNL     1      19.706 -14.522  22.378  1.00  0.00     0.184 C 
BRANCH  10  11
HETATM   11  C8  UNL     1      18.580 -15.403  21.859  1.00  0.00     0.331 C 
BRANCH  11  12
HETATM   12  N3  UNL     1      17.440 -14.610  21.498  1.00  0.00     0.095 N 
HETATM   13  C9  UNL     1      17.576 -13.229  21.921  1.00  0.00     0.273 C 
HETATM   14  C10 UNL     1      17.034 -12.388  20.773  1.00  0.00     0.046 C 
HETATM   15  C11 UNL     1      16.412 -13.316  19.807  1.00  0.00     0.040 C 
HETATM   16  C22 UNL     1      17.192 -14.611  20.100  1.00  0.00     0.286 C 
BRANCH  15  17
HETATM   17  C12 UNL     1      16.791 -12.947  18.383  1.00  0.00     0.177 C 
BRANCH  17  18
HETATM   18  O1  UNL     1      16.285 -11.719  17.994  1.00  0.00    -0.400 OA
ATOM     19  H1  UNL     1      15.734 -11.776  17.222  1.00  0.00     0.209 HD
ENDBRANCH  17  18
ENDBRANCH  15  17
BRANCH  15  20
HETATM   20  C13 UNL     1      14.974 -13.608  19.898  1.00  0.00     0.237 C 
HETATM   21  C14 UNL     1      14.550 -15.031  20.000  1.00  0.00     0.063 C 
HETATM   22  C15 UNL     1      13.351 -14.950  20.925  1.00  0.00     0.107 C 
HETATM   23  C19 UNL     1      13.830 -13.851  21.860  1.00  0.00     0.298 C 
HETATM   24  N5  UNL     1      14.251 -12.847  20.933  1.00  0.00     0.104 N 
BRANCH  22  25
HETATM   25  N4  UNL     1      12.927 -16.139  21.487  1.00  0.00    -0.411 N 
ATOM     26  H4  UNL     1      13.531 -16.565  22.189  1.00  0.00     0.154 HD
BRANCH  25  27
HETATM   27  C16 UNL     1      11.751 -16.799  21.177  1.00  0.00     0.077 A 
HETATM   28  C17 UNL     1      11.524 -17.299  19.759  1.00  0.00     0.027 A 
HETATM   29  C18 UNL     1      11.835 -18.288  20.845  1.00  0.00     0.027 A 
ENDBRANCH  25  27
ENDBRANCH  22  25
BRANCH  24  30
HETATM   30  C20 UNL     1      13.269 -12.005  20.364  1.00  0.00     0.389 C 
BRANCH  30  31
HETATM   31  C21 UNL     1      12.729 -10.946  21.229  1.00  0.00     0.413 C 
HETATM   32  F2  UNL     1      11.515 -11.207  21.792  1.00  0.00    -0.169 F 
HETATM   33  F3  UNL     1      13.638 -10.489  22.182  1.00  0.00    -0.169 F 
HETATM   34  F4  UNL     1      12.514  -9.816  20.406  1.00  0.00    -0.169 F 
ENDBRANCH  30  31
ENDBRANCH  24  30
ENDBRANCH  15  20
ENDBRANCH  11  12
ENDBRANCH  10  11
ENDBRANCH   9  10
ENDBRANCH   8   9
TORSDOF 11
ENDMDL
MODEL 3
REMARK VINA RESULT: -7.838402766      2.640      4.256
REMARK  11 active torsions:
REMARK  status: ('A' for Active; 'I' for Inactive)
REMARK    1  A    between atoms: C6_8  and  N2_9 
REMARK    2  A    between atoms: N2_9  and  C7_10 
REMARK    3  A    between atoms: C7_10  and  C8_11 
REMARK    4  A    between atoms: C8_11  and  N3_12 
REMARK    5  A    between atoms: C11_15  and  C12_16 
REMARK    6  A    between atoms: C11_15  and  C13_19 
REMARK    7  A    between atoms: C12_16  and  O1_17 
REMARK    8  A    between atoms: C15_21  and  N4_22 
REMARK    9  A    between atoms: N4_22  and  C16_24 
REMARK   10  A    between atoms: N5_28  and  C20_29 
REMARK   11  A    between atoms: C20_29  and  C21_30 
ROOT
HETATM    1  N1  UNL     1      17.658 -17.556  24.088  1.00  0.00    -0.196 NA
HETATM    2  C1  UNL     1      18.035 -16.642  24.665  1.00  0.00     0.071 C 
HETATM    3  C2  UNL     1      18.511 -15.471  25.377  1.00  0.00     0.155 C 
HETATM    4  C3  UNL     1      19.481 -15.870  26.457  1.00  0.00     0.064 C 
HETATM    5  C4  UNL     1      20.766 -15.141  26.181  1.00  0.00     0.178 C 
HETATM    6  F1  UNL     1      21.565 -15.909  25.370  1.00  0.00    -0.249 F 
HETATM    7  C5  UNL     1      20.306 -13.943  25.377  1.00  0.00     0.106 C 
HETATM    8  C6  UNL     1      19.305 -14.565  24.462  1.00  0.00     0.081 C 
ENDROOT
BRANCH   8   9
HETATM    9  N2  UNL     1      19.144 -14.403  23.308  1.00  0.00    -0.428 NA
BRANCH   9  10
HETATM   10  C7  UNL     1      18.953 -14.208  22.011  1.00  0.00     0.184 C 
BRANCH  10  11
HETATM   11  C8  UNL     1      17.962 -15.127  21.313  1.00  0.00     0.331 C 
BRANCH  11  12
HETATM   12  N3  UNL     1      16.691 -14.480  21.158  1.00  0.00     0.095 N 
HETATM   13  C9  UNL     1      16.723 -13.097  21.597  1.00  0.00     0.273 C 
HETATM   14  C10 UNL     1      15.909 -12.317  20.573  1.00  0.00     0.046 C 
HETATM   15  C11 UNL     1      15.260 -13.304  19.687  1.00  0.00     0.040 C 
HETATM   16  C22 UNL     1      16.229 -14.495  19.815  1.00  0.00     0.286 C 
BRANCH  15  17
HETATM   17  C12 UNL     1      15.363 -12.875  18.234  1.00  0.00     0.177 C 
BRANCH  17  18
HETATM   18  O1  UNL     1      14.302 -12.082  17.832  1.00  0.00    -0.400 OA
ATOM     19  H1  UNL     1      14.464 -11.155  17.964  1.00  0.00     0.209 HD
ENDBRANCH  17  18
ENDBRANCH  15  17
BRANCH  15  20
HETATM   20  C13 UNL     1      13.900 -13.775  19.990  1.00  0.00     0.237 C 
HETATM   21  C14 UNL     1      13.598 -15.220  19.801  1.00  0.00     0.063 C 
HETATM   22  C15 UNL     1      12.638 -15.505  20.940  1.00  0.00     0.107 C 
HETATM   23  C19 UNL     1      13.250 -14.617  22.012  1.00  0.00     0.298 C 
HETATM   24  N5  UNL     1      13.387 -13.377  21.313  1.00  0.00     0.104 N 
BRANCH  22  25
HETATM   25  N4  UNL     1      12.425 -16.836  21.246  1.00  0.00    -0.411 N 
ATOM     26  H4  UNL     1      13.161 -17.320  21.760  1.00  0.00     0.154 HD
BRANCH  25  27
HETATM   27  C16 UNL     1      11.298 -17.566  20.913  1.00  0.00     0.077 A 
HETATM   28  C17 UNL     1      10.878 -17.674  19.455  1.00  0.00     0.027 A 
HETATM   29  C18 UNL     1      11.493 -18.865  20.133  1.00  0.00     0.027 A 
ENDBRANCH  25  27
ENDBRANCH  22  25
BRANCH  24  30
HETATM   30  C20 UNL     1      12.252 -12.543  21.197  1.00  0.00     0.389 C 
BRANCH  30  31
HETATM   31  C21 UNL     1      12.412 -11.148  21.636  1.00  0.00     0.413 C 
HETATM   32  F2  UNL     1      11.311 -10.581  22.205  1.00  0.00    -0.169 F 
HETATM   33  F3  UNL     1      13.548 -10.938  22.415  1.00  0.00    -0.169 F 
HETATM   34  F4  UNL     1      12.659 -10.380  20.474  1.00  0.00    -0.169 F 
ENDBRANCH  30  31
ENDBRANCH  24  30
ENDBRANCH  15  20
ENDBRANCH  11  12
ENDBRANCH  10  11
ENDBRANCH   9  10
ENDBRANCH   8   9
TORSDOF 11
ENDMDL
MODEL 4
REMARK VINA RESULT: -7.802102591      1.157      1.703
REMARK  11 active torsions:
REMARK  status: ('A' for Active; 'I' for Inactive)
REMARK    1  A    between atoms: C6_8  and  N2_9 
REMARK    2  A    between atoms: N2_9  and  C7_10 
REMARK    3  A    between atoms: C7_10  and  C8_11 
REMARK    4  A    between atoms: C8_11  and  N3_12 
REMARK    5  A    between atoms: C11_15  and  C12_16 
REMARK    6  A    between atoms: C11_15  and  C13_19 
REMARK    7  A    between atoms: C12_16  and  O1_17 
REMARK    8  A    between atoms: C15_21  and  N4_22 
REMARK    9  A    between atoms: N4_22  and  C16_24 
REMARK   10  A    between atoms: N5_28  and  C20_29 
REMARK   11  A    between atoms: C20_29  and  C21_30 
ROOT
HETATM    1  N1  UNL     1      18.401 -17.481  24.138  1.00  0.00    -0.196 NA
HETATM    2  C1  UNL     1      18.613 -16.494  24.677  1.00  0.00     0.071 C 
HETATM    3  C2  UNL     1      18.886 -15.232  25.339  1.00  0.00     0.155 C 
HETATM    4  C3  UNL     1      19.526 -15.470  26.682  1.00  0.00     0.064 C 
HETATM    5  C4  UNL     1      20.842 -14.745  26.674  1.00  0.00     0.178 C 
HETATM    6  F1  UNL     1      21.825 -15.584  26.209  1.00  0.00    -0.249 F 
HETATM    7  C5  UNL     1      20.624 -13.666  25.633  1.00  0.00     0.106 C 
HETATM    8  C6  UNL     1      19.904 -14.423  24.567  1.00  0.00     0.081 C 
ENDROOT
BRANCH   8   9
HETATM    9  N2  UNL     1      20.062 -14.406  23.401  1.00  0.00    -0.428 NA
BRANCH   9  10
HETATM   10  C7  UNL     1      20.225 -14.382  22.086  1.00  0.00     0.184 C 
BRANCH  10  11
HETATM   11  C8  UNL     1      19.196 -15.124  21.249  1.00  0.00     0.331 C 
BRANCH  11  12
HETATM   12  N3  UNL     1      17.970 -14.383  21.176  1.00  0.00     0.095 N 
HETATM   13  C9  UNL     1      18.140 -13.105  20.511  1.00  0.00     0.273 C 
HETATM   14  C10 UNL     1      16.913 -12.931  19.626  1.00  0.00     0.046 C 
HETATM   15  C11 UNL     1      15.972 -14.018  19.963  1.00  0.00     0.040 C 
HETATM   16  C22 UNL     1      16.942 -15.090  20.496  1.00  0.00     0.286 C 
BRANCH  15  17
HETATM   17  C12 UNL     1      15.376 -14.626  18.706  1.00  0.00     0.177 C 
BRANCH  17  18
HETATM   18  O1  UNL     1      15.206 -13.700  17.691  1.00  0.00    -0.400 OA
ATOM     19  H1  UNL     1      15.765 -13.869  16.942  1.00  0.00     0.209 HD
ENDBRANCH  17  18
ENDBRANCH  15  17
BRANCH  15  20
HETATM   20  C13 UNL     1      14.927 -13.792  20.973  1.00  0.00     0.237 C 
HETATM   21  C14 UNL     1      14.896 -12.478  21.672  1.00  0.00     0.063 C 
HETATM   22  C15 UNL     1      13.409 -12.236  21.846  1.00  0.00     0.107 C 
HETATM   23  C19 UNL     1      12.904 -12.826  20.538  1.00  0.00     0.298 C 
HETATM   24  N5  UNL     1      13.556 -14.098  20.525  1.00  0.00     0.104 N 
BRANCH  22  25
HETATM   25  N4  UNL     1      13.029 -10.946  22.163  1.00  0.00    -0.411 N 
ATOM     26  H4  UNL     1      13.690 -10.199  21.950  1.00  0.00     0.154 HD
BRANCH  25  27
HETATM   27  C16 UNL     1      11.828 -10.583  22.748  1.00  0.00     0.077 A 
HETATM   28  C17 UNL     1      11.359 -11.301  24.003  1.00  0.00     0.027 A 
HETATM   29  C18 UNL     1      11.876  -9.895  24.110  1.00  0.00     0.027 A 
ENDBRANCH  25  27
ENDBRANCH  22  25
BRANCH  24  30
HETATM   30  C20 UNL     1      12.990 -15.151  21.279  1.00  0.00     0.389 C 
BRANCH  30  31
HETATM   31  C21 UNL     1      12.386 -16.254  20.516  1.00  0.00     0.413 C 
HETATM   32  F2  UNL     1      13.265 -17.118  19.934  1.00  0.00    -0.169 F 
HETATM   33  F3  UNL     1      11.397 -16.939  21.220  1.00  0.00    -0.169 F 
HETATM   34  F4  UNL     1      11.682 -15.668  19.438  1.00  0.00    -0.169 F 
ENDBRANCH  30  31
ENDBRANCH  24  30
ENDBRANCH  15  20
ENDBRANCH  11  12
ENDBRANCH  10  11
ENDBRANCH   9  10
ENDBRANCH   8   9
TORSDOF 11
ENDMDL
MODEL 5
REMARK VINA RESULT: -7.783651797      2.611      3.968
REMARK  11 active torsions:
REMARK  status: ('A' for Active; 'I' for Inactive)
REMARK    1  A    between atoms: C6_8  and  N2_9 
REMARK    2  A    between atoms: N2_9  and  C7_10 
REMARK    3  A    between atoms: C7_10  and  C8_11 
REMARK    4  A    between atoms: C8_11  and  N3_12 
REMARK    5  A    between atoms: C11_15  and  C12_16 
REMARK    6  A    between atoms: C11_15  and  C13_19 
REMARK    7  A    between atoms: C12_16  and  O1_17 
REMARK    8  A    between atoms: C15_21  and  N4_22 
REMARK    9  A    between atoms: N4_22  and  C16_24 
REMARK   10  A    between atoms: N5_28  and  C20_29 
REMARK   11  A    between atoms: C20_29  and  C21_30 
ROOT
HETATM    1  N1  UNL     1      21.360 -17.482  22.769  1.00  0.00    -0.196 NA
HETATM    2  C1  UNL     1      21.025 -16.883  23.685  1.00  0.00     0.071 C 
HETATM    3  C2  UNL     1      20.586 -16.112  24.833  1.00  0.00     0.155 C 
HETATM    4  C3  UNL     1      21.729 -15.894  25.789  1.00  0.00     0.064 C 
HETATM    5  C4  UNL     1      21.882 -14.408  25.955  1.00  0.00     0.178 C 
HETATM    6  F1  UNL     1      22.758 -13.929  25.013  1.00  0.00    -0.249 F 
HETATM    7  C5  UNL     1      20.502 -13.888  25.610  1.00  0.00     0.106 C 
HETATM    8  C6  UNL     1      20.158 -14.720  24.421  1.00  0.00     0.081 C 
ENDROOT
BRANCH   8   9
HETATM    9  N2  UNL     1      19.666 -14.402  23.401  1.00  0.00    -0.428 NA
BRANCH   9  10
HETATM   10  C7  UNL     1      19.099 -14.051  22.255  1.00  0.00     0.184 C 
BRANCH  10  11
HETATM   11  C8  UNL     1      18.057 -14.998  21.682  1.00  0.00     0.331 C 
BRANCH  11  12
HETATM   12  N3  UNL     1      16.853 -14.291  21.355  1.00  0.00     0.095 N 
HETATM   13  C9  UNL     1      16.972 -12.865  21.595  1.00  0.00     0.273 C 
HETATM   14  C10 UNL     1      16.279 -12.188  20.420  1.00  0.00     0.046 C 
HETATM   15  C11 UNL     1      15.600 -13.244  19.643  1.00  0.00     0.040 C 
HETATM   16  C22 UNL     1      16.462 -14.470  20.001  1.00  0.00     0.286 C 
BRANCH  15  17
HETATM   17  C12 UNL     1      15.815 -13.041  18.154  1.00  0.00     0.177 C 
BRANCH  17  18
HETATM   18  O1  UNL     1      16.278 -11.773  17.846  1.00  0.00    -0.400 OA
ATOM     19  H1  UNL     1      17.141 -11.783  17.448  1.00  0.00     0.209 HD
ENDBRANCH  17  18
ENDBRANCH  15  17
BRANCH  15  20
HETATM   20  C13 UNL     1      14.193 -13.567  19.922  1.00  0.00     0.237 C 
HETATM   21  C14 UNL     1      13.785 -14.998  19.916  1.00  0.00     0.063 C 
HETATM   22  C15 UNL     1      12.747 -15.047  21.021  1.00  0.00     0.107 C 
HETATM   23  C19 UNL     1      13.372 -14.061  21.995  1.00  0.00     0.298 C 
HETATM   24  N5  UNL     1      13.646 -12.947  21.142  1.00  0.00     0.104 N 
BRANCH  22  25
HETATM   25  N4  UNL     1      12.412 -16.301  21.494  1.00  0.00    -0.411 N 
ATOM     26  H4  UNL     1      11.939 -16.348  22.396  1.00  0.00     0.154 HD
BRANCH  25  27
HETATM   27  C16 UNL     1      12.664 -17.498  20.846  1.00  0.00     0.077 A 
HETATM   28  C17 UNL     1      12.912 -18.755  21.664  1.00  0.00     0.027 A 
HETATM   29  C18 UNL     1      11.607 -18.596  20.938  1.00  0.00     0.027 A 
ENDBRANCH  25  27
ENDBRANCH  22  25
BRANCH  24  30
HETATM   30  C20 UNL     1      12.589 -12.058  20.840  1.00  0.00     0.389 C 
BRANCH  30  31
HETATM   31  C21 UNL     1      12.662 -10.720  21.447  1.00  0.00     0.413 C 
HETATM   32  F2  UNL     1      11.698 -10.440  22.370  1.00  0.00    -0.169 F 
HETATM   33  F3  UNL     1      13.929 -10.396  21.927  1.00  0.00    -0.169 F 
HETATM   34  F4  UNL     1      12.452  -9.787  20.405  1.00  0.00    -0.169 F 
ENDBRANCH  30  31
ENDBRANCH  24  30
ENDBRANCH  15  20
ENDBRANCH  11  12
ENDBRANCH  10  11
ENDBRANCH   9  10
ENDBRANCH   8   9
TORSDOF 11
ENDMDL
