MODEL 1
REMARK VINA RESULT: -2.756313171      0.000      0.000
REMARK  6 active torsions:
REMARK  status: ('A' for Active; 'I' for Inactive)
REMARK    1  A    between atoms: N1_1  and  C1_5 
REMARK    2  A    between atoms: C1_5  and  C2_6 
REMARK       I    between atoms: C2_6  and  N2_8 
REMARK    3  A    between atoms: N2_8  and  C3_9 
REMARK    4  A    between atoms: C3_9  and  C4_10 
REMARK    5  A    between atoms: C4_10  and  N3_11 
REMARK    6  A    between atoms: C10_19  and  O3_20 
ROOT
HETATM    1  N3  UNL     1      77.889  27.449  40.950  1.00  0.00    -0.048 N 
HETATM    2  C5  UNL     1      79.234  27.236  40.660  1.00  0.00     0.248 C 
HETATM    3  C6  UNL     1      79.611  26.911  39.255  1.00  0.00     0.068 C 
HETATM    4  C7  UNL     1      79.124  25.593  38.727  1.00  0.00     0.177 C 
HETATM    5  O2  UNL     1      78.192  26.190  37.883  1.00  0.00    -0.381 OA
HETATM    6  C8  UNL     1      78.755  27.432  38.185  1.00  0.00     0.173 C 
HETATM    7  C9  UNL     1      77.796  28.443  38.731  1.00  0.00     0.184 C 
HETATM    8  F1  UNL     1      76.944  28.749  37.656  1.00  0.00    -0.235 F 
HETATM    9  C10 UNL     1      78.545  29.634  39.230  1.00  0.00     0.168 C 
HETATM   10  C11 UNL     1      78.363  29.873  40.707  1.00  0.00     0.049 C 
HETATM   11  C12 UNL     1      77.297  30.990  40.778  1.00  0.00     0.010 C 
HETATM   12  C13 UNL     1      76.087  30.169  40.322  1.00  0.00     0.009 C 
HETATM   13  C14 UNL     1      76.317  28.764  40.748  1.00  0.00     0.052 C 
HETATM   14  C15 UNL     1      77.633  28.796  41.443  1.00  0.00     0.204 C 
HETATM   15  C16 UNL     1      77.033  27.839  39.835  1.00  0.00     0.242 C 
ENDROOT
BRANCH   1  16
HETATM   16  C4  UNL     1      77.217  26.462  41.730  1.00  0.00     0.298 C 
BRANCH  16  17
HETATM   17  C3  UNL     1      78.055  25.675  42.737  1.00  0.00     0.187 C 
BRANCH  17  18
HETATM   18  N2  UNL     1      77.430  25.798  43.981  1.00  0.00    -0.385 NA
HETATM   19  C2  UNL     1      76.831  25.915  45.172  1.00  0.00     0.316 C 
HETATM   20  O1  UNL     1      76.862  25.160  46.180  1.00  0.00    -0.255 OA
BRANCH  19  21
HETATM   21  C1  UNL     1      75.947  27.157  45.395  1.00  0.00     0.348 C 
BRANCH  21  22
HETATM   22  N1  UNL     1      75.275  27.540  44.193  1.00  0.00    -0.070 N 
ATOM     23  H13 UNL     1      74.267  27.601  44.331  1.00  0.00     0.274 HD
ATOM     24  H12 UNL     1      75.460  28.514  43.955  1.00  0.00     0.274 HD
ATOM     25  H11 UNL     1      75.510  26.915  43.421  1.00  0.00     0.274 HD
ENDBRANCH  21  22
ENDBRANCH  19  21
ENDBRANCH  17  18
ENDBRANCH  16  17
ENDBRANCH   1  16
BRANCH   9  26
HETATM   26  O3  UNL     1      78.132  30.736  38.458  1.00  0.00    -0.392 OA
ATOM     27  H3  UNL     1      78.680  31.471  38.704  1.00  0.00     0.210 HD
ENDBRANCH   9  26
TORSDOF 6
ENDMDL
MODEL 2
REMARK VINA RESULT: -2.348915452      1.274      3.196
REMARK  6 active torsions:
REMARK  status: ('A' for Active; 'I' for Inactive)
REMARK    1  A    between atoms: N1_1  and  C1_5 
REMARK    2  A    between atoms: C1_5  and  C2_6 
REMARK       I    between atoms: C2_6  and  N2_8 
REMARK    3  A    between atoms: N2_8  and  C3_9 
REMARK    4  A    between atoms: C3_9  and  C4_10 
REMARK    5  A    between atoms: C4_10  and  N3_11 
REMARK    6  A    between atoms: C10_19  and  O3_20 
ROOT
HETATM    1  N3  UNL     1      77.722  28.046  41.153  1.00  0.00    -0.048 N 
HETATM    2  C5  UNL     1      76.348  28.238  41.031  1.00  0.00     0.248 C 
HETATM    3  C6  UNL     1      75.854  29.602  40.688  1.00  0.00     0.068 C 
HETATM    4  C7  UNL     1      76.073  30.665  41.724  1.00  0.00     0.177 C 
HETATM    5  O2  UNL     1      77.055  31.302  40.972  1.00  0.00    -0.381 OA
HETATM    6  C8  UNL     1      76.738  30.466  39.899  1.00  0.00     0.173 C 
HETATM    7  C9  UNL     1      77.887  29.677  39.355  1.00  0.00     0.184 C 
HETATM    8  F1  UNL     1      78.729  30.630  38.757  1.00  0.00    -0.235 F 
HETATM    9  C10 UNL     1      77.388  28.660  38.382  1.00  0.00     0.168 C 
HETATM   10  C11 UNL     1      77.678  27.242  38.805  1.00  0.00     0.049 C 
HETATM   11  C12 UNL     1      78.929  26.855  37.983  1.00  0.00     0.010 C 
HETATM   12  C13 UNL     1      79.949  27.738  38.707  1.00  0.00     0.009 C 
HETATM   13  C14 UNL     1      79.492  27.886  40.113  1.00  0.00     0.052 C 
HETATM   14  C15 UNL     1      78.237  27.088  40.182  1.00  0.00     0.204 C 
HETATM   15  C16 UNL     1      78.581  29.003  40.464  1.00  0.00     0.242 C 
ENDROOT
BRANCH   1  16
HETATM   16  C4  UNL     1      78.242  27.809  42.459  1.00  0.00     0.298 C 
BRANCH  16  17
HETATM   17  C3  UNL     1      78.374  26.353  42.908  1.00  0.00     0.187 C 
BRANCH  17  18
HETATM   18  N2  UNL     1      77.629  26.213  44.081  1.00  0.00    -0.385 NA
HETATM   19  C2  UNL     1      76.915  26.079  45.206  1.00  0.00     0.316 C 
HETATM   20  O1  UNL     1      76.987  25.216  46.121  1.00  0.00    -0.255 OA
BRANCH  19  21
HETATM   21  C1  UNL     1      75.814  27.124  45.468  1.00  0.00     0.348 C 
BRANCH  21  22
HETATM   22  N1  UNL     1      75.239  27.592  44.246  1.00  0.00    -0.070 N 
ATOM     23  H13 UNL     1      75.643  27.120  43.438  1.00  0.00     0.274 HD
ATOM     24  H12 UNL     1      74.274  27.279  44.143  1.00  0.00     0.274 HD
ATOM     25  H11 UNL     1      75.315  28.605  44.164  1.00  0.00     0.274 HD
ENDBRANCH  21  22
ENDBRANCH  19  21
ENDBRANCH  17  18
ENDBRANCH  16  17
ENDBRANCH   1  16
BRANCH   9  26
HETATM   26  O3  UNL     1      77.955  28.969  37.131  1.00  0.00    -0.392 OA
ATOM     27  H3  UNL     1      78.746  28.452  37.048  1.00  0.00     0.210 HD
ENDBRANCH   9  26
TORSDOF 6
ENDMDL
MODEL 3
REMARK VINA RESULT: -2.138699364      0.995      1.025
REMARK  6 active torsions:
REMARK  status: ('A' for Active; 'I' for Inactive)
REMARK    1  A    between atoms: N1_1  and  C1_5 
REMARK    2  A    between atoms: C1_5  and  C2_6 
REMARK       I    between atoms: C2_6  and  N2_8 
REMARK    3  A    between atoms: N2_8  and  C3_9 
REMARK    4  A    between atoms: C3_9  and  C4_10 
REMARK    5  A    between atoms: C4_10  and  N3_11 
REMARK    6  A    between atoms: C10_19  and  O3_20 
ROOT
HETATM    1  N3  UNL     1      78.480  28.211  41.176  1.00  0.00    -0.048 N 
HETATM    2  C5  UNL     1      79.453  28.137  40.183  1.00  0.00     0.248 C 
HETATM    3  C6  UNL     1      79.094  27.482  38.893  1.00  0.00     0.068 C 
HETATM    4  C7  UNL     1      78.815  26.009  38.952  1.00  0.00     0.177 C 
HETATM    5  O2  UNL     1      77.450  26.183  38.746  1.00  0.00    -0.381 OA
HETATM    6  C8  UNL     1      77.691  27.532  38.473  1.00  0.00     0.173 C 
HETATM    7  C9  UNL     1      76.926  28.494  39.326  1.00  0.00     0.184 C 
HETATM    8  F1  UNL     1      75.586  28.340  38.932  1.00  0.00    -0.235 F 
HETATM    9  C10 UNL     1      77.434  29.881  39.107  1.00  0.00     0.168 C 
HETATM   10  C11 UNL     1      78.010  30.505  40.352  1.00  0.00     0.049 C 
HETATM   11  C12 UNL     1      76.875  31.413  40.876  1.00  0.00     0.010 C 
HETATM   12  C13 UNL     1      75.916  30.317  41.348  1.00  0.00     0.009 C 
HETATM   13  C14 UNL     1      76.740  29.149  41.754  1.00  0.00     0.052 C 
HETATM   14  C15 UNL     1      78.144  29.587  41.524  1.00  0.00     0.204 C 
HETATM   15  C16 UNL     1      77.091  28.123  40.741  1.00  0.00     0.242 C 
ENDROOT
BRANCH   1  16
HETATM   16  C4  UNL     1      78.657  27.400  42.336  1.00  0.00     0.298 C 
BRANCH  16  17
HETATM   17  C3  UNL     1      77.790  26.146  42.453  1.00  0.00     0.187 C 
BRANCH  17  18
HETATM   18  N2  UNL     1      77.302  26.101  43.761  1.00  0.00    -0.385 NA
HETATM   19  C2  UNL     1      76.834  26.059  45.015  1.00  0.00     0.316 C 
HETATM   20  O1  UNL     1      77.091  25.261  45.956  1.00  0.00    -0.255 OA
BRANCH  19  21
HETATM   21  C1  UNL     1      75.812  27.137  45.420  1.00  0.00     0.348 C 
BRANCH  21  22
HETATM   22  N1  UNL     1      75.131  27.663  44.280  1.00  0.00    -0.070 N 
ATOM     23  H13 UNL     1      75.187  28.681  44.247  1.00  0.00     0.274 HD
ATOM     24  H12 UNL     1      75.629  27.451  43.416  1.00  0.00     0.274 HD
ATOM     25  H11 UNL     1      74.164  27.342  44.243  1.00  0.00     0.274 HD
ENDBRANCH  21  22
ENDBRANCH  19  21
ENDBRANCH  17  18
ENDBRANCH  16  17
ENDBRANCH   1  16
BRANCH   9  26
HETATM   26  O3  UNL     1      76.369  30.634  38.578  1.00  0.00    -0.392 OA
ATOM     27  H3  UNL     1      76.668  31.003  37.756  1.00  0.00     0.210 HD
ENDBRANCH   9  26
TORSDOF 6
ENDMDL
MODEL 4
REMARK VINA RESULT: -1.313093577      2.504      4.992
REMARK  6 active torsions:
REMARK  status: ('A' for Active; 'I' for Inactive)
REMARK    1  A    between atoms: N1_1  and  C1_5 
REMARK    2  A    between atoms: C1_5  and  C2_6 
REMARK       I    between atoms: C2_6  and  N2_8 
REMARK    3  A    between atoms: N2_8  and  C3_9 
REMARK    4  A    between atoms: C3_9  and  C4_10 
REMARK    5  A    between atoms: C4_10  and  N3_11 
REMARK    6  A    between atoms: C10_19  and  O3_20 
ROOT
HETATM    1  N3  UNL     1      78.059  27.919  41.124  1.00  0.00    -0.048 N 
HETATM    2  C5  UNL     1      77.186  27.566  40.099  1.00  0.00     0.248 C 
HETATM    3  C6  UNL     1      77.554  26.418  39.223  1.00  0.00     0.068 C 
HETATM    4  C7  UNL     1      78.758  26.611  38.348  1.00  0.00     0.177 C 
HETATM    5  O2  UNL     1      79.535  25.732  39.095  1.00  0.00    -0.381 OA
HETATM    6  C8  UNL     1      78.389  25.362  39.802  1.00  0.00     0.173 C 
HETATM    7  C9  UNL     1      78.484  25.528  41.286  1.00  0.00     0.184 C 
HETATM    8  F1  UNL     1      79.419  24.565  41.699  1.00  0.00    -0.235 F 
HETATM    9  C10 UNL     1      77.140  25.329  41.905  1.00  0.00     0.168 C 
HETATM   10  C11 UNL     1      76.630  26.552  42.624  1.00  0.00     0.049 C 
HETATM   11  C12 UNL     1      76.935  26.267  44.112  1.00  0.00     0.010 C 
HETATM   12  C13 UNL     1      78.459  26.405  44.055  1.00  0.00     0.009 C 
HETATM   13  C14 UNL     1      78.777  27.377  42.977  1.00  0.00     0.052 C 
HETATM   14  C15 UNL     1      77.450  27.788  42.442  1.00  0.00     0.204 C 
HETATM   15  C16 UNL     1      78.973  26.883  41.591  1.00  0.00     0.242 C 
ENDROOT
BRANCH   1  16
HETATM   16  C4  UNL     1      78.774  29.145  40.991  1.00  0.00     0.298 C 
BRANCH  16  17
HETATM   17  C3  UNL     1      78.462  30.009  39.769  1.00  0.00     0.187 C 
BRANCH  17  18
HETATM   18  N2  UNL     1      77.144  30.452  39.901  1.00  0.00    -0.385 NA
HETATM   19  C2  UNL     1      75.880  30.876  40.029  1.00  0.00     0.316 C 
HETATM   20  O1  UNL     1      75.340  31.575  40.927  1.00  0.00    -0.255 OA
BRANCH  19  21
HETATM   21  C1  UNL     1      74.887  30.468  38.925  1.00  0.00     0.348 C 
BRANCH  21  22
HETATM   22  N1  UNL     1      73.806  31.397  38.827  1.00  0.00    -0.070 N 
ATOM     23  H13 UNL     1      74.136  32.361  38.877  1.00  0.00     0.274 HD
ATOM     24  H12 UNL     1      73.413  31.416  37.887  1.00  0.00     0.274 HD
ATOM     25  H11 UNL     1      73.091  31.210  39.529  1.00  0.00     0.274 HD
ENDBRANCH  21  22
ENDBRANCH  19  21
ENDBRANCH  17  18
ENDBRANCH  16  17
ENDBRANCH   1  16
BRANCH   9  26
HETATM   26  O3  UNL     1      77.238  24.213  42.758  1.00  0.00    -0.392 OA
ATOM     27  H3  UNL     1      76.380  23.807  42.787  1.00  0.00     0.210 HD
ENDBRANCH   9  26
TORSDOF 6
ENDMDL
MODEL 5
REMARK VINA RESULT: -0.929195279      1.589      3.413
REMARK  6 active torsions:
REMARK  status: ('A' for Active; 'I' for Inactive)
REMARK    1  A    between atoms: N1_1  and  C1_5 
REMARK    2  A    between atoms: C1_5  and  C2_6 
REMARK       I    between atoms: C2_6  and  N2_8 
REMARK    3  A    between atoms: N2_8  and  C3_9 
REMARK    4  A    between atoms: C3_9  and  C4_10 
REMARK    5  A    between atoms: C4_10  and  N3_11 
REMARK    6  A    between atoms: C10_19  and  O3_20 
ROOT
HETATM    1  N3  UNL     1      77.755  28.280  41.034  1.00  0.00    -0.048 N 
HETATM    2  C5  UNL     1      76.374  28.431  40.929  1.00  0.00     0.248 C 
HETATM    3  C6  UNL     1      75.842  29.745  40.470  1.00  0.00     0.068 C 
HETATM    4  C7  UNL     1      76.059  30.907  41.394  1.00  0.00     0.177 C 
HETATM    5  O2  UNL     1      77.009  31.488  40.560  1.00  0.00    -0.381 OA
HETATM    6  C8  UNL     1      76.687  30.547  39.580  1.00  0.00     0.173 C 
HETATM    7  C9  UNL     1      77.840  29.733  39.085  1.00  0.00     0.184 C 
HETATM    8  F1  UNL     1      78.646  30.641  38.377  1.00  0.00    -0.235 F 
HETATM    9  C10 UNL     1      77.342  28.617  38.227  1.00  0.00     0.168 C 
HETATM   10  C11 UNL     1      77.675  27.252  38.776  1.00  0.00     0.049 C 
HETATM   11  C12 UNL     1      78.915  26.814  37.964  1.00  0.00     0.010 C 
HETATM   12  C13 UNL     1      79.931  27.784  38.574  1.00  0.00     0.009 C 
HETATM   13  C14 UNL     1      79.504  28.057  39.970  1.00  0.00     0.052 C 
HETATM   14  C15 UNL     1      78.269  27.244  40.147  1.00  0.00     0.204 C 
HETATM   15  C16 UNL     1      78.575  29.183  40.236  1.00  0.00     0.242 C 
ENDROOT
BRANCH   1  16
HETATM   16  C4  UNL     1      78.311  28.180  42.344  1.00  0.00     0.298 C 
BRANCH  16  17
HETATM   17  C3  UNL     1      78.173  26.839  43.064  1.00  0.00     0.187 C 
BRANCH  17  18
HETATM   18  N2  UNL     1      77.082  26.945  43.930  1.00  0.00    -0.385 NA
HETATM   19  C2  UNL     1      76.037  27.046  44.760  1.00  0.00     0.316 C 
HETATM   20  O1  UNL     1      74.982  27.730  44.666  1.00  0.00    -0.255 OA
BRANCH  19  21
HETATM   21  C1  UNL     1      76.084  26.213  46.055  1.00  0.00     0.348 C 
BRANCH  21  22
HETATM   22  N1  UNL     1      77.289  25.450  46.139  1.00  0.00    -0.070 N 
ATOM     23  H13 UNL     1      77.518  25.013  45.247  1.00  0.00     0.274 HD
ATOM     24  H12 UNL     1      78.107  26.050  46.233  1.00  0.00     0.274 HD
ATOM     25  H11 UNL     1      77.241  24.762  46.890  1.00  0.00     0.274 HD
ENDBRANCH  21  22
ENDBRANCH  19  21
ENDBRANCH  17  18
ENDBRANCH  16  17
ENDBRANCH   1  16
BRANCH   9  26
HETATM   26  O3  UNL     1      77.873  28.816  36.939  1.00  0.00    -0.392 OA
ATOM     27  H3  UNL     1      77.409  29.551  36.556  1.00  0.00     0.210 HD
ENDBRANCH   9  26
TORSDOF 6
ENDMDL
