MODEL 1
REMARK VINA RESULT: -4.857380053      0.000      0.000
REMARK  5 active torsions:
REMARK  status: ('A' for Active; 'I' for Inactive)
REMARK    1  A    between atoms: C2_5  and  N2_6 
REMARK    2  A    between atoms: N2_6  and  S1_8 
REMARK    3  A    between atoms: S1_8  and  N3_9 
REMARK    4  A    between atoms: S1_8  and  N4_13 
REMARK    5  A    between atoms: N5_26  and  O3_27 
ROOT
HETATM    1  N1  UNL     1      79.292  24.565  39.160  1.00  0.00    -0.382 N 
ATOM      2  H11 UNL     1      79.872  23.736  39.032  1.00  0.00     0.157 HD
ATOM      3  H12 UNL     1      79.160  24.949  38.224  1.00  0.00     0.157 HD
HETATM    4  C1  UNL     1      78.811  25.045  40.279  1.00  0.00     0.155 A 
HETATM    5  C2  UNL     1      77.979  26.235  40.462  1.00  0.00     0.100 A 
HETATM    6  C7  UNL     1      77.743  26.316  41.762  1.00  0.00     0.027 A 
HETATM    7  C8  UNL     1      77.028  27.216  42.527  1.00  0.00     0.058 A 
HETATM    8  C9  UNL     1      76.914  27.104  43.900  1.00  0.00     0.117 A 
HETATM    9  F1  UNL     1      76.211  27.986  44.650  1.00  0.00    -0.206 F 
HETATM   10  C10 UNL     1      77.545  26.050  44.507  1.00  0.00     0.044 A 
HETATM   11  C11 UNL     1      78.266  25.133  43.793  1.00  0.00     0.036 A 
HETATM   12  C12 UNL     1      78.367  25.268  42.403  1.00  0.00     0.077 A 
HETATM   13  N5  UNL     1      78.995  24.509  41.583  1.00  0.00    -0.205 N 
ENDROOT
BRANCH   5  14
HETATM   14  N2  UNL     1      77.533  27.103  39.425  1.00  0.00    -0.284 N 
ATOM     15  H2  UNL     1      76.639  26.940  38.962  1.00  0.00     0.178 HD
BRANCH  14  16
HETATM   16  S1  UNL     1      78.516  28.420  38.969  1.00  0.00     0.176 S 
HETATM   17  O1  UNL     1      79.969  28.183  39.286  1.00  0.00    -0.211 OA
BRANCH  16  18
HETATM   18  N3  UNL     1      78.422  28.617  37.431  1.00  0.00    -0.332 N 
ATOM     19  H32 UNL     1      77.585  28.443  36.874  1.00  0.00     0.168 HD
ATOM     20  H31 UNL     1      79.322  28.944  37.080  1.00  0.00     0.168 HD
ENDBRANCH  16  18
BRANCH  16  21
HETATM   21  N4  UNL     1      78.065  29.895  39.727  1.00  0.00    -0.207 NA
HETATM   22  C3  UNL     1      77.692  29.748  41.099  1.00  0.00     0.133 C 
HETATM   23  C4  UNL     1      76.731  30.866  41.462  1.00  0.00     0.183 C 
HETATM   24  O2  UNL     1      75.555  30.796  40.748  1.00  0.00    -0.389 OA
HETATM   25  C5  UNL     1      75.727  30.265  39.473  1.00  0.00     0.183 C 
HETATM   26  C6  UNL     1      77.114  30.653  38.943  1.00  0.00     0.133 C 
ENDBRANCH  16  21
ENDBRANCH  14  16
ENDBRANCH   5  14
BRANCH  13  27
HETATM   27  O3  UNL     1      79.732  23.367  41.858  1.00  0.00    -0.281 OA
ATOM     28  H3  UNL     1      79.559  22.783  42.587  1.00  0.00     0.245 HD
ENDBRANCH  13  27
TORSDOF 5
ENDMDL
MODEL 2
REMARK VINA RESULT: -4.549123785      2.495      4.985
REMARK  5 active torsions:
REMARK  status: ('A' for Active; 'I' for Inactive)
REMARK    1  A    between atoms: C2_5  and  N2_6 
REMARK    2  A    between atoms: N2_6  and  S1_8 
REMARK    3  A    between atoms: S1_8  and  N3_9 
REMARK    4  A    between atoms: S1_8  and  N4_13 
REMARK    5  A    between atoms: N5_26  and  O3_27 
ROOT
HETATM    1  N1  UNL     1      78.817  25.301  38.979  1.00  0.00    -0.382 N 
ATOM      2  H11 UNL     1      79.460  24.988  38.252  1.00  0.00     0.157 HD
ATOM      3  H12 UNL     1      78.541  24.456  39.479  1.00  0.00     0.157 HD
HETATM    4  C1  UNL     1      78.422  26.524  39.232  1.00  0.00     0.155 A 
HETATM    5  C2  UNL     1      77.499  26.973  40.274  1.00  0.00     0.100 A 
HETATM    6  C7  UNL     1      77.408  28.286  40.138  1.00  0.00     0.027 A 
HETATM    7  C8  UNL     1      76.696  29.250  40.825  1.00  0.00     0.058 A 
HETATM    8  C9  UNL     1      76.752  30.593  40.501  1.00  0.00     0.117 A 
HETATM    9  F1  UNL     1      76.055  31.537  41.176  1.00  0.00    -0.206 F 
HETATM   10  C10 UNL     1      77.552  30.961  39.451  1.00  0.00     0.044 A 
HETATM   11  C11 UNL     1      78.276  30.044  38.740  1.00  0.00     0.036 A 
HETATM   12  C12 UNL     1      78.203  28.690  39.087  1.00  0.00     0.077 A 
HETATM   13  N5  UNL     1      78.806  27.703  38.536  1.00  0.00    -0.205 N 
ENDROOT
BRANCH   5  14
HETATM   14  N2  UNL     1      76.852  26.134  41.227  1.00  0.00    -0.284 N 
ATOM     15  H2  UNL     1      75.860  25.917  41.135  1.00  0.00     0.178 HD
BRANCH  14  16
HETATM   16  S1  UNL     1      77.761  25.500  42.523  1.00  0.00     0.176 S 
HETATM   17  O1  UNL     1      77.356  24.091  42.868  1.00  0.00    -0.211 OA
BRANCH  16  18
HETATM   18  N3  UNL     1      79.259  25.445  42.116  1.00  0.00    -0.332 N 
ATOM     19  H32 UNL     1      80.034  25.713  42.722  1.00  0.00     0.168 HD
ATOM     20  H31 UNL     1      79.333  25.103  41.158  1.00  0.00     0.168 HD
ENDBRANCH  16  18
BRANCH  16  21
HETATM   21  N4  UNL     1      77.631  26.433  43.961  1.00  0.00    -0.207 NA
HETATM   22  C3  UNL     1      77.260  25.669  45.111  1.00  0.00     0.133 C 
HETATM   23  C4  UNL     1      76.552  26.586  46.093  1.00  0.00     0.183 C 
HETATM   24  O2  UNL     1      75.373  27.086  45.583  1.00  0.00    -0.389 OA
HETATM   25  C5  UNL     1      75.412  27.260  44.203  1.00  0.00     0.183 C 
HETATM   26  C6  UNL     1      76.839  27.629  43.776  1.00  0.00     0.133 C 
ENDBRANCH  16  21
ENDBRANCH  14  16
ENDBRANCH   5  14
BRANCH  13  27
HETATM   27  O3  UNL     1      79.682  27.721  37.460  1.00  0.00    -0.281 OA
ATOM     28  H3  UNL     1      79.606  27.155  36.701  1.00  0.00     0.245 HD
ENDBRANCH  13  27
TORSDOF 5
ENDMDL
MODEL 3
REMARK VINA RESULT: -3.898595967      2.620      4.242
REMARK  5 active torsions:
REMARK  status: ('A' for Active; 'I' for Inactive)
REMARK    1  A    between atoms: C2_5  and  N2_6 
REMARK    2  A    between atoms: N2_6  and  S1_8 
REMARK    3  A    between atoms: S1_8  and  N3_9 
REMARK    4  A    between atoms: S1_8  and  N4_13 
REMARK    5  A    between atoms: N5_26  and  O3_27 
ROOT
HETATM    1  N1  UNL     1      75.824  30.066  42.716  1.00  0.00    -0.382 N 
ATOM      2  H11 UNL     1      75.035  30.376  43.284  1.00  0.00     0.157 HD
ATOM      3  H12 UNL     1      76.041  30.853  42.103  1.00  0.00     0.157 HD
HETATM    4  C1  UNL     1      76.437  28.910  42.753  1.00  0.00     0.155 A 
HETATM    5  C2  UNL     1      77.567  28.466  41.937  1.00  0.00     0.100 A 
HETATM    6  C7  UNL     1      77.838  27.232  42.333  1.00  0.00     0.027 A 
HETATM    7  C8  UNL     1      78.786  26.310  41.935  1.00  0.00     0.058 A 
HETATM    8  C9  UNL     1      78.888  25.052  42.499  1.00  0.00     0.117 A 
HETATM    9  F1  UNL     1      79.819  24.149  42.110  1.00  0.00    -0.206 F 
HETATM   10  C10 UNL     1      78.000  24.726  43.491  1.00  0.00     0.044 A 
HETATM   11  C11 UNL     1      77.043  25.605  43.919  1.00  0.00     0.036 A 
HETATM   12  C12 UNL     1      76.961  26.873  43.333  1.00  0.00     0.077 A 
HETATM   13  N5  UNL     1      76.134  27.813  43.606  1.00  0.00    -0.205 N 
ENDROOT
BRANCH   5  14
HETATM   14  N2  UNL     1      78.219  29.237  40.931  1.00  0.00    -0.284 N 
ATOM     15  H2  UNL     1      79.115  29.684  41.122  1.00  0.00     0.178 HD
BRANCH  14  16
HETATM   16  S1  UNL     1      77.477  29.399  39.405  1.00  0.00     0.176 S 
HETATM   17  O1  UNL     1      75.994  29.637  39.513  1.00  0.00    -0.211 OA
BRANCH  16  18
HETATM   18  N3  UNL     1      78.074  30.634  38.677  1.00  0.00    -0.332 N 
ATOM     19  H32 UNL     1      78.286  31.525  39.126  1.00  0.00     0.168 HD
ATOM     20  H31 UNL     1      78.215  30.407  37.693  1.00  0.00     0.168 HD
ENDBRANCH  16  18
BRANCH  16  21
HETATM   21  N4  UNL     1      77.699  28.024  38.396  1.00  0.00    -0.207 NA
HETATM   22  C3  UNL     1      77.642  26.780  39.097  1.00  0.00     0.133 C 
HETATM   23  C4  UNL     1      78.464  25.756  38.333  1.00  0.00     0.183 C 
HETATM   24  O2  UNL     1      79.799  26.093  38.279  1.00  0.00    -0.389 OA
HETATM   25  C5  UNL     1      80.009  27.469  38.263  1.00  0.00     0.183 C 
HETATM   26  C6  UNL     1      78.849  28.153  37.528  1.00  0.00     0.133 C 
ENDBRANCH  16  21
ENDBRANCH  14  16
ENDBRANCH   5  14
BRANCH  13  27
HETATM   27  O3  UNL     1      75.115  27.818  44.547  1.00  0.00    -0.281 OA
ATOM     28  H3  UNL     1      75.218  28.117  45.443  1.00  0.00     0.245 HD
ENDBRANCH  13  27
TORSDOF 5
ENDMDL
MODEL 4
REMARK VINA RESULT: -3.733892712      0.941      1.357
REMARK  5 active torsions:
REMARK  status: ('A' for Active; 'I' for Inactive)
REMARK    1  A    between atoms: C2_5  and  N2_6 
REMARK    2  A    between atoms: N2_6  and  S1_8 
REMARK    3  A    between atoms: S1_8  and  N3_9 
REMARK    4  A    between atoms: S1_8  and  N4_13 
REMARK    5  A    between atoms: N5_26  and  O3_27 
ROOT
HETATM    1  N1  UNL     1      79.420  24.427  38.554  1.00  0.00    -0.382 N 
ATOM      2  H11 UNL     1      79.968  23.581  38.401  1.00  0.00     0.157 HD
ATOM      3  H12 UNL     1      79.263  24.819  37.625  1.00  0.00     0.157 HD
HETATM    4  C1  UNL     1      78.998  24.917  39.693  1.00  0.00     0.155 A 
HETATM    5  C2  UNL     1      78.212  26.131  39.912  1.00  0.00     0.100 A 
HETATM    6  C7  UNL     1      78.029  26.215  41.220  1.00  0.00     0.027 A 
HETATM    7  C8  UNL     1      77.373  27.132  42.015  1.00  0.00     0.058 A 
HETATM    8  C9  UNL     1      77.309  27.019  43.392  1.00  0.00     0.117 A 
HETATM    9  F1  UNL     1      76.664  27.919  44.171  1.00  0.00    -0.206 F 
HETATM   10  C10 UNL     1      77.930  25.943  43.970  1.00  0.00     0.044 A 
HETATM   11  C11 UNL     1      78.594  25.007  43.225  1.00  0.00     0.036 A 
HETATM   12  C12 UNL     1      78.644  25.144  41.834  1.00  0.00     0.077 A 
HETATM   13  N5  UNL     1      79.215  24.370  40.987  1.00  0.00    -0.205 N 
ENDROOT
BRANCH   5  14
HETATM   14  N2  UNL     1      77.752  27.018  38.895  1.00  0.00    -0.284 N 
ATOM     15  H2  UNL     1      77.389  26.652  38.015  1.00  0.00     0.178 HD
BRANCH  14  16
HETATM   16  S1  UNL     1      77.819  28.699  39.173  1.00  0.00     0.176 S 
HETATM   17  O1  UNL     1      78.925  29.077  40.123  1.00  0.00    -0.211 OA
BRANCH  16  18
HETATM   18  N3  UNL     1      78.116  29.425  37.832  1.00  0.00    -0.332 N 
ATOM     19  H32 UNL     1      77.410  29.671  37.138  1.00  0.00     0.168 HD
ATOM     20  H31 UNL     1      79.117  29.610  37.767  1.00  0.00     0.168 HD
ENDBRANCH  16  18
BRANCH  16  21
HETATM   21  N4  UNL     1      76.357  29.337  39.815  1.00  0.00    -0.207 NA
HETATM   22  C3  UNL     1      75.610  30.118  38.880  1.00  0.00     0.133 C 
HETATM   23  C4  UNL     1      74.773  31.125  39.650  1.00  0.00     0.183 C 
HETATM   24  O2  UNL     1      75.550  32.023  40.349  1.00  0.00    -0.389 OA
HETATM   25  C5  UNL     1      76.753  31.474  40.784  1.00  0.00     0.183 C 
HETATM   26  C6  UNL     1      76.550  29.985  41.094  1.00  0.00     0.133 C 
ENDBRANCH  16  21
ENDBRANCH  14  16
ENDBRANCH   5  14
BRANCH  13  27
HETATM   27  O3  UNL     1      79.927  23.204  41.229  1.00  0.00    -0.281 OA
ATOM     28  H3  UNL     1      79.624  22.502  41.792  1.00  0.00     0.245 HD
ENDBRANCH  13  27
TORSDOF 5
ENDMDL
MODEL 5
REMARK VINA RESULT: -3.608327725      3.291      6.139
REMARK  5 active torsions:
REMARK  status: ('A' for Active; 'I' for Inactive)
REMARK    1  A    between atoms: C2_5  and  N2_6 
REMARK    2  A    between atoms: N2_6  and  S1_8 
REMARK    3  A    between atoms: S1_8  and  N3_9 
REMARK    4  A    between atoms: S1_8  and  N4_13 
REMARK    5  A    between atoms: N5_26  and  O3_27 
ROOT
HETATM    1  N1  UNL     1      75.969  30.049  42.338  1.00  0.00    -0.382 N 
ATOM      2  H11 UNL     1      75.232  30.753  42.311  1.00  0.00     0.157 HD
ATOM      3  H12 UNL     1      76.101  29.833  43.327  1.00  0.00     0.157 HD
HETATM    4  C1  UNL     1      76.617  29.523  41.328  1.00  0.00     0.155 A 
HETATM    5  C2  UNL     1      77.675  28.513  41.368  1.00  0.00     0.100 A 
HETATM    6  C7  UNL     1      78.019  28.298  40.109  1.00  0.00     0.027 A 
HETATM    7  C8  UNL     1      78.951  27.464  39.524  1.00  0.00     0.058 A 
HETATM    8  C9  UNL     1      79.146  27.402  38.157  1.00  0.00     0.117 A 
HETATM    9  F1  UNL     1      80.060  26.584  37.584  1.00  0.00    -0.206 F 
HETATM   10  C10 UNL     1      78.372  28.212  37.367  1.00  0.00     0.044 A 
HETATM   11  C11 UNL     1      77.436  29.056  37.899  1.00  0.00     0.036 A 
HETATM   12  C12 UNL     1      77.257  29.099  39.286  1.00  0.00     0.077 A 
HETATM   13  N5  UNL     1      76.434  29.823  39.951  1.00  0.00    -0.205 N 
ENDROOT
BRANCH   5  14
HETATM   14  N2  UNL     1      78.199  27.906  42.546  1.00  0.00    -0.284 N 
ATOM     15  H2  UNL     1      78.825  28.425  43.161  1.00  0.00     0.178 HD
BRANCH  14  16
HETATM   16  S1  UNL     1      77.764  26.298  42.911  1.00  0.00     0.176 S 
HETATM   17  O1  UNL     1      77.425  25.505  41.676  1.00  0.00    -0.211 OA
BRANCH  16  18
HETATM   18  N3  UNL     1      78.968  25.584  43.583  1.00  0.00    -0.332 N 
ATOM     19  H32 UNL     1      78.890  24.896  44.332  1.00  0.00     0.168 HD
ATOM     20  H31 UNL     1      79.834  25.913  43.155  1.00  0.00     0.168 HD
ENDBRANCH  16  18
BRANCH  16  21
HETATM   21  N4  UNL     1      76.416  26.187  43.972  1.00  0.00    -0.207 NA
HETATM   22  C3  UNL     1      75.980  27.448  44.484  1.00  0.00     0.133 C 
HETATM   23  C4  UNL     1      75.304  27.219  45.825  1.00  0.00     0.183 C 
HETATM   24  O2  UNL     1      76.173  26.714  46.768  1.00  0.00    -0.389 OA
HETATM   25  C5  UNL     1      77.160  25.905  46.215  1.00  0.00     0.183 C 
HETATM   26  C6  UNL     1      76.594  25.174  44.990  1.00  0.00     0.133 C 
ENDBRANCH  16  21
ENDBRANCH  14  16
ENDBRANCH   5  14
BRANCH  13  27
HETATM   27  O3  UNL     1      75.514  30.744  39.471  1.00  0.00    -0.281 OA
ATOM     28  H3  UNL     1      74.602  30.544  39.296  1.00  0.00     0.245 HD
ENDBRANCH  13  27
TORSDOF 5
ENDMDL
