MODEL 1
REMARK VINA RESULT: -0.428767595      0.000      0.000
REMARK  4 active torsions:
REMARK  status: ('A' for Active; 'I' for Inactive)
REMARK       I    between atoms: C1_4  and  N3_6 
REMARK       I    between atoms: N4_10  and  C4_11 
REMARK    1  A    between atoms: C4_11  and  C5_13 
REMARK    2  A    between atoms: C11_19  and  C12_20 
REMARK       I    between atoms: C12_20  and  N5_22 
REMARK    3  A    between atoms: N5_22  and  N6_23 
REMARK    4  A    between atoms: N5_22  and  C13_26 
ROOT
HETATM    1  N1  UNL     1      78.210  30.427  38.401  1.00  0.00    -0.374 N 
ATOM      2  H11 UNL     1      78.904  30.735  39.082  1.00  0.00     0.158 HD
ATOM      3  H12 UNL     1      78.028  30.928  37.532  1.00  0.00     0.158 HD
HETATM    4  C1  UNL     1      77.551  29.342  38.666  1.00  0.00     0.184 C 
HETATM    5  N2  UNL     1      76.583  28.912  37.718  1.00  0.00    -0.064 NA
HETATM    6  N3  UNL     1      77.802  28.652  39.862  1.00  0.00    -0.336 N 
HETATM    7  C2  UNL     1      77.157  29.257  41.041  1.00  0.00     0.185 C 
HETATM    8  C3  UNL     1      77.386  28.478  42.307  1.00  0.00     0.292 C 
HETATM    9  F1  UNL     1      76.409  28.904  43.193  1.00  0.00    -0.225 F 
HETATM   10  N4  UNL     1      77.440  27.060  42.143  1.00  0.00    -0.317 N 
HETATM   11  C4  UNL     1      77.321  26.199  43.248  1.00  0.00     0.226 C 
HETATM   12  O1  UNL     1      77.366  24.919  43.039  1.00  0.00    -0.273 OA
HETATM   13  C10 UNL     1      77.634  26.529  40.801  1.00  0.00     0.164 C 
HETATM   14  C11 UNL     1      78.560  27.477  40.114  1.00  0.00     0.199 C 
ENDROOT
BRANCH  14  15
HETATM   15  C12 UNL     1      79.330  27.015  39.008  1.00  0.00     0.269 C 
HETATM   16  O2  UNL     1      80.214  27.789  38.573  1.00  0.00    -0.269 OA
HETATM   17  N5  UNL     1      79.221  25.773  38.329  1.00  0.00    -0.203 N 
BRANCH  17  18
HETATM   18  N6  UNL     1      78.292  24.784  38.675  1.00  0.00    -0.334 N 
ATOM     19  H62 UNL     1      77.749  24.981  39.516  1.00  0.00     0.177 HD
ATOM     20  H61 UNL     1      78.158  23.927  38.139  1.00  0.00     0.177 HD
ENDBRANCH  17  18
BRANCH  17  21
HETATM   21  C13 UNL     1      80.059  25.445  37.237  1.00  0.00     0.378 C 
HETATM   22  O3  UNL     1      80.331  24.211  37.053  1.00  0.00    -0.281 OA
ENDBRANCH  17  21
ENDBRANCH  14  15
BRANCH  11  23
HETATM   23  C5  UNL     1      77.150  26.589  44.642  1.00  0.00     0.078 C 
HETATM   24  C6  UNL     1      75.696  27.052  44.907  1.00  0.00     0.014 C 
HETATM   25  C7  UNL     1      75.621  27.037  46.399  1.00  0.00     0.001 C 
HETATM   26  C8  UNL     1      76.737  26.180  46.908  1.00  0.00     0.001 C 
HETATM   27  C9  UNL     1      77.226  25.463  45.639  1.00  0.00     0.014 C 
ENDBRANCH  11  23
TORSDOF 4
ENDMDL
MODEL 2
REMARK VINA RESULT: 1.818463865      2.433      3.921
REMARK  4 active torsions:
REMARK  status: ('A' for Active; 'I' for Inactive)
REMARK       I    between atoms: C1_4  and  N3_6 
REMARK       I    between atoms: N4_10  and  C4_11 
REMARK    1  A    between atoms: C4_11  and  C5_13 
REMARK    2  A    between atoms: C11_19  and  C12_20 
REMARK       I    between atoms: C12_20  and  N5_22 
REMARK    3  A    between atoms: N5_22  and  N6_23 
REMARK    4  A    between atoms: N5_22  and  C13_26 
ROOT
HETATM    1  N1  UNL     1      78.918  26.393  37.415  1.00  0.00    -0.374 N 
ATOM      2  H11 UNL     1      78.188  25.689  37.517  1.00  0.00     0.158 HD
ATOM      3  H12 UNL     1      79.470  26.497  36.564  1.00  0.00     0.158 HD
HETATM    4  C1  UNL     1      79.129  27.188  38.418  1.00  0.00     0.184 C 
HETATM    5  N2  UNL     1      80.147  28.169  38.276  1.00  0.00    -0.064 NA
HETATM    6  N3  UNL     1      78.369  27.044  39.589  1.00  0.00    -0.336 N 
HETATM    7  C2  UNL     1      78.816  25.938  40.453  1.00  0.00     0.185 C 
HETATM    8  C3  UNL     1      78.030  25.830  41.731  1.00  0.00     0.292 C 
HETATM    9  F1  UNL     1      78.809  25.067  42.587  1.00  0.00    -0.225 F 
HETATM   10  N4  UNL     1      77.607  27.075  42.288  1.00  0.00    -0.317 N 
HETATM   11  C4  UNL     1      77.160  27.157  43.618  1.00  0.00     0.226 C 
HETATM   12  O1  UNL     1      76.798  28.317  44.076  1.00  0.00    -0.273 OA
HETATM   13  C10 UNL     1      77.640  28.256  41.437  1.00  0.00     0.164 C 
HETATM   14  C11 UNL     1      77.259  27.789  40.071  1.00  0.00     0.199 C 
ENDROOT
BRANCH  14  15
HETATM   15  C12 UNL     1      76.720  28.726  39.143  1.00  0.00     0.269 C 
HETATM   16  O2  UNL     1      76.897  28.481  37.927  1.00  0.00    -0.269 OA
HETATM   17  N5  UNL     1      75.998  29.915  39.426  1.00  0.00    -0.203 N 
BRANCH  17  18
HETATM   18  N6  UNL     1      75.705  30.349  40.725  1.00  0.00    -0.334 N 
ATOM     19  H62 UNL     1      74.978  29.814  41.201  1.00  0.00     0.177 HD
ATOM     20  H61 UNL     1      76.172  31.137  41.173  1.00  0.00     0.177 HD
ENDBRANCH  17  18
BRANCH  17  21
HETATM   21  C13 UNL     1      75.518  30.759  38.396  1.00  0.00     0.378 C 
HETATM   22  O3  UNL     1      74.304  31.146  38.469  1.00  0.00    -0.281 OA
ENDBRANCH  17  21
ENDBRANCH  14  15
BRANCH  11  23
HETATM   23  C5  UNL     1      77.051  26.059  44.570  1.00  0.00     0.078 C 
HETATM   24  C6  UNL     1      78.337  25.946  45.426  1.00  0.00     0.014 C 
HETATM   25  C7  UNL     1      77.900  25.062  46.547  1.00  0.00     0.001 C 
HETATM   26  C8  UNL     1      76.404  25.085  46.596  1.00  0.00     0.001 C 
HETATM   27  C9  UNL     1      76.048  26.263  45.675  1.00  0.00     0.014 C 
ENDBRANCH  11  23
TORSDOF 4
ENDMDL
MODEL 3
REMARK VINA RESULT: 1.823777213      1.842      2.320
REMARK  4 active torsions:
REMARK  status: ('A' for Active; 'I' for Inactive)
REMARK       I    between atoms: C1_4  and  N3_6 
REMARK       I    between atoms: N4_10  and  C4_11 
REMARK    1  A    between atoms: C4_11  and  C5_13 
REMARK    2  A    between atoms: C11_19  and  C12_20 
REMARK       I    between atoms: C12_20  and  N5_22 
REMARK    3  A    between atoms: N5_22  and  N6_23 
REMARK    4  A    between atoms: N5_22  and  C13_26 
ROOT
HETATM    1  N1  UNL     1      76.577  32.039  40.593  1.00  0.00    -0.374 N 
ATOM      2  H11 UNL     1      77.380  32.108  41.218  1.00  0.00     0.158 HD
ATOM      3  H12 UNL     1      76.133  32.856  40.173  1.00  0.00     0.158 HD
HETATM    4  C1  UNL     1      76.125  30.854  40.325  1.00  0.00     0.184 C 
HETATM    5  N2  UNL     1      75.006  30.759  39.454  1.00  0.00    -0.064 NA
HETATM    6  N3  UNL     1      76.736  29.731  40.903  1.00  0.00    -0.336 N 
HETATM    7  C2  UNL     1      76.340  29.497  42.303  1.00  0.00     0.185 C 
HETATM    8  C3  UNL     1      76.956  28.259  42.895  1.00  0.00     0.292 C 
HETATM    9  F1  UNL     1      76.188  27.949  44.005  1.00  0.00    -0.225 F 
HETATM   10  N4  UNL     1      77.122  27.171  41.983  1.00  0.00    -0.317 N 
HETATM   11  C4  UNL     1      77.373  25.869  42.450  1.00  0.00     0.226 C 
HETATM   12  O1  UNL     1      77.503  24.916  41.577  1.00  0.00    -0.273 OA
HETATM   13  C10 UNL     1      77.035  27.450  40.557  1.00  0.00     0.164 C 
HETATM   14  C11 UNL     1      77.656  28.793  40.361  1.00  0.00     0.199 C 
ENDROOT
BRANCH  14  15
HETATM   15  C12 UNL     1      78.174  29.138  39.080  1.00  0.00     0.269 C 
HETATM   16  O2  UNL     1      78.186  30.355  38.786  1.00  0.00    -0.269 OA
HETATM   17  N5  UNL     1      78.687  28.265  38.085  1.00  0.00    -0.203 N 
BRANCH  17  18
HETATM   18  N6  UNL     1      78.753  26.875  38.237  1.00  0.00    -0.334 N 
ATOM     19  H62 UNL     1      79.645  26.525  38.588  1.00  0.00     0.177 HD
ATOM     20  H61 UNL     1      77.979  26.247  38.019  1.00  0.00     0.177 HD
ENDBRANCH  17  18
BRANCH  17  21
HETATM   21  C13 UNL     1      79.173  28.750  36.847  1.00  0.00     0.378 C 
HETATM   22  O3  UNL     1      80.316  28.334  36.459  1.00  0.00    -0.281 OA
ENDBRANCH  17  21
ENDBRANCH  14  15
BRANCH  11  23
HETATM   23  C5  UNL     1      77.509  25.453  43.840  1.00  0.00     0.078 C 
HETATM   24  C6  UNL     1      78.794  26.046  44.467  1.00  0.00     0.014 C 
HETATM   25  C7  UNL     1      78.563  25.838  45.928  1.00  0.00     0.001 C 
HETATM   26  C8  UNL     1      77.098  25.616  46.137  1.00  0.00     0.001 C 
HETATM   27  C9  UNL     1      76.492  26.033  44.787  1.00  0.00     0.014 C 
ENDBRANCH  11  23
TORSDOF 4
ENDMDL
MODEL 4
REMARK VINA RESULT: 2.071432393      2.292      5.420
REMARK  4 active torsions:
REMARK  status: ('A' for Active; 'I' for Inactive)
REMARK       I    between atoms: C1_4  and  N3_6 
REMARK       I    between atoms: N4_10  and  C4_11 
REMARK    1  A    between atoms: C4_11  and  C5_13 
REMARK    2  A    between atoms: C11_19  and  C12_20 
REMARK       I    between atoms: C12_20  and  N5_22 
REMARK    3  A    between atoms: N5_22  and  N6_23 
REMARK    4  A    between atoms: N5_22  and  C13_26 
ROOT
HETATM    1  N1  UNL     1      76.614  25.448  45.036  1.00  0.00    -0.374 N 
ATOM      2  H11 UNL     1      75.734  25.402  44.523  1.00  0.00     0.158 HD
ATOM      3  H12 UNL     1      76.756  24.983  45.932  1.00  0.00     0.158 HD
HETATM    4  C1  UNL     1      77.585  26.123  44.504  1.00  0.00     0.184 C 
HETATM    5  N2  UNL     1      78.811  26.188  45.220  1.00  0.00    -0.064 NA
HETATM    6  N3  UNL     1      77.390  26.764  43.271  1.00  0.00    -0.336 N 
HETATM    7  C2  UNL     1      76.648  28.033  43.374  1.00  0.00     0.185 C 
HETATM    8  C3  UNL     1      76.495  28.739  42.054  1.00  0.00     0.292 C 
HETATM    9  F1  UNL     1      76.181  30.052  42.364  1.00  0.00    -0.225 F 
HETATM   10  N4  UNL     1      77.603  28.603  41.163  1.00  0.00    -0.317 N 
HETATM   11  C4  UNL     1      77.747  29.453  40.053  1.00  0.00     0.226 C 
HETATM   12  O1  UNL     1      78.780  29.293  39.284  1.00  0.00    -0.273 OA
HETATM   13  C10 UNL     1      78.575  27.551  41.429  1.00  0.00     0.164 C 
HETATM   14  C11 UNL     1      77.794  26.394  41.959  1.00  0.00     0.199 C 
ENDROOT
BRANCH  14  15
HETATM   15  C12 UNL     1      78.337  25.082  41.850  1.00  0.00     0.269 C 
HETATM   16  O2  UNL     1      78.112  24.298  42.799  1.00  0.00    -0.269 OA
HETATM   17  N5  UNL     1      79.109  24.546  40.785  1.00  0.00    -0.203 N 
BRANCH  17  18
HETATM   18  N6  UNL     1      79.458  25.274  39.642  1.00  0.00    -0.334 N 
ATOM     19  H62 UNL     1      78.673  25.541  39.048  1.00  0.00     0.177 HD
ATOM     20  H61 UNL     1      80.418  25.526  39.407  1.00  0.00     0.177 HD
ENDBRANCH  17  18
BRANCH  17  21
HETATM   21  C13 UNL     1      79.588  23.214  40.810  1.00  0.00     0.378 C 
HETATM   22  O3  UNL     1      80.023  22.765  41.923  1.00  0.00    -0.281 OA
ENDBRANCH  17  21
ENDBRANCH  14  15
BRANCH  11  23
HETATM   23  C5  UNL     1      76.844  30.526  39.655  1.00  0.00     0.078 C 
HETATM   24  C6  UNL     1      75.499  29.950  39.146  1.00  0.00     0.014 C 
HETATM   25  C7  UNL     1      74.612  31.152  39.154  1.00  0.00     0.001 C 
HETATM   26  C8  UNL     1      75.236  32.180  40.045  1.00  0.00     0.001 C 
HETATM   27  C9  UNL     1      76.325  31.382  40.780  1.00  0.00     0.014 C 
ENDBRANCH  11  23
TORSDOF 4
ENDMDL
MODEL 5
REMARK VINA RESULT: 2.253047264      1.002      1.163
REMARK  4 active torsions:
REMARK  status: ('A' for Active; 'I' for Inactive)
REMARK       I    between atoms: C1_4  and  N3_6 
REMARK       I    between atoms: N4_10  and  C4_11 
REMARK    1  A    between atoms: C4_11  and  C5_13 
REMARK    2  A    between atoms: C11_19  and  C12_20 
REMARK       I    between atoms: C12_20  and  N5_22 
REMARK    3  A    between atoms: N5_22  and  N6_23 
REMARK    4  A    between atoms: N5_22  and  C13_26 
ROOT
HETATM    1  N1  UNL     1      78.319  29.736  38.220  1.00  0.00    -0.374 N 
ATOM      2  H11 UNL     1      79.129  29.903  38.817  1.00  0.00     0.158 HD
ATOM      3  H12 UNL     1      78.171  30.226  37.338  1.00  0.00     0.158 HD
HETATM    4  C1  UNL     1      77.457  28.850  38.613  1.00  0.00     0.184 C 
HETATM    5  N2  UNL     1      76.327  28.618  37.782  1.00  0.00    -0.064 NA
HETATM    6  N3  UNL     1      77.659  28.176  39.827  1.00  0.00    -0.336 N 
HETATM    7  C2  UNL     1      77.291  28.969  41.013  1.00  0.00     0.185 C 
HETATM    8  C3  UNL     1      77.458  28.216  42.305  1.00  0.00     0.292 C 
HETATM    9  F1  UNL     1      76.698  28.899  43.240  1.00  0.00    -0.225 F 
HETATM   10  N4  UNL     1      77.169  26.819  42.232  1.00  0.00    -0.317 N 
HETATM   11  C4  UNL     1      76.965  26.061  43.399  1.00  0.00     0.226 C 
HETATM   12  O1  UNL     1      76.693  24.798  43.274  1.00  0.00    -0.273 OA
HETATM   13  C10 UNL     1      77.101  26.197  40.917  1.00  0.00     0.164 C 
HETATM   14  C11 UNL     1      78.149  26.868  40.091  1.00  0.00     0.199 C 
ENDROOT
BRANCH  14  15
HETATM   15  C12 UNL     1      78.678  26.188  38.957  1.00  0.00     0.269 C 
HETATM   16  O2  UNL     1      78.057  25.173  38.567  1.00  0.00    -0.269 OA
HETATM   17  N5  UNL     1      79.834  26.523  38.203  1.00  0.00    -0.203 N 
BRANCH  17  18
HETATM   18  N6  UNL     1      80.650  27.624  38.489  1.00  0.00    -0.334 N 
ATOM     19  H62 UNL     1      80.850  28.228  37.692  1.00  0.00     0.177 HD
ATOM     20  H61 UNL     1      81.025  27.819  39.417  1.00  0.00     0.177 HD
ENDBRANCH  17  18
BRANCH  17  21
HETATM   21  C13 UNL     1      80.246  25.751  37.090  1.00  0.00     0.378 C 
HETATM   22  O3  UNL     1      80.230  24.481  37.215  1.00  0.00    -0.281 OA
ENDBRANCH  17  21
ENDBRANCH  14  15
BRANCH  11  23
HETATM   23  C5  UNL     1      77.027  26.544  44.773  1.00  0.00     0.078 C 
HETATM   24  C6  UNL     1      75.648  27.086  45.226  1.00  0.00     0.014 C 
HETATM   25  C7  UNL     1      75.808  27.167  46.709  1.00  0.00     0.001 C 
HETATM   26  C8  UNL     1      76.959  26.294  47.098  1.00  0.00     0.001 C 
HETATM   27  C9  UNL     1      77.219  25.479  45.820  1.00  0.00     0.014 C 
ENDBRANCH  11  23
TORSDOF 4
ENDMDL
