MODEL 1
REMARK VINA RESULT: -9.587233748      0.000      0.000
REMARK  7 active torsions:
REMARK  status: ('A' for Active; 'I' for Inactive)
REMARK    1  A    between atoms: C6_7  and  C7_8 
REMARK    2  A    between atoms: C7_8  and  C8_10 
REMARK    3  A    between atoms: C8_10  and  O2_11 
REMARK    4  A    between atoms: O2_11  and  C9_12 
REMARK    5  A    between atoms: C9_12  and  C10_13 
REMARK    6  A    between atoms: C10_13  and  C11_14 
REMARK    7  A    between atoms: C23_26  and  O3_27 
ROOT
HETATM    1  C1  UNL     1      16.101 136.917  -8.715  1.00  0.00     0.314 C 
HETATM    2  N1  UNL     1      16.618 135.836  -7.880  1.00  0.00     0.119 N 
HETATM    3  C2  UNL     1      17.225 134.842  -8.779  1.00  0.00     0.280 C 
HETATM    4  C3  UNL     1      15.829 134.210  -8.816  1.00  0.00     0.102 C 
HETATM    5  C4  UNL     1      15.619 134.862  -7.477  1.00  0.00     0.263 C 
HETATM    6  C5  UNL     1      14.318 135.519  -7.241  1.00  0.00     0.084 C 
HETATM    7  C6  UNL     1      13.563 135.153  -5.996  1.00  0.00     0.069 C 
HETATM    8  C17 UNL     1      13.809 133.807  -5.471  1.00  0.00     0.026 C 
HETATM    9  C18 UNL     1      13.830 133.660  -3.976  1.00  0.00     0.008 C 
HETATM   10  C19 UNL     1      13.722 132.128  -3.762  1.00  0.00     0.006 C 
HETATM   11  C20 UNL     1      15.134 131.645  -4.126  1.00  0.00    -0.004 C 
HETATM   12  C21 UNL     1      15.357 130.279  -3.624  1.00  0.00    -0.004 C 
HETATM   13  C22 UNL     1      16.760 130.066  -3.065  1.00  0.00     0.037 C 
HETATM   14  C23 UNL     1      17.101 128.632  -3.433  1.00  0.00     0.118 C 
HETATM   15  C24 UNL     1      16.435 128.505  -4.781  1.00  0.00     0.036 C 
HETATM   16  C25 UNL     1      15.104 129.160  -4.559  1.00  0.00    -0.008 C 
HETATM   17  C26 UNL     1      14.467 129.618  -5.849  1.00  0.00     0.005 C 
HETATM   18  C27 UNL     1      15.235 130.724  -6.458  1.00  0.00     0.008 C 
HETATM   19  C28 UNL     1      15.496 131.905  -5.551  1.00  0.00     0.019 C 
HETATM   20  C29 UNL     1      14.998 133.154  -6.143  1.00  0.00     0.134 C 
HETATM   21  O4  UNL     1      16.005 134.119  -6.380  1.00  0.00    -0.346 OA
ENDROOT
BRANCH   7  22
HETATM   22  C7  UNL     1      13.658 136.262  -5.031  1.00  0.00     0.155 C 
HETATM   23  O1  UNL     1      12.698 136.640  -4.426  1.00  0.00    -0.295 OA
BRANCH  22  24
HETATM   24  C8  UNL     1      14.955 136.956  -4.768  1.00  0.00     0.246 C 
BRANCH  24  25
HETATM   25  O2  UNL     1      15.667 136.483  -3.703  1.00  0.00    -0.384 OA
BRANCH  25  26
HETATM   26  C9  UNL     1      15.418 136.990  -2.468  1.00  0.00     0.172 C 
BRANCH  26  27
HETATM   27  C10 UNL     1      14.966 135.984  -1.426  1.00  0.00     0.064 C 
BRANCH  27  28
HETATM   28  C11 UNL     1      16.055 135.110  -0.946  1.00  0.00    -0.056 A 
HETATM   29  C12 UNL     1      16.536 133.990  -1.568  1.00  0.00     0.007 A 
HETATM   30  C13 UNL     1      17.569 133.239  -1.029  1.00  0.00     0.001 A 
HETATM   31  C14 UNL     1      18.128 133.637   0.169  1.00  0.00     0.000 A 
HETATM   32  C15 UNL     1      17.672 134.760   0.830  1.00  0.00     0.001 A 
HETATM   33  C16 UNL     1      16.643 135.489   0.273  1.00  0.00     0.007 A 
ENDBRANCH  27  28
ENDBRANCH  26  27
ENDBRANCH  25  26
ENDBRANCH  24  25
ENDBRANCH  22  24
ENDBRANCH   7  22
BRANCH  14  34
HETATM   34  O3  UNL     1      16.471 127.757  -2.560  1.00  0.00    -0.396 OA
ATOM     35  H3  UNL     1      16.710 127.964  -1.665  1.00  0.00     0.210 HD
ENDBRANCH  14  34
TORSDOF 7
ENDMDL
MODEL 2
REMARK VINA RESULT: -9.499850374      1.208      1.954
REMARK  7 active torsions:
REMARK  status: ('A' for Active; 'I' for Inactive)
REMARK    1  A    between atoms: C6_7  and  C7_8 
REMARK    2  A    between atoms: C7_8  and  C8_10 
REMARK    3  A    between atoms: C8_10  and  O2_11 
REMARK    4  A    between atoms: O2_11  and  C9_12 
REMARK    5  A    between atoms: C9_12  and  C10_13 
REMARK    6  A    between atoms: C10_13  and  C11_14 
REMARK    7  A    between atoms: C23_26  and  O3_27 
ROOT
HETATM    1  C1  UNL     1      16.015 136.842  -8.855  1.00  0.00     0.314 C 
HETATM    2  N1  UNL     1      16.527 135.714  -8.083  1.00  0.00     0.119 N 
HETATM    3  C2  UNL     1      16.991 134.701  -9.043  1.00  0.00     0.280 C 
HETATM    4  C3  UNL     1      15.558 134.161  -8.972  1.00  0.00     0.102 C 
HETATM    5  C4  UNL     1      15.502 134.798  -7.611  1.00  0.00     0.263 C 
HETATM    6  C5  UNL     1      14.272 135.533  -7.257  1.00  0.00     0.084 C 
HETATM    7  C6  UNL     1      13.600 135.192  -5.959  1.00  0.00     0.069 C 
HETATM    8  C17 UNL     1      13.799 133.823  -5.476  1.00  0.00     0.026 C 
HETATM    9  C18 UNL     1      13.934 133.645  -3.990  1.00  0.00     0.008 C 
HETATM   10  C19 UNL     1      13.744 132.119  -3.790  1.00  0.00     0.006 C 
HETATM   11  C20 UNL     1      15.086 131.553  -4.278  1.00  0.00    -0.004 C 
HETATM   12  C21 UNL     1      15.259 130.166  -3.816  1.00  0.00    -0.004 C 
HETATM   13  C22 UNL     1      16.685 129.852  -3.379  1.00  0.00     0.037 C 
HETATM   14  C23 UNL     1      16.900 128.406  -3.795  1.00  0.00     0.118 C 
HETATM   15  C24 UNL     1      16.117 128.350  -5.085  1.00  0.00     0.036 C 
HETATM   16  C25 UNL     1      14.856 129.084  -4.743  1.00  0.00    -0.008 C 
HETATM   17  C26 UNL     1      14.146 129.608  -5.968  1.00  0.00     0.005 C 
HETATM   18  C27 UNL     1      14.932 130.674  -6.623  1.00  0.00     0.008 C 
HETATM   19  C28 UNL     1      15.344 131.817  -5.724  1.00  0.00     0.019 C 
HETATM   20  C29 UNL     1      14.883 133.108  -6.255  1.00  0.00     0.134 C 
HETATM   21  O4  UNL     1      15.929 134.010  -6.561  1.00  0.00    -0.346 OA
ENDROOT
BRANCH   7  22
HETATM   22  C7  UNL     1      13.847 136.273  -4.989  1.00  0.00     0.155 C 
HETATM   23  O1  UNL     1      12.946 136.794  -4.400  1.00  0.00    -0.295 OA
BRANCH  22  24
HETATM   24  C8  UNL     1      15.231 136.759  -4.702  1.00  0.00     0.246 C 
BRANCH  24  25
HETATM   25  O2  UNL     1      15.428 137.256  -3.446  1.00  0.00    -0.384 OA
BRANCH  25  26
HETATM   26  C9  UNL     1      15.965 136.448  -2.495  1.00  0.00     0.172 C 
BRANCH  26  27
HETATM   27  C10 UNL     1      14.997 135.945  -1.441  1.00  0.00     0.064 C 
BRANCH  27  28
HETATM   28  C11 UNL     1      14.996 136.763  -0.211  1.00  0.00    -0.056 A 
HETATM   29  C12 UNL     1      15.804 136.596   0.880  1.00  0.00     0.007 A 
HETATM   30  C13 UNL     1      15.721 137.427   1.987  1.00  0.00     0.001 A 
HETATM   31  C14 UNL     1      14.796 138.452   1.984  1.00  0.00     0.000 A 
HETATM   32  C15 UNL     1      13.962 138.654   0.904  1.00  0.00     0.001 A 
HETATM   33  C16 UNL     1      14.063 137.814  -0.184  1.00  0.00     0.007 A 
ENDBRANCH  27  28
ENDBRANCH  26  27
ENDBRANCH  25  26
ENDBRANCH  24  25
ENDBRANCH  22  24
ENDBRANCH   7  22
BRANCH  14  34
HETATM   34  O3  UNL     1      16.288 127.557  -2.886  1.00  0.00    -0.396 OA
ATOM     35  H3  UNL     1      15.565 127.103  -3.302  1.00  0.00     0.210 HD
ENDBRANCH  14  34
TORSDOF 7
ENDMDL
MODEL 3
REMARK VINA RESULT: -9.334031589      2.922      6.253
REMARK  7 active torsions:
REMARK  status: ('A' for Active; 'I' for Inactive)
REMARK    1  A    between atoms: C6_7  and  C7_8 
REMARK    2  A    between atoms: C7_8  and  C8_10 
REMARK    3  A    between atoms: C8_10  and  O2_11 
REMARK    4  A    between atoms: O2_11  and  C9_12 
REMARK    5  A    between atoms: C9_12  and  C10_13 
REMARK    6  A    between atoms: C10_13  and  C11_14 
REMARK    7  A    between atoms: C23_26  and  O3_27 
ROOT
HETATM    1  C1  UNL     1      13.421 136.319 -10.530  1.00  0.00     0.314 C 
HETATM    2  N1  UNL     1      14.000 137.059  -9.412  1.00  0.00     0.119 N 
HETATM    3  C2  UNL     1      14.632 138.266  -9.967  1.00  0.00     0.280 C 
HETATM    4  C3  UNL     1      15.885 137.395 -10.103  1.00  0.00     0.102 C 
HETATM    5  C4  UNL     1      15.302 136.574  -8.985  1.00  0.00     0.263 C 
HETATM    6  C5  UNL     1      15.377 135.106  -9.114  1.00  0.00     0.084 C 
HETATM    7  C6  UNL     1      15.951 134.329  -7.964  1.00  0.00     0.069 C 
HETATM    8  C17 UNL     1      16.926 135.042  -7.134  1.00  0.00     0.026 C 
HETATM    9  C18 UNL     1      16.893 134.756  -5.660  1.00  0.00     0.008 C 
HETATM   10  C19 UNL     1      18.238 135.336  -5.149  1.00  0.00     0.006 C 
HETATM   11  C20 UNL     1      17.970 136.848  -5.162  1.00  0.00    -0.004 C 
HETATM   12  C21 UNL     1      18.976 137.557  -4.353  1.00  0.00    -0.004 C 
HETATM   13  C22 UNL     1      18.390 138.702  -3.536  1.00  0.00     0.037 C 
HETATM   14  C23 UNL     1      19.480 139.761  -3.531  1.00  0.00     0.118 C 
HETATM   15  C24 UNL     1      20.060 139.595  -4.915  1.00  0.00     0.036 C 
HETATM   16  C25 UNL     1      20.155 138.106  -5.061  1.00  0.00    -0.008 C 
HETATM   17  C26 UNL     1      20.213 137.674  -6.507  1.00  0.00     0.005 C 
HETATM   18  C27 UNL     1      18.937 137.952  -7.197  1.00  0.00     0.008 C 
HETATM   19  C28 UNL     1      17.704 137.387  -6.528  1.00  0.00     0.019 C 
HETATM   20  C29 UNL     1      16.947 136.524  -7.446  1.00  0.00     0.134 C 
HETATM   21  O4  UNL     1      15.633 136.978  -7.708  1.00  0.00    -0.346 OA
ENDROOT
BRANCH   7  22
HETATM   22  C7  UNL     1      14.859 133.644  -7.252  1.00  0.00     0.155 C 
HETATM   23  O1  UNL     1      13.775 134.140  -7.154  1.00  0.00    -0.295 OA
BRANCH  22  24
HETATM   24  C8  UNL     1      15.060 132.301  -6.627  1.00  0.00     0.246 C 
BRANCH  24  25
HETATM   25  O2  UNL     1      14.055 131.881  -5.804  1.00  0.00    -0.384 OA
BRANCH  25  26
HETATM   26  C9  UNL     1      14.232 131.954  -4.460  1.00  0.00     0.172 C 
BRANCH  26  27
HETATM   27  C10 UNL     1      13.297 132.897  -3.726  1.00  0.00     0.064 C 
BRANCH  27  28
HETATM   28  C11 UNL     1      13.891 134.225  -3.467  1.00  0.00    -0.056 A 
HETATM   29  C12 UNL     1      14.842 134.523  -2.530  1.00  0.00     0.007 A 
HETATM   30  C13 UNL     1      15.335 135.809  -2.371  1.00  0.00     0.001 A 
HETATM   31  C14 UNL     1      14.853 136.814  -3.186  1.00  0.00     0.000 A 
HETATM   32  C15 UNL     1      13.893 136.555  -4.144  1.00  0.00     0.001 A 
HETATM   33  C16 UNL     1      13.418 135.269  -4.281  1.00  0.00     0.007 A 
ENDBRANCH  27  28
ENDBRANCH  26  27
ENDBRANCH  25  26
ENDBRANCH  24  25
ENDBRANCH  22  24
ENDBRANCH   7  22
BRANCH  14  34
HETATM   34  O3  UNL     1      20.463 139.424  -2.612  1.00  0.00    -0.396 OA
ATOM     35  H3  UNL     1      20.975 140.192  -2.389  1.00  0.00     0.210 HD
ENDBRANCH  14  34
TORSDOF 7
ENDMDL
MODEL 4
REMARK VINA RESULT: -9.315859943      3.600      7.455
REMARK  7 active torsions:
REMARK  status: ('A' for Active; 'I' for Inactive)
REMARK    1  A    between atoms: C6_7  and  C7_8 
REMARK    2  A    between atoms: C7_8  and  C8_10 
REMARK    3  A    between atoms: C8_10  and  O2_11 
REMARK    4  A    between atoms: O2_11  and  C9_12 
REMARK    5  A    between atoms: C9_12  and  C10_13 
REMARK    6  A    between atoms: C10_13  and  C11_14 
REMARK    7  A    between atoms: C23_26  and  O3_27 
ROOT
HETATM    1  C1  UNL     1      19.934 130.329  -0.651  1.00  0.00     0.314 C 
HETATM    2  N1  UNL     1      19.485 131.163  -1.762  1.00  0.00     0.119 N 
HETATM    3  C2  UNL     1      19.524 132.560  -1.306  1.00  0.00     0.280 C 
HETATM    4  C3  UNL     1      18.084 132.318  -0.843  1.00  0.00     0.102 C 
HETATM    5  C4  UNL     1      18.041 131.248  -1.900  1.00  0.00     0.263 C 
HETATM    6  C5  UNL     1      17.407 129.965  -1.540  1.00  0.00     0.084 C 
HETATM    7  C6  UNL     1      16.345 129.426  -2.453  1.00  0.00     0.069 C 
HETATM    8  C17 UNL     1      15.592 130.424  -3.218  1.00  0.00     0.026 C 
HETATM    9  C18 UNL     1      15.201 130.046  -4.618  1.00  0.00     0.008 C 
HETATM   10  C19 UNL     1      14.131 131.104  -4.993  1.00  0.00     0.006 C 
HETATM   11  C20 UNL     1      14.983 132.355  -5.253  1.00  0.00    -0.004 C 
HETATM   12  C21 UNL     1      14.206 133.363  -5.991  1.00  0.00    -0.004 C 
HETATM   13  C22 UNL     1      15.021 134.089  -7.056  1.00  0.00     0.037 C 
HETATM   14  C23 UNL     1      14.476 135.508  -7.050  1.00  0.00     0.118 C 
HETATM   15  C24 UNL     1      14.178 135.704  -5.583  1.00  0.00     0.036 C 
HETATM   16  C25 UNL     1      13.523 134.412  -5.199  1.00  0.00    -0.008 C 
HETATM   17  C26 UNL     1      13.595 134.151  -3.713  1.00  0.00     0.005 C 
HETATM   18  C27 UNL     1      14.988 133.909  -3.283  1.00  0.00     0.008 C 
HETATM   19  C28 UNL     1      15.720 132.826  -4.043  1.00  0.00     0.019 C 
HETATM   20  C29 UNL     1      16.236 131.792  -3.136  1.00  0.00     0.134 C 
HETATM   21  O4  UNL     1      17.645 131.661  -3.156  1.00  0.00    -0.346 OA
ENDROOT
BRANCH   7  22
HETATM   22  C7  UNL     1      16.894 128.291  -3.215  1.00  0.00     0.155 C 
HETATM   23  O1  UNL     1      16.398 127.205  -3.153  1.00  0.00    -0.295 OA
BRANCH  22  24
HETATM   24  C8  UNL     1      18.091 128.452  -4.096  1.00  0.00     0.246 C 
BRANCH  24  25
HETATM   25  O2  UNL     1      19.264 127.980  -3.582  1.00  0.00    -0.384 OA
BRANCH  25  26
HETATM   26  C9  UNL     1      20.434 128.530  -3.999  1.00  0.00     0.172 C 
BRANCH  26  27
HETATM   27  C10 UNL     1      21.646 128.219  -3.142  1.00  0.00     0.064 C 
BRANCH  27  28
HETATM   28  C11 UNL     1      22.620 129.328  -3.080  1.00  0.00    -0.056 A 
HETATM   29  C12 UNL     1      23.830 129.316  -2.444  1.00  0.00     0.007 A 
HETATM   30  C13 UNL     1      24.672 130.418  -2.451  1.00  0.00     0.001 A 
HETATM   31  C14 UNL     1      24.275 131.557  -3.122  1.00  0.00     0.000 A 
HETATM   32  C15 UNL     1      23.062 131.610  -3.777  1.00  0.00     0.001 A 
HETATM   33  C16 UNL     1      22.242 130.502  -3.755  1.00  0.00     0.007 A 
ENDBRANCH  27  28
ENDBRANCH  26  27
ENDBRANCH  25  26
ENDBRANCH  24  25
ENDBRANCH  22  24
ENDBRANCH   7  22
BRANCH  14  34
HETATM   34  O3  UNL     1      13.275 135.555  -7.741  1.00  0.00    -0.396 OA
ATOM     35  H3  UNL     1      12.827 136.372  -7.556  1.00  0.00     0.210 HD
ENDBRANCH  14  34
TORSDOF 7
ENDMDL
MODEL 5
REMARK VINA RESULT: -9.241450822      0.773      1.080
REMARK  7 active torsions:
REMARK  status: ('A' for Active; 'I' for Inactive)
REMARK    1  A    between atoms: C6_7  and  C7_8 
REMARK    2  A    between atoms: C7_8  and  C8_10 
REMARK    3  A    between atoms: C8_10  and  O2_11 
REMARK    4  A    between atoms: O2_11  and  C9_12 
REMARK    5  A    between atoms: C9_12  and  C10_13 
REMARK    6  A    between atoms: C10_13  and  C11_14 
REMARK    7  A    between atoms: C23_26  and  O3_27 
ROOT
HETATM    1  C1  UNL     1      15.962 137.017  -8.311  1.00  0.00     0.314 C 
HETATM    2  N1  UNL     1      16.503 135.921  -7.513  1.00  0.00     0.119 N 
HETATM    3  C2  UNL     1      17.146 134.979  -8.442  1.00  0.00     0.280 C 
HETATM    4  C3  UNL     1      15.769 134.309  -8.516  1.00  0.00     0.102 C 
HETATM    5  C4  UNL     1      15.529 134.904  -7.156  1.00  0.00     0.263 C 
HETATM    6  C5  UNL     1      14.208 135.514  -6.907  1.00  0.00     0.084 C 
HETATM    7  C6  UNL     1      13.454 135.080  -5.684  1.00  0.00     0.069 C 
HETATM    8  C17 UNL     1      13.733 133.722  -5.208  1.00  0.00     0.026 C 
HETATM    9  C18 UNL     1      13.747 133.519  -3.720  1.00  0.00     0.008 C 
HETATM   10  C19 UNL     1      13.682 131.978  -3.564  1.00  0.00     0.006 C 
HETATM   11  C20 UNL     1      15.110 131.550  -3.932  1.00  0.00    -0.004 C 
HETATM   12  C21 UNL     1      15.368 130.173  -3.480  1.00  0.00    -0.004 C 
HETATM   13  C22 UNL     1      16.771 129.979  -2.916  1.00  0.00     0.037 C 
HETATM   14  C23 UNL     1      17.157 128.570  -3.334  1.00  0.00     0.118 C 
HETATM   15  C24 UNL     1      16.506 128.476  -4.693  1.00  0.00     0.036 C 
HETATM   16  C25 UNL     1      15.155 129.083  -4.459  1.00  0.00    -0.008 C 
HETATM   17  C26 UNL     1      14.516 129.571  -5.737  1.00  0.00     0.005 C 
HETATM   18  C27 UNL     1      15.257 130.721  -6.296  1.00  0.00     0.008 C 
HETATM   19  C28 UNL     1      15.475 131.873  -5.343  1.00  0.00     0.019 C 
HETATM   20  C29 UNL     1      14.947 133.130  -5.893  1.00  0.00     0.134 C 
HETATM   21  O4  UNL     1      15.928 134.131  -6.084  1.00  0.00    -0.346 OA
ENDROOT
BRANCH   7  22
HETATM   22  C7  UNL     1      13.508 136.153  -4.678  1.00  0.00     0.155 C 
HETATM   23  O1  UNL     1      12.519 136.735  -4.338  1.00  0.00    -0.295 OA
BRANCH  22  24
HETATM   24  C8  UNL     1      14.798 136.557  -4.040  1.00  0.00     0.246 C 
BRANCH  24  25
HETATM   25  O2  UNL     1      14.728 136.838  -2.705  1.00  0.00    -0.384 OA
BRANCH  25  26
HETATM   26  C9  UNL     1      15.781 136.520  -1.909  1.00  0.00     0.172 C 
BRANCH  26  27
HETATM   27  C10 UNL     1      15.758 135.122  -1.320  1.00  0.00     0.064 C 
BRANCH  27  28
HETATM   28  C11 UNL     1      16.899 134.288  -1.748  1.00  0.00    -0.056 A 
HETATM   29  C12 UNL     1      17.421 134.207  -3.010  1.00  0.00     0.007 A 
HETATM   30  C13 UNL     1      18.501 133.389  -3.304  1.00  0.00     0.001 A 
HETATM   31  C14 UNL     1      19.065 132.638  -2.292  1.00  0.00     0.000 A 
HETATM   32  C15 UNL     1      18.568 132.690  -1.006  1.00  0.00     0.001 A 
HETATM   33  C16 UNL     1      17.493 133.510  -0.739  1.00  0.00     0.007 A 
ENDBRANCH  27  28
ENDBRANCH  26  27
ENDBRANCH  25  26
ENDBRANCH  24  25
ENDBRANCH  22  24
ENDBRANCH   7  22
BRANCH  14  34
HETATM   34  O3  UNL     1      16.545 127.645  -2.501  1.00  0.00    -0.396 OA
ATOM     35  H3  UNL     1      15.610 127.632  -2.663  1.00  0.00     0.210 HD
ENDBRANCH  14  34
TORSDOF 7
ENDMDL
