MODEL 1
REMARK VINA RESULT: -8.165586338      0.000      0.000
REMARK  3 active torsions:
REMARK  status: ('A' for Active; 'I' for Inactive)
REMARK    1  A    between atoms: C6_13  and  N4_14 
REMARK    2  A    between atoms: N4_14  and  C7_16 
REMARK    3  A    between atoms: N5_22  and  C13_23 
ROOT
HETATM    1  C1  UNL     1       7.211  79.978  46.704  1.00  0.00     0.089 C 
HETATM    2  C2  UNL     1       7.150  78.714  47.469  1.00  0.00     0.082 A 
HETATM    3  N1  UNL     1       7.019  77.560  46.782  1.00  0.00    -0.330 N 
ATOM      4  H1  UNL     1       6.967  77.605  45.765  1.00  0.00     0.168 HD
HETATM    5  C3  UNL     1       6.954  76.359  47.370  1.00  0.00     0.140 A 
HETATM    6  N2  UNL     1       6.827  75.094  46.906  1.00  0.00    -0.317 N 
ATOM      7  H2  UNL     1       6.751  74.825  45.925  1.00  0.00     0.170 HD
HETATM    8  C4  UNL     1       6.818  74.260  47.941  1.00  0.00     0.178 A 
HETATM    9  S1  UNL     1       6.687  72.628  47.940  1.00  0.00    -0.040 SA
HETATM   10  N3  UNL     1       6.940  75.006  49.057  1.00  0.00    -0.327 N 
ATOM     11  H3  UNL     1       6.963  74.635  50.006  1.00  0.00     0.168 HD
HETATM   12  C5  UNL     1       7.026  76.314  48.739  1.00  0.00     0.123 A 
HETATM   13  C6  UNL     1       7.160  77.501  49.431  1.00  0.00     0.136 A 
HETATM   14  N5  UNL     1       7.226  78.735  48.805  1.00  0.00    -0.316 N 
ENDROOT
BRANCH  13  15
HETATM   15  N4  UNL     1       7.226  77.498  50.671  1.00  0.00    -0.369 N 
ATOM     16  H4  UNL     1       6.410  78.007  51.008  1.00  0.00     0.161 HD
BRANCH  15  17
HETATM   17  C7  UNL     1       7.923  77.106  51.774  1.00  0.00     0.083 C 
HETATM   18  C8  UNL     1       7.421  77.635  53.107  1.00  0.00     0.025 C 
HETATM   19  C9  UNL     1       7.733  76.663  54.219  1.00  0.00     0.002 C 
HETATM   20  C10 UNL     1       6.992  75.357  54.057  1.00  0.00     0.000 C 
HETATM   21  C11 UNL     1       6.753  75.053  52.591  1.00  0.00     0.002 C 
HETATM   22  C12 UNL     1       7.938  75.558  51.827  1.00  0.00     0.025 C 
ENDBRANCH  15  17
ENDBRANCH  13  15
BRANCH  14  23
HETATM   23  C13 UNL     1       7.369  79.918  49.597  1.00  0.00     0.093 C 
HETATM   24  C14 UNL     1       8.707  80.596  49.585  1.00  0.00     0.026 C 
HETATM   25  C15 UNL     1       8.441  82.094  49.630  1.00  0.00     0.002 C 
HETATM   26  C16 UNL     1       6.985  82.293  49.306  1.00  0.00     0.002 C 
HETATM   27  C17 UNL     1       6.295  80.959  49.487  1.00  0.00     0.026 C 
ENDBRANCH  14  23
TORSDOF 3
ENDMDL
MODEL 2
REMARK VINA RESULT: -8.052020916      2.768      4.154
REMARK  3 active torsions:
REMARK  status: ('A' for Active; 'I' for Inactive)
REMARK    1  A    between atoms: C6_13  and  N4_14 
REMARK    2  A    between atoms: N4_14  and  C7_16 
REMARK    3  A    between atoms: N5_22  and  C13_23 
ROOT
HETATM    1  C1  UNL     1       6.403  83.581  46.254  1.00  0.00     0.089 C 
HETATM    2  C2  UNL     1       6.930  82.205  46.116  1.00  0.00     0.082 A 
HETATM    3  N1  UNL     1       7.144  81.728  44.872  1.00  0.00    -0.330 N 
ATOM      4  H1  UNL     1       6.934  82.333  44.078  1.00  0.00     0.168 HD
HETATM    5  C3  UNL     1       7.618  80.500  44.629  1.00  0.00     0.140 A 
HETATM    6  N2  UNL     1       7.909  79.814  43.499  1.00  0.00    -0.317 N 
ATOM      7  H2  UNL     1       7.801  80.164  42.547  1.00  0.00     0.170 HD
HETATM    8  C4  UNL     1       8.360  78.610  43.836  1.00  0.00     0.178 A 
HETATM    9  S1  UNL     1       8.852  77.391  42.860  1.00  0.00    -0.040 SA
HETATM   10  N3  UNL     1       8.351  78.542  45.182  1.00  0.00    -0.327 N 
ATOM     11  H3  UNL     1       8.647  77.732  45.726  1.00  0.00     0.168 HD
HETATM   12  C5  UNL     1       7.895  79.698  45.707  1.00  0.00     0.123 A 
HETATM   13  C6  UNL     1       7.672  80.198  46.974  1.00  0.00     0.136 A 
HETATM   14  N5  UNL     1       7.182  81.472  47.207  1.00  0.00    -0.316 N 
ENDROOT
BRANCH  13  15
HETATM   15  N4  UNL     1       7.911  79.499  47.973  1.00  0.00    -0.369 N 
ATOM     16  H4  UNL     1       7.378  79.900  48.743  1.00  0.00     0.161 HD
BRANCH  15  17
HETATM   17  C7  UNL     1       8.580  78.425  48.479  1.00  0.00     0.083 C 
HETATM   18  C8  UNL     1       9.472  78.697  49.680  1.00  0.00     0.025 C 
HETATM   19  C9  UNL     1       9.572  77.473  50.557  1.00  0.00     0.002 C 
HETATM   20  C10 UNL     1       8.245  77.111  51.180  1.00  0.00     0.000 C 
HETATM   21  C11 UNL     1       7.097  77.520  50.278  1.00  0.00     0.002 C 
HETATM   22  C12 UNL     1       7.550  77.334  48.861  1.00  0.00     0.025 C 
ENDBRANCH  15  17
ENDBRANCH  13  15
BRANCH  14  23
HETATM   23  C13 UNL     1       6.982  81.913  48.552  1.00  0.00     0.093 C 
HETATM   24  C14 UNL     1       6.191  81.018  49.460  1.00  0.00     0.026 C 
HETATM   25  C15 UNL     1       6.831  81.114  50.838  1.00  0.00     0.002 C 
HETATM   26  C16 UNL     1       8.177  81.761  50.656  1.00  0.00     0.002 C 
HETATM   27  C17 UNL     1       8.178  82.428  49.297  1.00  0.00     0.026 C 
ENDBRANCH  14  23
TORSDOF 3
ENDMDL
MODEL 3
REMARK VINA RESULT: -7.811744961      0.764      1.142
REMARK  3 active torsions:
REMARK  status: ('A' for Active; 'I' for Inactive)
REMARK    1  A    between atoms: C6_13  and  N4_14 
REMARK    2  A    between atoms: N4_14  and  C7_16 
REMARK    3  A    between atoms: N5_22  and  C13_23 
ROOT
HETATM    1  C1  UNL     1       7.371  80.021  45.948  1.00  0.00     0.089 C 
HETATM    2  C2  UNL     1       7.262  78.866  46.866  1.00  0.00     0.082 A 
HETATM    3  N1  UNL     1       7.154  77.633  46.329  1.00  0.00    -0.330 N 
ATOM      4  H1  UNL     1       7.151  77.546  45.312  1.00  0.00     0.168 HD
HETATM    5  C3  UNL     1       7.050  76.519  47.063  1.00  0.00     0.140 A 
HETATM    6  N2  UNL     1       6.934  75.205  46.761  1.00  0.00    -0.317 N 
ATOM      7  H2  UNL     1       6.903  74.812  45.820  1.00  0.00     0.170 HD
HETATM    8  C4  UNL     1       6.867  74.511  47.892  1.00  0.00     0.178 A 
HETATM    9  S1  UNL     1       6.722  72.893  48.096  1.00  0.00    -0.040 SA
HETATM   10  N3  UNL     1       6.941  75.395  48.907  1.00  0.00    -0.327 N 
ATOM     11  H3  UNL     1       6.916  75.150  49.897  1.00  0.00     0.168 HD
HETATM   12  C5  UNL     1       7.055  76.651  48.428  1.00  0.00     0.123 A 
HETATM   13  C6  UNL     1       7.166  77.918  48.966  1.00  0.00     0.136 A 
HETATM   14  N5  UNL     1       7.273  79.060  48.191  1.00  0.00    -0.316 N 
ENDROOT
BRANCH  13  15
HETATM   15  N4  UNL     1       7.172  78.075  50.198  1.00  0.00    -0.369 N 
ATOM     16  H4  UNL     1       6.320  78.583  50.431  1.00  0.00     0.161 HD
BRANCH  15  17
HETATM   17  C7  UNL     1       7.831  77.859  51.372  1.00  0.00     0.083 C 
HETATM   18  C8  UNL     1       7.051  78.154  52.642  1.00  0.00     0.025 C 
HETATM   19  C9  UNL     1       7.519  77.271  53.773  1.00  0.00     0.002 C 
HETATM   20  C10 UNL     1       7.227  75.812  53.512  1.00  0.00     0.000 C 
HETATM   21  C11 UNL     1       7.252  75.516  52.025  1.00  0.00     0.002 C 
HETATM   22  C12 UNL     1       8.306  76.385  51.410  1.00  0.00     0.025 C 
ENDBRANCH  15  17
ENDBRANCH  13  15
BRANCH  14  23
HETATM   23  C13 UNL     1       7.388  80.335  48.829  1.00  0.00     0.093 C 
HETATM   24  C14 UNL     1       6.316  80.712  49.808  1.00  0.00     0.026 C 
HETATM   25  C15 UNL     1       6.999  81.475  50.935  1.00  0.00     0.002 C 
HETATM   26  C16 UNL     1       8.478  81.230  50.800  1.00  0.00     0.002 C 
HETATM   27  C17 UNL     1       8.724  80.704  49.402  1.00  0.00     0.026 C 
ENDBRANCH  14  23
TORSDOF 3
ENDMDL
MODEL 4
REMARK VINA RESULT: -7.692199025      2.001      5.198
REMARK  3 active torsions:
REMARK  status: ('A' for Active; 'I' for Inactive)
REMARK    1  A    between atoms: C6_13  and  N4_14 
REMARK    2  A    between atoms: N4_14  and  C7_16 
REMARK    3  A    between atoms: N5_22  and  C13_23 
ROOT
HETATM    1  C1  UNL     1       6.472  74.385  49.656  1.00  0.00     0.089 C 
HETATM    2  C2  UNL     1       6.991  75.673  49.146  1.00  0.00     0.082 A 
HETATM    3  N1  UNL     1       6.934  75.901  47.818  1.00  0.00    -0.330 N 
ATOM      4  H1  UNL     1       6.536  75.177  47.219  1.00  0.00     0.168 HD
HETATM    5  C3  UNL     1       7.373  77.029  47.247  1.00  0.00     0.140 A 
HETATM    6  N2  UNL     1       7.420  77.477  45.971  1.00  0.00    -0.317 N 
ATOM      7  H2  UNL     1       7.092  76.968  45.149  1.00  0.00     0.170 HD
HETATM    8  C4  UNL     1       7.963  78.690  45.964  1.00  0.00     0.178 A 
HETATM    9  S1  UNL     1       8.253  79.677  44.690  1.00  0.00    -0.040 SA
HETATM   10  N3  UNL     1       8.257  79.002  47.242  1.00  0.00    -0.327 N 
ATOM     11  H3  UNL     1       8.686  79.877  47.545  1.00  0.00     0.168 HD
HETATM   12  C5  UNL     1       7.905  77.992  48.065  1.00  0.00     0.123 A 
HETATM   13  C6  UNL     1       7.958  77.748  49.423  1.00  0.00     0.136 A 
HETATM   14  N5  UNL     1       7.498  76.575  49.996  1.00  0.00    -0.316 N 
ENDROOT
BRANCH  13  15
HETATM   15  N4  UNL     1       8.434  78.598  50.192  1.00  0.00    -0.369 N 
ATOM     16  H4  UNL     1       9.208  78.148  50.680  1.00  0.00     0.161 HD
BRANCH  15  17
HETATM   17  C7  UNL     1       8.366  79.875  50.665  1.00  0.00     0.083 C 
HETATM   18  C8  UNL     1       9.086  80.932  49.845  1.00  0.00     0.025 C 
HETATM   19  C9  UNL     1       8.407  82.273  49.989  1.00  0.00     0.002 C 
HETATM   20  C10 UNL     1       7.013  82.268  49.409  1.00  0.00     0.000 C 
HETATM   21  C11 UNL     1       6.389  80.890  49.518  1.00  0.00     0.002 C 
HETATM   22  C12 UNL     1       6.875  80.276  50.795  1.00  0.00     0.025 C 
ENDBRANCH  15  17
ENDBRANCH  13  15
BRANCH  14  23
HETATM   23  C13 UNL     1       7.587  76.402  51.413  1.00  0.00     0.093 C 
HETATM   24  C14 UNL     1       6.435  76.894  52.239  1.00  0.00     0.026 C 
HETATM   25  C15 UNL     1       6.255  75.900  53.378  1.00  0.00     0.002 C 
HETATM   26  C16 UNL     1       7.043  74.669  53.018  1.00  0.00     0.002 C 
HETATM   27  C17 UNL     1       8.012  75.057  51.922  1.00  0.00     0.026 C 
ENDBRANCH  14  23
TORSDOF 3
ENDMDL
MODEL 5
REMARK VINA RESULT: -7.663323030      2.996      4.575
REMARK  3 active torsions:
REMARK  status: ('A' for Active; 'I' for Inactive)
REMARK    1  A    between atoms: C6_13  and  N4_14 
REMARK    2  A    between atoms: N4_14  and  C7_16 
REMARK    3  A    between atoms: N5_22  and  C13_23 
ROOT
HETATM    1  C1  UNL     1       8.807  82.615  45.693  1.00  0.00     0.089 C 
HETATM    2  C2  UNL     1       8.656  81.185  45.350  1.00  0.00     0.082 A 
HETATM    3  N1  UNL     1       8.886  80.808  44.075  1.00  0.00    -0.330 N 
ATOM      4  H1  UNL     1       9.154  81.524  43.399  1.00  0.00     0.168 HD
HETATM    5  C3  UNL     1       8.780  79.543  43.652  1.00  0.00     0.140 A 
HETATM    6  N2  UNL     1       8.956  78.936  42.455  1.00  0.00    -0.317 N 
ATOM      7  H2  UNL     1       9.227  79.400  41.588  1.00  0.00     0.170 HD
HETATM    8  C4  UNL     1       8.717  77.636  42.597  1.00  0.00     0.178 A 
HETATM    9  S1  UNL     1       8.786  76.453  41.468  1.00  0.00    -0.040 SA
HETATM   10  N3  UNL     1       8.390  77.429  43.888  1.00  0.00    -0.327 N 
ATOM     11  H3  UNL     1       8.155  76.522  44.291  1.00  0.00     0.168 HD
HETATM   12  C5  UNL     1       8.418  78.592  44.572  1.00  0.00     0.123 A 
HETATM   13  C6  UNL     1       8.186  78.988  45.873  1.00  0.00     0.136 A 
HETATM   14  N5  UNL     1       8.301  80.303  46.293  1.00  0.00    -0.316 N 
ENDROOT
BRANCH  13  15
HETATM   15  N4  UNL     1       7.856  78.154  46.732  1.00  0.00    -0.369 N 
ATOM     16  H4  UNL     1       8.658  78.038  47.350  1.00  0.00     0.161 HD
BRANCH  15  17
HETATM   17  C7  UNL     1       6.880  77.327  47.201  1.00  0.00     0.083 C 
HETATM   18  C8  UNL     1       7.100  75.839  46.984  1.00  0.00     0.025 C 
HETATM   19  C9  UNL     1       6.435  75.036  48.075  1.00  0.00     0.002 C 
HETATM   20  C10 UNL     1       7.059  75.289  49.426  1.00  0.00     0.000 C 
HETATM   21  C11 UNL     1       7.609  76.699  49.509  1.00  0.00     0.002 C 
HETATM   22  C12 UNL     1       6.697  77.586  48.718  1.00  0.00     0.025 C 
ENDBRANCH  15  17
ENDBRANCH  13  15
BRANCH  14  23
HETATM   23  C13 UNL     1       8.046  80.629  47.662  1.00  0.00     0.093 C 
HETATM   24  C14 UNL     1       9.164  81.261  48.438  1.00  0.00     0.026 C 
HETATM   25  C15 UNL     1       8.529  82.285  49.368  1.00  0.00     0.002 C 
HETATM   26  C16 UNL     1       7.120  82.505  48.886  1.00  0.00     0.002 C 
HETATM   27  C17 UNL     1       6.768  81.349  47.976  1.00  0.00     0.026 C 
ENDBRANCH  14  23
TORSDOF 3
ENDMDL
