MODEL 1
REMARK VINA RESULT: -6.426328506      0.000      0.000
REMARK  3 active torsions:
REMARK  status: ('A' for Active; 'I' for Inactive)
REMARK    1  A    between atoms: C1_1  and  C2_2 
REMARK    2  A    between atoms: C2_2  and  C3_3 
REMARK    3  A    between atoms: N1_8  and  N2_10 
ROOT
HETATM    1  C1  UNL     1      79.411  74.532  97.730  1.00  0.00     0.085 C 
HETATM    2  N1  UNL     1      78.442  74.287  96.898  1.00  0.00    -0.310 N 
ATOM      3  H1  UNL     1      78.612  74.169  95.898  1.00  0.00     0.186 HD
ENDROOT
BRANCH   2   4
HETATM    4  N2  UNL     1      77.166  74.194  97.435  1.00  0.00    -0.279 N 
HETATM    5  C7  UNL     1      76.948  74.646  98.669  1.00  0.00     0.115 A 
HETATM    6  C8  UNL     1      75.697  74.569  99.230  1.00  0.00     0.019 A 
HETATM    7  C9  UNL     1      74.658  74.028  98.530  1.00  0.00     0.003 A 
HETATM    8  C10 UNL     1      74.916  73.572  97.259  1.00  0.00     0.019 A 
HETATM    9  C11 UNL     1      76.179  73.659  96.719  1.00  0.00     0.115 A 
ENDBRANCH   2   4
BRANCH   1  10
HETATM   10  C2  UNL     1      80.796  74.639  97.201  1.00  0.00     0.086 C 
BRANCH  10  11
HETATM   11  C3  UNL     1      81.592  75.572  98.016  1.00  0.00    -0.029 A 
HETATM   12  C4  UNL     1      82.495  76.501  97.549  1.00  0.00     0.034 A 
HETATM   13  C5  UNL     1      83.014  77.162  98.629  1.00  0.00     0.142 A 
HETATM   14  O1  UNL     1      82.453  76.654  99.689  1.00  0.00    -0.334 OA
HETATM   15  C6  UNL     1      81.598  75.705  99.400  1.00  0.00     0.148 A 
ENDBRANCH  10  11
ENDBRANCH   1  10
TORSDOF 3
ENDMDL
MODEL 2
REMARK VINA RESULT: -6.419330748      0.034      1.246
REMARK  3 active torsions:
REMARK  status: ('A' for Active; 'I' for Inactive)
REMARK    1  A    between atoms: C1_1  and  C2_2 
REMARK    2  A    between atoms: C2_2  and  C3_3 
REMARK    3  A    between atoms: N1_8  and  N2_10 
ROOT
HETATM    1  C1  UNL     1      79.402  74.524  97.751  1.00  0.00     0.085 C 
HETATM    2  N1  UNL     1      78.430  74.289  96.920  1.00  0.00    -0.310 N 
ATOM      3  H1  UNL     1      78.596  74.180  95.920  1.00  0.00     0.186 HD
ENDROOT
BRANCH   2   4
HETATM    4  N2  UNL     1      77.155  74.195  97.462  1.00  0.00    -0.279 N 
HETATM    5  C7  UNL     1      76.182  73.646  96.735  1.00  0.00     0.115 A 
HETATM    6  C8  UNL     1      74.910  73.538  97.241  1.00  0.00     0.019 A 
HETATM    7  C9  UNL     1      74.625  73.990  98.497  1.00  0.00     0.003 A 
HETATM    8  C10 UNL     1      75.652  74.550  99.220  1.00  0.00     0.019 A 
HETATM    9  C11 UNL     1      76.919  74.648  98.691  1.00  0.00     0.115 A 
ENDBRANCH   2   4
BRANCH   1  10
HETATM   10  C2  UNL     1      80.786  74.632  97.218  1.00  0.00     0.086 C 
BRANCH  10  11
HETATM   11  C3  UNL     1      81.586  75.560  98.036  1.00  0.00    -0.029 A 
HETATM   12  C4  UNL     1      82.492  76.487  97.571  1.00  0.00     0.034 A 
HETATM   13  C5  UNL     1      83.015  77.142  98.653  1.00  0.00     0.142 A 
HETATM   14  O1  UNL     1      82.452  76.632  99.712  1.00  0.00    -0.334 OA
HETATM   15  C6  UNL     1      81.593  75.688  99.420  1.00  0.00     0.148 A 
ENDBRANCH  10  11
ENDBRANCH   1  10
TORSDOF 3
ENDMDL
MODEL 3
REMARK VINA RESULT: -6.167180711      1.218      1.507
REMARK  3 active torsions:
REMARK  status: ('A' for Active; 'I' for Inactive)
REMARK    1  A    between atoms: C1_1  and  C2_2 
REMARK    2  A    between atoms: C2_2  and  C3_3 
REMARK    3  A    between atoms: N1_8  and  N2_10 
ROOT
HETATM    1  C1  UNL     1      79.276  74.069  97.448  1.00  0.00     0.085 C 
HETATM    2  N1  UNL     1      78.654  73.136  96.790  1.00  0.00    -0.310 N 
ATOM      3  H1  UNL     1      79.116  72.603  96.053  1.00  0.00     0.186 HD
ENDROOT
BRANCH   2   4
HETATM    4  N2  UNL     1      77.331  72.903  97.138  1.00  0.00    -0.279 N 
HETATM    5  C7  UNL     1      76.397  73.770  96.751  1.00  0.00     0.115 A 
HETATM    6  C8  UNL     1      75.079  73.568  97.080  1.00  0.00     0.019 A 
HETATM    7  C9  UNL     1      74.707  72.474  97.806  1.00  0.00     0.003 A 
HETATM    8  C10 UNL     1      75.696  71.599  98.188  1.00  0.00     0.019 A 
HETATM    9  C11 UNL     1      77.010  71.823  97.848  1.00  0.00     0.115 A 
ENDBRANCH   2   4
BRANCH   1  10
HETATM   10  C2  UNL     1      80.696  74.355  97.112  1.00  0.00     0.086 C 
BRANCH  10  11
HETATM   11  C3  UNL     1      81.179  75.531  97.855  1.00  0.00    -0.029 A 
HETATM   12  C4  UNL     1      82.345  76.225  97.620  1.00  0.00     0.034 A 
HETATM   13  C5  UNL     1      82.417  77.245  98.529  1.00  0.00     0.142 A 
HETATM   14  O1  UNL     1      81.350  77.165  99.272  1.00  0.00    -0.334 OA
HETATM   15  C6  UNL     1      80.570  76.171  98.928  1.00  0.00     0.148 A 
ENDBRANCH  10  11
ENDBRANCH   1  10
TORSDOF 3
ENDMDL
MODEL 4
REMARK VINA RESULT: -6.098932410      2.884      6.575
REMARK  3 active torsions:
REMARK  status: ('A' for Active; 'I' for Inactive)
REMARK    1  A    between atoms: C1_1  and  C2_2 
REMARK    2  A    between atoms: C2_2  and  C3_3 
REMARK    3  A    between atoms: N1_8  and  N2_10 
ROOT
HETATM    1  C1  UNL     1      79.936  75.431  98.499  1.00  0.00     0.085 C 
HETATM    2  N1  UNL     1      80.627  76.439  98.943  1.00  0.00    -0.310 N 
ATOM      3  H1  UNL     1      80.192  77.194  99.474  1.00  0.00     0.186 HD
ENDROOT
BRANCH   2   4
HETATM    4  N2  UNL     1      81.986  76.438  98.660  1.00  0.00    -0.279 N 
HETATM    5  C7  UNL     1      82.661  75.291  98.729  1.00  0.00     0.115 A 
HETATM    6  C8  UNL     1      84.006  75.256  98.455  1.00  0.00     0.019 A 
HETATM    7  C9  UNL     1      84.671  76.396  98.107  1.00  0.00     0.003 A 
HETATM    8  C10 UNL     1      83.945  77.562  98.044  1.00  0.00     0.019 A 
HETATM    9  C11 UNL     1      82.597  77.572  98.325  1.00  0.00     0.115 A 
ENDBRANCH   2   4
BRANCH   1  10
HETATM   10  C2  UNL     1      78.477  75.387  98.779  1.00  0.00     0.086 C 
BRANCH  10  11
HETATM   11  C3  UNL     1      77.810  74.405  97.907  1.00  0.00    -0.029 A 
HETATM   12  C4  UNL     1      77.013  74.685  96.820  1.00  0.00     0.034 A 
HETATM   13  C5  UNL     1      76.594  73.495  96.289  1.00  0.00     0.142 A 
HETATM   14  O1  UNL     1      77.113  72.551  97.022  1.00  0.00    -0.334 OA
HETATM   15  C6  UNL     1      77.846  73.019  98.000  1.00  0.00     0.148 A 
ENDBRANCH  10  11
ENDBRANCH   1  10
TORSDOF 3
ENDMDL
MODEL 5
REMARK VINA RESULT: -6.080352043      2.721      6.517
REMARK  3 active torsions:
REMARK  status: ('A' for Active; 'I' for Inactive)
REMARK    1  A    between atoms: C1_1  and  C2_2 
REMARK    2  A    between atoms: C2_2  and  C3_3 
REMARK    3  A    between atoms: N1_8  and  N2_10 
ROOT
HETATM    1  C1  UNL     1      79.461  75.585  98.756  1.00  0.00     0.085 C 
HETATM    2  N1  UNL     1      80.269  76.554  99.070  1.00  0.00    -0.310 N 
ATOM      3  H1  UNL     1      79.931  77.413  99.503  1.00  0.00     0.186 HD
ENDROOT
BRANCH   2   4
HETATM    4  N2  UNL     1      81.614  76.363  98.785  1.00  0.00    -0.279 N 
HETATM    5  C7  UNL     1      82.366  77.417  98.470  1.00  0.00     0.115 A 
HETATM    6  C8  UNL     1      83.699  77.262  98.183  1.00  0.00     0.019 A 
HETATM    7  C9  UNL     1      84.275  76.024  98.219  1.00  0.00     0.003 A 
HETATM    8  C10 UNL     1      83.472  74.959  98.549  1.00  0.00     0.019 A 
HETATM    9  C11 UNL     1      82.137  75.139  98.831  1.00  0.00     0.115 A 
ENDBRANCH   2   4
BRANCH   1  10
HETATM   10  C2  UNL     1      78.011  75.743  99.042  1.00  0.00     0.086 C 
BRANCH  10  11
HETATM   11  C3  UNL     1      77.207  74.917  98.125  1.00  0.00    -0.029 A 
HETATM   12  C4  UNL     1      75.992  74.334  98.402  1.00  0.00     0.034 A 
HETATM   13  C5  UNL     1      75.587  73.656  97.284  1.00  0.00     0.142 A 
HETATM   14  O1  UNL     1      76.513  73.824  96.384  1.00  0.00    -0.334 OA
HETATM   15  C6  UNL     1      77.505  74.562  96.815  1.00  0.00     0.148 A 
ENDBRANCH  10  11
ENDBRANCH   1  10
TORSDOF 3
ENDMDL
