MODEL 1
REMARK VINA RESULT: -6.064115218      0.000      0.000
REMARK  3 active torsions:
REMARK  status: ('A' for Active; 'I' for Inactive)
REMARK    1  A    between atoms: N1_4  and  C4_5 
REMARK    2  A    between atoms: C4_5  and  C5_6 
REMARK    3  A    between atoms: C5_6  and  N2_7 
ROOT
HETATM    1  C5  UNL     1      80.180  74.613  98.891  1.00  0.00     0.170 C 
ENDROOT
BRANCH   1   2
HETATM    2  C4  UNL     1      81.635  74.125  98.865  1.00  0.00     0.149 C 
BRANCH   2   3
HETATM    3  N1  UNL     1      82.437  75.301  98.585  1.00  0.00    -0.365 N 
HETATM    4  C3  UNL     1      81.892  76.512  98.446  1.00  0.00     0.090 A 
HETATM    5  C2  UNL     1      82.698  77.601  98.178  1.00  0.00     0.017 A 
HETATM    6  C1  UNL     1      84.073  77.443  98.054  1.00  0.00     0.003 A 
HETATM    7  C9  UNL     1      84.622  76.190  98.199  1.00  0.00     0.017 A 
HETATM    8  C8  UNL     1      83.787  75.132  98.464  1.00  0.00     0.090 A 
ENDBRANCH   2   3
ENDBRANCH   1   2
BRANCH   1   9
HETATM    9  N2  UNL     1      79.305  73.754  98.163  1.00  0.00    -0.286 N 
HETATM   10  C6  UNL     1      78.143  73.247  98.649  1.00  0.00     0.130 A 
HETATM   11  C7  UNL     1      77.557  72.458  97.674  1.00  0.00     0.127 A 
HETATM   12  N3  UNL     1      78.396  72.518  96.622  1.00  0.00    -0.296 N 
HETATM   13  N4  UNL     1      79.418  73.288  96.936  1.00  0.00    -0.241 N 
ATOM     14  H3  UNL     1      78.262  72.046  95.727  1.00  0.00     0.187 HD
ATOM     15  H4  UNL     1      80.196  73.496  96.310  1.00  0.00     0.208 HD
ENDBRANCH   1   9
TORSDOF 3
ENDMDL
MODEL 2
REMARK VINA RESULT: -6.037441857      0.425      1.351
REMARK  3 active torsions:
REMARK  status: ('A' for Active; 'I' for Inactive)
REMARK    1  A    between atoms: N1_4  and  C4_5 
REMARK    2  A    between atoms: C4_5  and  C5_6 
REMARK    3  A    between atoms: C5_6  and  N2_7 
ROOT
HETATM    1  C5  UNL     1      80.210  74.989  98.249  1.00  0.00     0.170 C 
ENDROOT
BRANCH   1   2
HETATM    2  C4  UNL     1      81.518  74.398  98.793  1.00  0.00     0.149 C 
BRANCH   2   3
HETATM    3  N1  UNL     1      82.553  75.351  98.442  1.00  0.00    -0.365 N 
HETATM    4  C3  UNL     1      83.850  75.081  98.613  1.00  0.00     0.090 A 
HETATM    5  C2  UNL     1      84.799  76.023  98.265  1.00  0.00     0.017 A 
HETATM    6  C1  UNL     1      84.411  77.248  97.736  1.00  0.00     0.003 A 
HETATM    7  C9  UNL     1      83.072  77.513  97.564  1.00  0.00     0.017 A 
HETATM    8  C8  UNL     1      82.160  76.552  97.924  1.00  0.00     0.090 A 
ENDBRANCH   2   3
ENDBRANCH   1   2
BRANCH   1   9
HETATM    9  N2  UNL     1      79.290  73.982  97.832  1.00  0.00    -0.286 N 
HETATM   10  C6  UNL     1      78.178  73.621  98.522  1.00  0.00     0.130 A 
HETATM   11  C7  UNL     1      77.525  72.618  97.825  1.00  0.00     0.127 A 
HETATM   12  N3  UNL     1      78.275  72.409  96.726  1.00  0.00    -0.296 N 
HETATM   13  N4  UNL     1      79.309  73.225  96.755  1.00  0.00    -0.241 N 
ATOM     14  H3  UNL     1      78.075  71.730  95.991  1.00  0.00     0.187 HD
ATOM     15  H4  UNL     1      80.030  73.265  96.034  1.00  0.00     0.208 HD
ENDBRANCH   1   9
TORSDOF 3
ENDMDL
MODEL 3
REMARK VINA RESULT: -5.823099492      1.066      1.121
REMARK  3 active torsions:
REMARK  status: ('A' for Active; 'I' for Inactive)
REMARK    1  A    between atoms: N1_4  and  C4_5 
REMARK    2  A    between atoms: C4_5  and  C5_6 
REMARK    3  A    between atoms: C5_6  and  N2_7 
ROOT
HETATM    1  C5  UNL     1      79.600  74.903  98.241  1.00  0.00     0.170 C 
ENDROOT
BRANCH   1   2
HETATM    2  C4  UNL     1      80.835  74.082  98.637  1.00  0.00     0.149 C 
BRANCH   2   3
HETATM    3  N1  UNL     1      81.975  74.942  98.383  1.00  0.00    -0.365 N 
HETATM    4  C3  UNL     1      81.848  76.121  97.770  1.00  0.00     0.090 A 
HETATM    5  C2  UNL     1      82.965  76.904  97.549  1.00  0.00     0.017 A 
HETATM    6  C1  UNL     1      84.218  76.471  97.963  1.00  0.00     0.003 A 
HETATM    7  C9  UNL     1      84.335  75.254  98.594  1.00  0.00     0.017 A 
HETATM    8  C8  UNL     1      83.202  74.505  98.794  1.00  0.00     0.090 A 
ENDBRANCH   2   3
ENDBRANCH   1   2
BRANCH   1   9
HETATM    9  N2  UNL     1      78.656  74.140  97.494  1.00  0.00    -0.286 N 
HETATM   10  C6  UNL     1      77.402  74.558  97.183  1.00  0.00     0.130 A 
HETATM   11  C7  UNL     1      76.768  73.566  96.453  1.00  0.00     0.127 A 
HETATM   12  N3  UNL     1      77.675  72.574  96.347  1.00  0.00    -0.296 N 
HETATM   13  N4  UNL     1      78.777  72.938  96.969  1.00  0.00    -0.241 N 
ATOM     14  H3  UNL     1      77.530  71.687  95.865  1.00  0.00     0.187 HD
ATOM     15  H4  UNL     1      79.617  72.362  97.036  1.00  0.00     0.208 HD
ENDBRANCH   1   9
TORSDOF 3
ENDMDL
MODEL 4
REMARK VINA RESULT: -5.796649572      2.216      6.279
REMARK  3 active torsions:
REMARK  status: ('A' for Active; 'I' for Inactive)
REMARK    1  A    between atoms: N1_4  and  C4_5 
REMARK    2  A    between atoms: C4_5  and  C5_6 
REMARK    3  A    between atoms: C5_6  and  N2_7 
ROOT
HETATM    1  C5  UNL     1      79.499  75.010  98.691  1.00  0.00     0.170 C 
ENDROOT
BRANCH   1   2
HETATM    2  C4  UNL     1      78.182  75.756  98.944  1.00  0.00     0.149 C 
BRANCH   2   3
HETATM    3  N1  UNL     1      77.168  75.017  98.217  1.00  0.00    -0.365 N 
HETATM    4  C3  UNL     1      77.309  74.704  96.927  1.00  0.00     0.090 A 
HETATM    5  C2  UNL     1      76.314  73.999  96.278  1.00  0.00     0.017 A 
HETATM    6  C1  UNL     1      75.167  73.613  96.961  1.00  0.00     0.003 A 
HETATM    7  C9  UNL     1      75.034  73.942  98.291  1.00  0.00     0.017 A 
HETATM    8  C8  UNL     1      76.045  74.644  98.900  1.00  0.00     0.090 A 
ENDBRANCH   2   3
ENDBRANCH   1   2
BRANCH   1   9
HETATM    9  N2  UNL     1      80.608  75.896  98.553  1.00  0.00    -0.286 N 
HETATM   10  C6  UNL     1      81.701  75.647  97.787  1.00  0.00     0.130 A 
HETATM   11  C7  UNL     1      82.572  76.719  97.889  1.00  0.00     0.127 A 
HETATM   12  N3  UNL     1      81.965  77.586  98.722  1.00  0.00    -0.296 N 
HETATM   13  N4  UNL     1      80.810  77.077  99.098  1.00  0.00    -0.241 N 
ATOM     14  H3  UNL     1      82.339  78.490  99.013  1.00  0.00     0.187 HD
ATOM     15  H4  UNL     1      80.157  77.539  99.731  1.00  0.00     0.208 HD
ENDBRANCH   1   9
TORSDOF 3
ENDMDL
MODEL 5
REMARK VINA RESULT: -5.709684314      1.601      1.856
REMARK  3 active torsions:
REMARK  status: ('A' for Active; 'I' for Inactive)
REMARK    1  A    between atoms: N1_4  and  C4_5 
REMARK    2  A    between atoms: C4_5  and  C5_6 
REMARK    3  A    between atoms: C5_6  and  N2_7 
ROOT
HETATM    1  C5  UNL     1      79.084  74.563  97.921  1.00  0.00     0.170 C 
ENDROOT
BRANCH   1   2
HETATM    2  C4  UNL     1      80.513  74.266  97.445  1.00  0.00     0.149 C 
BRANCH   2   3
HETATM    3  N1  UNL     1      81.336  75.327  97.992  1.00  0.00    -0.365 N 
HETATM    4  C3  UNL     1      81.296  75.659  99.285  1.00  0.00     0.090 A 
HETATM    5  C2  UNL     1      82.099  76.678  99.758  1.00  0.00     0.017 A 
HETATM    6  C1  UNL     1      82.950  77.359  98.896  1.00  0.00     0.003 A 
HETATM    7  C9  UNL     1      82.983  77.007  97.566  1.00  0.00     0.017 A 
HETATM    8  C8  UNL     1      82.168  75.990  97.134  1.00  0.00     0.090 A 
ENDBRANCH   2   3
ENDBRANCH   1   2
BRANCH   1   9
HETATM    9  N2  UNL     1      78.097  73.960  97.088  1.00  0.00    -0.286 N 
HETATM   10  C6  UNL     1      76.993  74.595  96.618  1.00  0.00     0.130 A 
HETATM   11  C7  UNL     1      76.261  73.708  95.846  1.00  0.00     0.127 A 
HETATM   12  N3  UNL     1      76.959  72.556  95.879  1.00  0.00    -0.296 N 
HETATM   13  N4  UNL     1      78.035  72.731  96.617  1.00  0.00    -0.241 N 
ATOM     14  H3  UNL     1      76.696  71.689  95.408  1.00  0.00     0.187 HD
ATOM     15  H4  UNL     1      78.731  72.008  96.800  1.00  0.00     0.208 HD
ENDBRANCH   1   9
TORSDOF 3
ENDMDL
