MODEL 1
REMARK VINA RESULT: -6.379614376      0.000      0.000
REMARK  3 active torsions:
REMARK  status: ('A' for Active; 'I' for Inactive)
REMARK    1  A    between atoms: N1_1  and  N2_4 
REMARK    2  A    between atoms: N3_8  and  C4_9 
REMARK    3  A    between atoms: C4_9  and  C5_10 
ROOT
HETATM    1  N2  UNL     1      78.458  73.533  97.356  1.00  0.00    -0.269 N 
HETATM    2  C1  UNL     1      77.501  74.462  97.408  1.00  0.00     0.118 A 
HETATM    3  C2  UNL     1      77.630  75.569  98.216  1.00  0.00     0.036 A 
HETATM    4  C3  UNL     1      78.760  75.728  98.983  1.00  0.00     0.093 A 
HETATM    5  N3  UNL     1      79.713  74.797  98.928  1.00  0.00    -0.347 N 
HETATM    6  C11 UNL     1      79.546  73.735  98.127  1.00  0.00     0.208 A 
ENDROOT
BRANCH   5   7
HETATM    7  C4  UNL     1      80.929  74.885  99.700  1.00  0.00     0.167 C 
BRANCH   7   8
HETATM    8  C5  UNL     1      81.988  75.660  99.059  1.00  0.00    -0.040 A 
HETATM    9  C6  UNL     1      81.860  76.993  98.701  1.00  0.00     0.009 A 
HETATM   10  C7  UNL     1      82.897  77.661  98.101  1.00  0.00     0.001 A 
HETATM   11  C8  UNL     1      84.104  77.034  97.831  1.00  0.00     0.000 A 
HETATM   12  C9  UNL     1      84.243  75.727  98.177  1.00  0.00     0.001 A 
HETATM   13  C10 UNL     1      83.190  75.042  98.789  1.00  0.00     0.009 A 
ENDBRANCH   7   8
ENDBRANCH   5   7
BRANCH   1  14
HETATM   14  N1  UNL     1      78.354  72.395  96.541  1.00  0.00    -0.338 N 
ATOM     15  H12 UNL     1      78.597  72.435  95.552  1.00  0.00     0.177 HD
ATOM     16  H11 UNL     1      78.035  71.495  96.901  1.00  0.00     0.177 HD
ENDBRANCH   1  14
TORSDOF 3
ENDMDL
MODEL 2
REMARK VINA RESULT: -6.292599694      0.050      1.263
REMARK  3 active torsions:
REMARK  status: ('A' for Active; 'I' for Inactive)
REMARK    1  A    between atoms: N1_1  and  N2_4 
REMARK    2  A    between atoms: N3_8  and  C4_9 
REMARK    3  A    between atoms: C4_9  and  C5_10 
ROOT
HETATM    1  N2  UNL     1      78.495  73.547  97.355  1.00  0.00    -0.269 N 
HETATM    2  C1  UNL     1      77.526  74.466  97.391  1.00  0.00     0.118 A 
HETATM    3  C2  UNL     1      77.628  75.571  98.205  1.00  0.00     0.036 A 
HETATM    4  C3  UNL     1      78.740  75.739  98.996  1.00  0.00     0.093 A 
HETATM    5  N3  UNL     1      79.703  74.818  98.956  1.00  0.00    -0.347 N 
HETATM    6  C11 UNL     1      79.565  73.757  98.149  1.00  0.00     0.208 A 
ENDROOT
BRANCH   5   7
HETATM    7  C4  UNL     1      80.903  74.916  99.753  1.00  0.00     0.167 C 
BRANCH   7   8
HETATM    8  C5  UNL     1      82.004  75.610  99.090  1.00  0.00    -0.040 A 
HETATM    9  C6  UNL     1      83.217  75.016  98.782  1.00  0.00     0.009 A 
HETATM   10  C7  UNL     1      84.210  75.729  98.158  1.00  0.00     0.001 A 
HETATM   11  C8  UNL     1      84.039  77.061  97.815  1.00  0.00     0.000 A 
HETATM   12  C9  UNL     1      82.853  77.657  98.111  1.00  0.00     0.001 A 
HETATM   13  C10 UNL     1      81.839  76.935  98.746  1.00  0.00     0.009 A 
ENDBRANCH   7   8
ENDBRANCH   5   7
BRANCH   1  14
HETATM   14  N1  UNL     1      78.419  72.411  96.534  1.00  0.00    -0.338 N 
ATOM     15  H12 UNL     1      78.059  72.476  95.582  1.00  0.00     0.177 HD
ATOM     16  H11 UNL     1      78.715  71.488  96.853  1.00  0.00     0.177 HD
ENDBRANCH   1  14
TORSDOF 3
ENDMDL
MODEL 3
REMARK VINA RESULT: -6.046890484      1.328      1.917
REMARK  3 active torsions:
REMARK  status: ('A' for Active; 'I' for Inactive)
REMARK    1  A    between atoms: N1_1  and  N2_4 
REMARK    2  A    between atoms: N3_8  and  C4_9 
REMARK    3  A    between atoms: C4_9  and  C5_10 
ROOT
HETATM    1  N2  UNL     1      78.133  75.313  99.168  1.00  0.00    -0.269 N 
HETATM    2  C1  UNL     1      77.650  74.921  97.986  1.00  0.00     0.118 A 
HETATM    3  C2  UNL     1      78.458  74.308  97.057  1.00  0.00     0.036 A 
HETATM    4  C3  UNL     1      79.786  74.093  97.341  1.00  0.00     0.093 A 
HETATM    5  N3  UNL     1      80.264  74.487  98.522  1.00  0.00    -0.347 N 
HETATM    6  C11 UNL     1      79.442  75.079  99.398  1.00  0.00     0.208 A 
ENDROOT
BRANCH   5   7
HETATM    7  C4  UNL     1      81.645  74.300  98.901  1.00  0.00     0.167 C 
BRANCH   7   8
HETATM    8  C5  UNL     1      82.516  75.419  98.554  1.00  0.00    -0.040 A 
HETATM    9  C6  UNL     1      82.058  76.697  98.279  1.00  0.00     0.009 A 
HETATM   10  C7  UNL     1      82.935  77.703  97.959  1.00  0.00     0.001 A 
HETATM   11  C8  UNL     1      84.302  77.481  97.898  1.00  0.00     0.000 A 
HETATM   12  C9  UNL     1      84.765  76.231  98.165  1.00  0.00     0.001 A 
HETATM   13  C10 UNL     1      83.876  75.203  98.492  1.00  0.00     0.009 A 
ENDBRANCH   7   8
ENDBRANCH   5   7
BRANCH   1  14
HETATM   14  N1  UNL     1      77.332  75.939 100.135  1.00  0.00    -0.338 N 
ATOM     15  H12 UNL     1      76.771  76.758  99.900  1.00  0.00     0.177 HD
ATOM     16  H11 UNL     1      77.281  75.606 101.097  1.00  0.00     0.177 HD
ENDBRANCH   1  14
TORSDOF 3
ENDMDL
MODEL 4
REMARK VINA RESULT: -5.948107948      2.159      5.684
REMARK  3 active torsions:
REMARK  status: ('A' for Active; 'I' for Inactive)
REMARK    1  A    between atoms: N1_1  and  N2_4 
REMARK    2  A    between atoms: N3_8  and  C4_9 
REMARK    3  A    between atoms: C4_9  and  C5_10 
ROOT
HETATM    1  N2  UNL     1      81.805  75.379  98.381  1.00  0.00    -0.269 N 
HETATM    2  C1  UNL     1      82.028  74.205  98.977  1.00  0.00     0.118 A 
HETATM    3  C2  UNL     1      81.007  73.516  99.591  1.00  0.00     0.036 A 
HETATM    4  C3  UNL     1      79.735  74.037  99.595  1.00  0.00     0.093 A 
HETATM    5  N3  UNL     1      79.518  75.210  98.999  1.00  0.00    -0.347 N 
HETATM    6  C11 UNL     1      80.540  75.847  98.412  1.00  0.00     0.208 A 
ENDROOT
BRANCH   5   7
HETATM    7  C4  UNL     1      78.214  75.828  98.956  1.00  0.00     0.167 C 
BRANCH   7   8
HETATM    8  C5  UNL     1      77.212  75.059  98.222  1.00  0.00    -0.040 A 
HETATM    9  C6  UNL     1      77.315  74.743  96.878  1.00  0.00     0.009 A 
HETATM   10  C7  UNL     1      76.334  74.016  96.251  1.00  0.00     0.001 A 
HETATM   11  C8  UNL     1      75.212  73.573  96.934  1.00  0.00     0.000 A 
HETATM   12  C9  UNL     1      75.098  73.876  98.254  1.00  0.00     0.001 A 
HETATM   13  C10 UNL     1      76.095  74.616  98.897  1.00  0.00     0.009 A 
ENDBRANCH   7   8
ENDBRANCH   5   7
BRANCH   1  14
HETATM   14  N1  UNL     1      82.826  76.103  97.747  1.00  0.00    -0.338 N 
ATOM     15  H12 UNL     1      83.659  76.392  98.259  1.00  0.00     0.177 HD
ATOM     16  H11 UNL     1      82.776  76.367  96.763  1.00  0.00     0.177 HD
ENDBRANCH   1  14
TORSDOF 3
ENDMDL
MODEL 5
REMARK VINA RESULT: -5.937709094      1.352      1.616
REMARK  3 active torsions:
REMARK  status: ('A' for Active; 'I' for Inactive)
REMARK    1  A    between atoms: N1_1  and  N2_4 
REMARK    2  A    between atoms: N3_8  and  C4_9 
REMARK    3  A    between atoms: C4_9  and  C5_10 
ROOT
HETATM    1  N2  UNL     1      77.222  73.445  96.888  1.00  0.00    -0.269 N 
HETATM    2  C1  UNL     1      76.361  74.223  97.549  1.00  0.00     0.118 A 
HETATM    3  C2  UNL     1      76.743  74.898  98.686  1.00  0.00     0.036 A 
HETATM    4  C3  UNL     1      78.030  74.774  99.154  1.00  0.00     0.093 A 
HETATM    5  N3  UNL     1      78.886  73.996  98.490  1.00  0.00    -0.347 N 
HETATM    6  C11 UNL     1      78.472  73.358  97.387  1.00  0.00     0.208 A 
ENDROOT
BRANCH   5   7
HETATM    7  C4  UNL     1      80.254  73.811  98.913  1.00  0.00     0.167 C 
BRANCH   7   8
HETATM    8  C5  UNL     1      81.103  74.982  98.714  1.00  0.00    -0.040 A 
HETATM    9  C6  UNL     1      81.568  75.396  97.476  1.00  0.00     0.009 A 
HETATM   10  C7  UNL     1      82.365  76.508  97.362  1.00  0.00     0.001 A 
HETATM   11  C8  UNL     1      82.732  77.254  98.473  1.00  0.00     0.000 A 
HETATM   12  C9  UNL     1      82.282  76.858  99.693  1.00  0.00     0.001 A 
HETATM   13  C10 UNL     1      81.471  75.727  99.814  1.00  0.00     0.009 A 
ENDBRANCH   7   8
ENDBRANCH   5   7
BRANCH   1  14
HETATM   14  N1  UNL     1      76.860  72.746  95.726  1.00  0.00    -0.338 N 
ATOM     15  H12 UNL     1      75.922  72.830  95.335  1.00  0.00     0.177 HD
ATOM     16  H11 UNL     1      77.511  72.135  95.233  1.00  0.00     0.177 HD
ENDBRANCH   1  14
TORSDOF 3
ENDMDL
