MODEL 1
REMARK VINA RESULT: -6.082000427      0.000      0.000
REMARK  4 active torsions:
REMARK  status: ('A' for Active; 'I' for Inactive)
REMARK    1  A    between atoms: C4_4  and  C5_5 
REMARK    2  A    between atoms: N1_9  and  C9_10 
REMARK    3  A    between atoms: C9_10  and  C10_11 
REMARK    4  A    between atoms: C10_11  and  N2_12 
ROOT
HETATM    1  C1  UNL     1      84.084  77.631  97.147  1.00  0.00     0.027 C 
HETATM    2  C2  UNL     1      83.152  76.930  97.455  1.00  0.00    -0.026 C 
HETATM    3  C3  UNL     1      82.068  76.087  97.821  1.00  0.00    -0.010 C 
HETATM    4  C4  UNL     1      81.156  75.361  98.141  1.00  0.00    -0.051 C 
ENDROOT
BRANCH   4   5
HETATM    5  C5  UNL     1      80.085  74.496  98.542  1.00  0.00     0.034 A 
HETATM    6  C6  UNL     1      79.875  74.116  99.856  1.00  0.00     0.023 A 
HETATM    7  C7  UNL     1      78.814  73.272 100.170  1.00  0.00     0.019 A 
HETATM    8  C8  UNL     1      77.960  72.804  99.183  1.00  0.00     0.090 A 
HETATM    9  N1  UNL     1      78.194  73.192  97.917  1.00  0.00    -0.363 N 
HETATM   10  C11 UNL     1      79.219  74.012  97.582  1.00  0.00     0.111 A 
BRANCH   9  11
HETATM   11  C9  UNL     1      77.325  72.719  96.885  1.00  0.00     0.155 C 
BRANCH  11  12
HETATM   12  C10 UNL     1      76.605  73.874  96.224  1.00  0.00     0.249 C 
BRANCH  12  13
HETATM   13  N2  UNL     1      76.207  73.587  94.880  1.00  0.00    -0.078 N 
ATOM     14  H23 UNL     1      76.898  72.998  94.413  1.00  0.00     0.274 HD
ATOM     15  H22 UNL     1      75.409  72.951  94.864  1.00  0.00     0.274 HD
ATOM     16  H21 UNL     1      76.015  74.427  94.334  1.00  0.00     0.274 HD
ENDBRANCH  12  13
ENDBRANCH  11  12
ENDBRANCH   9  11
ENDBRANCH   4   5
TORSDOF 4
ENDMDL
MODEL 2
REMARK VINA RESULT: -5.871274772      1.032      1.082
REMARK  4 active torsions:
REMARK  status: ('A' for Active; 'I' for Inactive)
REMARK    1  A    between atoms: C4_4  and  C5_5 
REMARK    2  A    between atoms: N1_9  and  C9_10 
REMARK    3  A    between atoms: C9_10  and  C10_11 
REMARK    4  A    between atoms: C10_11  and  N2_12 
ROOT
HETATM    1  C1  UNL     1      84.067  77.622  97.148  1.00  0.00     0.027 C 
HETATM    2  C2  UNL     1      83.136  76.924  97.465  1.00  0.00    -0.026 C 
HETATM    3  C3  UNL     1      82.046  76.084  97.823  1.00  0.00    -0.010 C 
HETATM    4  C4  UNL     1      81.128  75.358  98.125  1.00  0.00    -0.051 C 
ENDROOT
BRANCH   4   5
HETATM    5  C5  UNL     1      80.055  74.479  98.488  1.00  0.00     0.034 A 
HETATM    6  C6  UNL     1      79.886  73.986  99.770  1.00  0.00     0.023 A 
HETATM    7  C7  UNL     1      78.819  73.135 100.047  1.00  0.00     0.019 A 
HETATM    8  C8  UNL     1      77.920  72.773  99.056  1.00  0.00     0.090 A 
HETATM    9  N1  UNL     1      78.115  73.271  97.823  1.00  0.00    -0.363 N 
HETATM   10  C11 UNL     1      79.143  74.100  97.523  1.00  0.00     0.111 A 
BRANCH   9  11
HETATM   11  C9  UNL     1      77.198  72.908  96.787  1.00  0.00     0.155 C 
BRANCH  11  12
HETATM   12  C10 UNL     1      75.870  72.485  97.376  1.00  0.00     0.249 C 
BRANCH  12  13
HETATM   13  N2  UNL     1      75.527  71.132  97.059  1.00  0.00    -0.078 N 
ATOM     14  H23 UNL     1      75.069  70.678  97.850  1.00  0.00     0.274 HD
ATOM     15  H22 UNL     1      74.764  71.098  96.383  1.00  0.00     0.274 HD
ATOM     16  H21 UNL     1      76.326  70.586  96.736  1.00  0.00     0.274 HD
ENDBRANCH  12  13
ENDBRANCH  11  12
ENDBRANCH   9  11
ENDBRANCH   4   5
TORSDOF 4
ENDMDL
MODEL 3
REMARK VINA RESULT: -5.719157313      1.905      2.299
REMARK  4 active torsions:
REMARK  status: ('A' for Active; 'I' for Inactive)
REMARK    1  A    between atoms: C4_4  and  C5_5 
REMARK    2  A    between atoms: N1_9  and  C9_10 
REMARK    3  A    between atoms: C9_10  and  C10_11 
REMARK    4  A    between atoms: C10_11  and  N2_12 
ROOT
HETATM    1  C1  UNL     1      83.969  77.224  97.347  1.00  0.00     0.027 C 
HETATM    2  C2  UNL     1      82.917  76.728  97.664  1.00  0.00    -0.026 C 
HETATM    3  C3  UNL     1      81.667  76.165  98.039  1.00  0.00    -0.010 C 
HETATM    4  C4  UNL     1      80.597  75.698  98.352  1.00  0.00    -0.051 C 
ENDROOT
BRANCH   4   5
HETATM    5  C5  UNL     1      79.316  75.156  98.704  1.00  0.00     0.034 A 
HETATM    6  C6  UNL     1      78.185  75.938  98.863  1.00  0.00     0.023 A 
HETATM    7  C7  UNL     1      76.976  75.340  99.206  1.00  0.00     0.019 A 
HETATM    8  C8  UNL     1      76.886  73.969  99.391  1.00  0.00     0.090 A 
HETATM    9  N1  UNL     1      78.004  73.241  99.229  1.00  0.00    -0.363 N 
HETATM   10  C11 UNL     1      79.195  73.795  98.895  1.00  0.00     0.111 A 
BRANCH   9  11
HETATM   11  C9  UNL     1      77.931  71.825  99.415  1.00  0.00     0.155 C 
BRANCH  11  12
HETATM   12  C10 UNL     1      77.034  71.196  98.372  1.00  0.00     0.249 C 
BRANCH  12  13
HETATM   13  N2  UNL     1      77.430  69.865  98.027  1.00  0.00    -0.078 N 
ATOM     14  H23 UNL     1      77.149  69.202  98.749  1.00  0.00     0.274 HD
ATOM     15  H22 UNL     1      76.874  69.509  97.249  1.00  0.00     0.274 HD
ATOM     16  H21 UNL     1      78.428  69.787  97.828  1.00  0.00     0.274 HD
ENDBRANCH  12  13
ENDBRANCH  11  12
ENDBRANCH   9  11
ENDBRANCH   4   5
TORSDOF 4
ENDMDL
MODEL 4
REMARK VINA RESULT: -5.654227279      1.704      2.771
REMARK  4 active torsions:
REMARK  status: ('A' for Active; 'I' for Inactive)
REMARK    1  A    between atoms: C4_4  and  C5_5 
REMARK    2  A    between atoms: N1_9  and  C9_10 
REMARK    3  A    between atoms: C9_10  and  C10_11 
REMARK    4  A    between atoms: C10_11  and  N2_12 
ROOT
HETATM    1  C1  UNL     1      83.349  76.802  97.798  1.00  0.00     0.027 C 
HETATM    2  C2  UNL     1      82.308  76.195  97.844  1.00  0.00    -0.026 C 
HETATM    3  C3  UNL     1      81.070  75.499  97.904  1.00  0.00    -0.010 C 
HETATM    4  C4  UNL     1      80.010  74.920  97.950  1.00  0.00    -0.051 C 
ENDROOT
BRANCH   4   5
HETATM    5  C5  UNL     1      78.743  74.249  97.987  1.00  0.00     0.034 A 
HETATM    6  C6  UNL     1      77.622  74.720  97.327  1.00  0.00     0.023 A 
HETATM    7  C7  UNL     1      76.425  74.013  97.409  1.00  0.00     0.019 A 
HETATM    8  C8  UNL     1      76.339  72.840  98.144  1.00  0.00     0.090 A 
HETATM    9  N1  UNL     1      77.448  72.413  98.772  1.00  0.00    -0.363 N 
HETATM   10  C11 UNL     1      78.626  73.079  98.710  1.00  0.00     0.111 A 
BRANCH   9  11
HETATM   11  C9  UNL     1      77.379  71.205  99.535  1.00  0.00     0.155 C 
BRANCH  11  12
HETATM   12  C10 UNL     1      76.661  70.124  98.757  1.00  0.00     0.249 C 
BRANCH  12  13
HETATM   13  N2  UNL     1      77.526  69.412  97.867  1.00  0.00    -0.078 N 
ATOM     14  H23 UNL     1      77.247  68.433  97.792  1.00  0.00     0.274 HD
ATOM     15  H22 UNL     1      77.374  69.702  96.900  1.00  0.00     0.274 HD
ATOM     16  H21 UNL     1      78.511  69.493  98.121  1.00  0.00     0.274 HD
ENDBRANCH  12  13
ENDBRANCH  11  12
ENDBRANCH   9  11
ENDBRANCH   4   5
TORSDOF 4
ENDMDL
MODEL 5
REMARK VINA RESULT: -5.630366122      1.964      2.244
REMARK  4 active torsions:
REMARK  status: ('A' for Active; 'I' for Inactive)
REMARK    1  A    between atoms: C4_4  and  C5_5 
REMARK    2  A    between atoms: N1_9  and  C9_10 
REMARK    3  A    between atoms: C9_10  and  C10_11 
REMARK    4  A    between atoms: C10_11  and  N2_12 
ROOT
HETATM    1  C1  UNL     1      82.950  76.477  97.847  1.00  0.00     0.027 C 
HETATM    2  C2  UNL     1      81.811  76.187  98.116  1.00  0.00    -0.026 C 
HETATM    3  C3  UNL     1      80.461  75.854  98.413  1.00  0.00    -0.010 C 
HETATM    4  C4  UNL     1      79.310  75.570  98.651  1.00  0.00    -0.051 C 
ENDROOT
BRANCH   4   5
HETATM    5  C5  UNL     1      77.944  75.222  98.911  1.00  0.00     0.034 A 
HETATM    6  C6  UNL     1      77.313  75.491 100.113  1.00  0.00     0.023 A 
HETATM    7  C7  UNL     1      75.983  75.122 100.293  1.00  0.00     0.019 A 
HETATM    8  C8  UNL     1      75.277  74.488  99.283  1.00  0.00     0.090 A 
HETATM    9  N1  UNL     1      75.921  74.241  98.129  1.00  0.00    -0.363 N 
HETATM   10  C11 UNL     1      77.215  74.588  97.925  1.00  0.00     0.111 A 
BRANCH   9  11
HETATM   11  C9  UNL     1      75.210  73.587  97.075  1.00  0.00     0.155 C 
BRANCH  11  12
HETATM   12  C10 UNL     1      75.812  73.933  95.730  1.00  0.00     0.249 C 
BRANCH  12  13
HETATM   13  N2  UNL     1      76.405  72.805  95.079  1.00  0.00    -0.078 N 
ATOM     14  H23 UNL     1      76.440  71.999  95.705  1.00  0.00     0.274 HD
ATOM     15  H22 UNL     1      75.785  72.430  94.361  1.00  0.00     0.274 HD
ATOM     16  H21 UNL     1      77.328  73.008  94.694  1.00  0.00     0.274 HD
ENDBRANCH  12  13
ENDBRANCH  11  12
ENDBRANCH   9  11
ENDBRANCH   4   5
TORSDOF 4
ENDMDL
