MODEL 1
REMARK VINA RESULT: -6.064970021      0.000      0.000
REMARK  4 active torsions:
REMARK  status: ('A' for Active; 'I' for Inactive)
REMARK    1  A    between atoms: C4_4  and  C5_5 
REMARK    2  A    between atoms: N1_8  and  C8_9 
REMARK    3  A    between atoms: C8_9  and  C9_10 
REMARK    4  A    between atoms: C9_10  and  O1_11 
ROOT
HETATM    1  C1  UNL     1      84.017  77.617  97.260  1.00  0.00     0.027 C 
HETATM    2  C2  UNL     1      83.076  76.889  97.473  1.00  0.00    -0.026 C 
HETATM    3  C3  UNL     1      81.972  76.027  97.700  1.00  0.00    -0.010 C 
HETATM    4  C4  UNL     1      81.042  75.280  97.883  1.00  0.00    -0.053 C 
ENDROOT
BRANCH   4   5
HETATM    5  C5  UNL     1      79.935  74.364  98.092  1.00  0.00     0.021 A 
HETATM    6  C6  UNL     1      79.127  74.013  97.022  1.00  0.00     0.038 A 
HETATM    7  C7  UNL     1      78.057  73.135  97.191  1.00  0.00     0.092 A 
HETATM    8  N1  UNL     1      77.835  72.641  98.423  1.00  0.00    -0.364 N 
HETATM    9  C10 UNL     1      78.598  72.966  99.455  1.00  0.00     0.092 A 
HETATM   10  C11 UNL     1      79.672  73.837  99.325  1.00  0.00     0.038 A 
BRANCH   8  11
HETATM   11  C8  UNL     1      76.731  71.728  98.628  1.00  0.00     0.153 C 
BRANCH  11  12
HETATM   12  C9  UNL     1      77.296  70.410  99.174  1.00  0.00     0.184 C 
BRANCH  12  13
HETATM   13  O1  UNL     1      77.773  69.640  98.131  1.00  0.00    -0.399 OA
ATOM     14  H1  UNL     1      77.521  68.734  98.261  1.00  0.00     0.209 HD
ENDBRANCH  12  13
ENDBRANCH  11  12
ENDBRANCH   8  11
ENDBRANCH   4   5
TORSDOF 4
ENDMDL
MODEL 2
REMARK VINA RESULT: -5.985121555      0.549      1.415
REMARK  4 active torsions:
REMARK  status: ('A' for Active; 'I' for Inactive)
REMARK    1  A    between atoms: C4_4  and  C5_5 
REMARK    2  A    between atoms: N1_8  and  C8_9 
REMARK    3  A    between atoms: C8_9  and  C9_10 
REMARK    4  A    between atoms: C9_10  and  O1_11 
ROOT
HETATM    1  C1  UNL     1      83.985  77.640  97.219  1.00  0.00     0.027 C 
HETATM    2  C2  UNL     1      83.072  76.891  97.474  1.00  0.00    -0.026 C 
HETATM    3  C3  UNL     1      81.988  76.020  97.756  1.00  0.00    -0.010 C 
HETATM    4  C4  UNL     1      81.064  75.276  97.976  1.00  0.00    -0.053 C 
ENDROOT
BRANCH   4   5
HETATM    5  C5  UNL     1      79.952  74.374  98.217  1.00  0.00     0.021 A 
HETATM    6  C6  UNL     1      79.768  73.839  99.482  1.00  0.00     0.038 A 
HETATM    7  C7  UNL     1      78.709  72.971  99.745  1.00  0.00     0.092 A 
HETATM    8  N1  UNL     1      77.873  72.671  98.733  1.00  0.00    -0.364 N 
HETATM    9  C10 UNL     1      78.034  73.174  97.519  1.00  0.00     0.092 A 
HETATM   10  C11 UNL     1      79.078  74.042  97.221  1.00  0.00     0.038 A 
BRANCH   8  11
HETATM   11  C8  UNL     1      76.765  71.772  98.977  1.00  0.00     0.153 C 
BRANCH  11  12
HETATM   12  C9  UNL     1      77.158  70.380  98.467  1.00  0.00     0.184 C 
BRANCH  12  13
HETATM   13  O1  UNL     1      76.191  69.910  97.600  1.00  0.00    -0.399 OA
ATOM     14  H1  UNL     1      75.920  70.607  97.014  1.00  0.00     0.209 HD
ENDBRANCH  12  13
ENDBRANCH  11  12
ENDBRANCH   8  11
ENDBRANCH   4   5
TORSDOF 4
ENDMDL
MODEL 3
REMARK VINA RESULT: -5.816360077      1.540      1.928
REMARK  4 active torsions:
REMARK  status: ('A' for Active; 'I' for Inactive)
REMARK    1  A    between atoms: C4_4  and  C5_5 
REMARK    2  A    between atoms: N1_8  and  C8_9 
REMARK    3  A    between atoms: C8_9  and  C9_10 
REMARK    4  A    between atoms: C9_10  and  O1_11 
ROOT
HETATM    1  C1  UNL     1      84.332  77.641  97.450  1.00  0.00     0.027 C 
HETATM    2  C2  UNL     1      83.311  77.009  97.591  1.00  0.00    -0.026 C 
HETATM    3  C3  UNL     1      82.101  76.285  97.747  1.00  0.00    -0.010 C 
HETATM    4  C4  UNL     1      81.065  75.676  97.862  1.00  0.00    -0.053 C 
ENDROOT
BRANCH   4   5
HETATM    5  C5  UNL     1      79.814  74.950  97.979  1.00  0.00     0.021 A 
HETATM    6  C6  UNL     1      78.832  75.414  98.839  1.00  0.00     0.038 A 
HETATM    7  C7  UNL     1      77.619  74.738  98.972  1.00  0.00     0.092 A 
HETATM    8  N1  UNL     1      77.434  73.624  98.240  1.00  0.00    -0.364 N 
HETATM    9  C10 UNL     1      78.362  73.167  97.413  1.00  0.00     0.092 A 
HETATM   10  C11 UNL     1      79.582  73.814  97.255  1.00  0.00     0.038 A 
BRANCH   8  11
HETATM   11  C8  UNL     1      76.185  72.902  98.358  1.00  0.00     0.153 C 
BRANCH  11  12
HETATM   12  C9  UNL     1      75.568  72.783  96.959  1.00  0.00     0.184 C 
BRANCH  12  13
HETATM   13  O1  UNL     1      75.380  71.452  96.643  1.00  0.00    -0.399 OA
ATOM     14  H1  UNL     1      75.842  71.245  95.839  1.00  0.00     0.209 HD
ENDBRANCH  12  13
ENDBRANCH  11  12
ENDBRANCH   8  11
ENDBRANCH   4   5
TORSDOF 4
ENDMDL
MODEL 4
REMARK VINA RESULT: -5.809251465      1.448      1.542
REMARK  4 active torsions:
REMARK  status: ('A' for Active; 'I' for Inactive)
REMARK    1  A    between atoms: C4_4  and  C5_5 
REMARK    2  A    between atoms: N1_8  and  C8_9 
REMARK    3  A    between atoms: C8_9  and  C9_10 
REMARK    4  A    between atoms: C9_10  and  O1_11 
ROOT
HETATM    1  C1  UNL     1      84.246  77.386  97.654  1.00  0.00     0.027 C 
HETATM    2  C2  UNL     1      83.192  76.802  97.740  1.00  0.00    -0.026 C 
HETATM    3  C3  UNL     1      81.944  76.136  97.846  1.00  0.00    -0.010 C 
HETATM    4  C4  UNL     1      80.873  75.584  97.926  1.00  0.00    -0.053 C 
ENDROOT
BRANCH   4   5
HETATM    5  C5  UNL     1      79.576  74.937  98.007  1.00  0.00     0.021 A 
HETATM    6  C6  UNL     1      79.363  73.747  97.331  1.00  0.00     0.038 A 
HETATM    7  C7  UNL     1      78.128  73.101  97.390  1.00  0.00     0.092 A 
HETATM    8  N1  UNL     1      77.154  73.671  98.124  1.00  0.00    -0.364 N 
HETATM    9  C10 UNL     1      77.341  74.807  98.776  1.00  0.00     0.092 A 
HETATM   10  C11 UNL     1      78.558  75.479  98.740  1.00  0.00     0.038 A 
BRANCH   8  11
HETATM   11  C8  UNL     1      75.861  73.023  98.203  1.00  0.00     0.153 C 
BRANCH  11  12
HETATM   12  C9  UNL     1      76.039  71.551  97.811  1.00  0.00     0.184 C 
BRANCH  12  13
HETATM   13  O1  UNL     1      75.238  71.257  96.725  1.00  0.00    -0.399 OA
ATOM     14  H1  UNL     1      75.470  71.817  95.994  1.00  0.00     0.209 HD
ENDBRANCH  12  13
ENDBRANCH  11  12
ENDBRANCH   8  11
ENDBRANCH   4   5
TORSDOF 4
ENDMDL
MODEL 5
REMARK VINA RESULT: -5.572925402      3.478      6.470
REMARK  4 active torsions:
REMARK  status: ('A' for Active; 'I' for Inactive)
REMARK    1  A    between atoms: C4_4  and  C5_5 
REMARK    2  A    between atoms: N1_8  and  C8_9 
REMARK    3  A    between atoms: C8_9  and  C9_10 
REMARK    4  A    between atoms: C9_10  and  O1_11 
ROOT
HETATM    1  C1  UNL     1      72.904  73.356  98.221  1.00  0.00     0.027 C 
HETATM    2  C2  UNL     1      74.075  73.649  98.159  1.00  0.00    -0.026 C 
HETATM    3  C3  UNL     1      75.446  74.010  98.103  1.00  0.00    -0.010 C 
HETATM    4  C4  UNL     1      76.613  74.318  98.075  1.00  0.00    -0.053 C 
ENDROOT
BRANCH   4   5
HETATM    5  C5  UNL     1      78.017  74.687  98.066  1.00  0.00     0.021 A 
HETATM    6  C6  UNL     1      78.903  73.983  97.267  1.00  0.00     0.038 A 
HETATM    7  C7  UNL     1      80.258  74.314  97.236  1.00  0.00     0.092 A 
HETATM    8  N1  UNL     1      80.674  75.337  98.005  1.00  0.00    -0.364 N 
HETATM    9  C10 UNL     1      79.841  76.020  98.774  1.00  0.00     0.092 A 
HETATM   10  C11 UNL     1      78.485  75.719  98.830  1.00  0.00     0.038 A 
BRANCH   8  11
HETATM   11  C8  UNL     1      82.075  75.703  97.994  1.00  0.00     0.153 C 
BRANCH  11  12
HETATM   12  C9  UNL     1      82.261  76.910  98.921  1.00  0.00     0.184 C 
BRANCH  12  13
HETATM   13  O1  UNL     1      83.559  76.941  99.393  1.00  0.00    -0.399 OA
ATOM     14  H1  UNL     1      83.980  77.747  99.119  1.00  0.00     0.209 HD
ENDBRANCH  12  13
ENDBRANCH  11  12
ENDBRANCH   8  11
ENDBRANCH   4   5
TORSDOF 4
ENDMDL
