MODEL 1
REMARK VINA RESULT: -7.214797038      0.000      0.000
REMARK  9 active torsions:
REMARK  status: ('A' for Active; 'I' for Inactive)
REMARK    1  A    between atoms: N1_1  and  C1_4 
REMARK    2  A    between atoms: C4_9  and  N3_10 
REMARK    3  A    between atoms: N3_10  and  C5_12 
REMARK    4  A    between atoms: C5_12  and  C6_13 
REMARK    5  A    between atoms: C6_13  and  S1_14 
REMARK    6  A    between atoms: S1_14  and  C7_15 
REMARK    7  A    between atoms: S1_14  and  C8_18 
REMARK    8  A    between atoms: C7_15  and  O1_16 
REMARK    9  A    between atoms: C8_18  and  C9_19 
ROOT
HETATM    1  C5  UNL     1      21.440  -4.194   8.303  1.00  0.00     0.130 C 
ENDROOT
BRANCH   1   2
HETATM    2  N3  UNL     1      20.968  -3.211   9.205  1.00  0.00    -0.375 N 
ATOM      3  H3  UNL     1      21.646  -2.889   9.895  1.00  0.00     0.161 HD
BRANCH   2   4
HETATM    4  C4  UNL     1      19.835  -2.680   9.277  1.00  0.00     0.118 A 
HETATM    5  C3  UNL     1      19.482  -1.670   8.414  1.00  0.00     0.066 A 
HETATM    6  C2  UNL     1      18.216  -1.082   8.499  1.00  0.00     0.110 A 
HETATM    7  N2  UNL     1      17.360  -1.518   9.431  1.00  0.00    -0.202 N 
HETATM    8  C1  UNL     1      17.705  -2.503  10.275  1.00  0.00     0.677 A 
ATOM      9  H2  UNL     1      16.433  -1.096   9.501  1.00  0.00     0.183 HD
HETATM   10  N8  UNL     1      18.938  -3.075  10.190  1.00  0.00    -0.177 N 
ATOM     11  H8  UNL     1      19.185  -3.824  10.838  1.00  0.00     0.185 HD
BRANCH   8  12
HETATM   12  N1  UNL     1      16.857  -2.920  11.183  1.00  0.00    -0.234 N 
ATOM     13  H12 UNL     1      16.020  -2.371  11.383  1.00  0.00     0.174 HD
ATOM     14  H11 UNL     1      17.033  -3.788  11.688  1.00  0.00     0.174 HD
ENDBRANCH   8  12
ENDBRANCH   2   4
ENDBRANCH   1   2
BRANCH   1  15
HETATM   15  C6  UNL     1      22.219  -3.649   7.133  1.00  0.00     0.085 C 
BRANCH  15  16
HETATM   16  S1  UNL     1      23.916  -3.496   7.655  1.00  0.00    -0.188 SA
BRANCH  16  17
HETATM   17  C7  UNL     1      24.130  -1.902   8.450  1.00  0.00     0.228 C 
BRANCH  17  18
HETATM   18  O1  UNL     1      24.650  -1.015   7.524  1.00  0.00    -0.392 OA
ATOM     19  H1  UNL     1      24.609  -0.139   7.890  1.00  0.00     0.210 HD
ENDBRANCH  17  18
ENDBRANCH  16  17
BRANCH  16  20
HETATM   20  C8  UNL     1      24.336  -4.728   8.856  1.00  0.00     0.144 C 
BRANCH  20  21
HETATM   21  C9  UNL     1      25.469  -4.348   9.707  1.00  0.00     0.115 A 
HETATM   22  N4  UNL     1      25.477  -4.188  11.022  1.00  0.00    -0.273 N 
HETATM   23  N5  UNL     1      26.692  -3.838  11.444  1.00  0.00    -0.007 NA
ATOM     24  H4  UNL     1      24.667  -4.316  11.628  1.00  0.00     0.185 HD
HETATM   25  N6  UNL     1      27.446  -3.785  10.349  1.00  0.00    -0.007 NA
HETATM   26  N7  UNL     1      26.710  -4.095   9.275  1.00  0.00    -0.273 N 
ATOM     27  H7  UNL     1      27.034  -4.130   8.308  1.00  0.00     0.185 HD
ENDBRANCH  20  21
ENDBRANCH  16  20
ENDBRANCH  15  16
ENDBRANCH   1  15
TORSDOF 9
ENDMDL
MODEL 2
REMARK VINA RESULT: -7.156048046      1.690      2.534
REMARK  9 active torsions:
REMARK  status: ('A' for Active; 'I' for Inactive)
REMARK    1  A    between atoms: N1_1  and  C1_4 
REMARK    2  A    between atoms: C4_9  and  N3_10 
REMARK    3  A    between atoms: N3_10  and  C5_12 
REMARK    4  A    between atoms: C5_12  and  C6_13 
REMARK    5  A    between atoms: C6_13  and  S1_14 
REMARK    6  A    between atoms: S1_14  and  C7_15 
REMARK    7  A    between atoms: S1_14  and  C8_18 
REMARK    8  A    between atoms: C7_15  and  O1_16 
REMARK    9  A    between atoms: C8_18  and  C9_19 
ROOT
HETATM    1  C5  UNL     1      22.820  -1.456   9.011  1.00  0.00     0.130 C 
ENDROOT
BRANCH   1   2
HETATM    2  N3  UNL     1      21.623  -2.203   9.140  1.00  0.00    -0.375 N 
ATOM      3  H3  UNL     1      21.737  -3.149   9.503  1.00  0.00     0.161 HD
BRANCH   2   4
HETATM    4  C4  UNL     1      20.447  -1.867   8.873  1.00  0.00     0.118 A 
HETATM    5  C3  UNL     1      19.412  -2.226   9.704  1.00  0.00     0.066 A 
HETATM    6  C2  UNL     1      18.101  -1.848   9.399  1.00  0.00     0.110 A 
HETATM    7  N2  UNL     1      17.873  -1.133   8.291  1.00  0.00    -0.202 N 
HETATM    8  C1  UNL     1      18.883  -0.782   7.479  1.00  0.00     0.677 A 
ATOM      9  H2  UNL     1      16.920  -0.851   8.060  1.00  0.00     0.183 HD
HETATM   10  N8  UNL     1      20.160  -1.151   7.777  1.00  0.00    -0.177 N 
ATOM     11  H8  UNL     1      20.916  -0.877   7.151  1.00  0.00     0.185 HD
BRANCH   8  12
HETATM   12  N1  UNL     1      18.645  -0.083   6.397  1.00  0.00    -0.234 N 
ATOM     13  H12 UNL     1      18.613   0.936   6.450  1.00  0.00     0.174 HD
ATOM     14  H11 UNL     1      18.492  -0.554   5.506  1.00  0.00     0.174 HD
ENDBRANCH   8  12
ENDBRANCH   2   4
ENDBRANCH   1   2
BRANCH   1  15
HETATM   15  C6  UNL     1      23.880  -2.112   8.164  1.00  0.00     0.085 C 
BRANCH  15  16
HETATM   16  S1  UNL     1      23.425  -3.825   7.985  1.00  0.00    -0.188 SA
BRANCH  16  17
HETATM   17  C7  UNL     1      22.918  -4.111   6.288  1.00  0.00     0.228 C 
BRANCH  17  18
HETATM   18  O1  UNL     1      21.769  -3.379   6.043  1.00  0.00    -0.392 OA
ATOM     19  H1  UNL     1      21.300  -3.785   5.323  1.00  0.00     0.210 HD
ENDBRANCH  17  18
ENDBRANCH  16  17
BRANCH  16  20
HETATM   20  C8  UNL     1      24.803  -4.895   8.295  1.00  0.00     0.144 C 
BRANCH  20  21
HETATM   21  C9  UNL     1      25.670  -4.426   9.381  1.00  0.00     0.115 A 
HETATM   22  N4  UNL     1      26.914  -3.980   9.291  1.00  0.00    -0.273 N 
HETATM   23  N5  UNL     1      27.380  -3.644  10.494  1.00  0.00    -0.007 NA
ATOM     24  H4  UNL     1      27.442  -3.904   8.422  1.00  0.00     0.185 HD
HETATM   25  N6  UNL     1      26.386  -3.893  11.341  1.00  0.00    -0.007 NA
HETATM   26  N7  UNL     1      25.330  -4.374  10.675  1.00  0.00    -0.273 N 
ATOM     27  H7  UNL     1      24.434  -4.650  11.077  1.00  0.00     0.185 HD
ENDBRANCH  20  21
ENDBRANCH  16  20
ENDBRANCH  15  16
ENDBRANCH   1  15
TORSDOF 9
ENDMDL
MODEL 3
REMARK VINA RESULT: -7.069853614      1.329      1.805
REMARK  9 active torsions:
REMARK  status: ('A' for Active; 'I' for Inactive)
REMARK    1  A    between atoms: N1_1  and  C1_4 
REMARK    2  A    between atoms: C4_9  and  N3_10 
REMARK    3  A    between atoms: N3_10  and  C5_12 
REMARK    4  A    between atoms: C5_12  and  C6_13 
REMARK    5  A    between atoms: C6_13  and  S1_14 
REMARK    6  A    between atoms: S1_14  and  C7_15 
REMARK    7  A    between atoms: S1_14  and  C8_18 
REMARK    8  A    between atoms: C7_15  and  O1_16 
REMARK    9  A    between atoms: C8_18  and  C9_19 
ROOT
HETATM    1  C5  UNL     1      22.604  -1.805   8.838  1.00  0.00     0.130 C 
ENDROOT
BRANCH   1   2
HETATM    2  N3  UNL     1      21.444  -2.596   9.025  1.00  0.00    -0.375 N 
ATOM      3  H3  UNL     1      21.611  -3.593   9.153  1.00  0.00     0.161 HD
BRANCH   2   4
HETATM    4  C4  UNL     1      20.242  -2.244   9.057  1.00  0.00     0.118 A 
HETATM    5  C3  UNL     1      19.734  -1.407   8.092  1.00  0.00     0.066 A 
HETATM    6  C2  UNL     1      18.391  -1.017   8.134  1.00  0.00     0.110 A 
HETATM    7  N2  UNL     1      17.614  -1.473   9.124  1.00  0.00    -0.202 N 
HETATM    8  C1  UNL     1      18.111  -2.291  10.066  1.00  0.00     0.677 A 
ATOM      9  H2  UNL     1      16.633  -1.196   9.163  1.00  0.00     0.183 HD
HETATM   10  N8  UNL     1      19.418  -2.668  10.024  1.00  0.00    -0.177 N 
ATOM     11  H8  UNL     1      19.780  -3.291  10.747  1.00  0.00     0.185 HD
BRANCH   8  12
HETATM   12  N1  UNL     1      17.338  -2.729  11.030  1.00  0.00    -0.234 N 
ATOM     13  H12 UNL     1      17.597  -2.559  12.003  1.00  0.00     0.174 HD
ATOM     14  H11 UNL     1      16.483  -3.237  10.809  1.00  0.00     0.174 HD
ENDBRANCH   8  12
ENDBRANCH   2   4
ENDBRANCH   1   2
BRANCH   1  15
HETATM   15  C6  UNL     1      23.610  -2.387   7.878  1.00  0.00     0.085 C 
BRANCH  15  16
HETATM   16  S1  UNL     1      23.219  -4.115   7.688  1.00  0.00    -0.188 SA
BRANCH  16  17
HETATM   17  C7  UNL     1      23.118  -4.492   5.937  1.00  0.00     0.228 C 
BRANCH  17  18
HETATM   18  O1  UNL     1      24.391  -4.776   5.474  1.00  0.00    -0.392 OA
ATOM     19  H1  UNL     1      24.333  -5.013   4.556  1.00  0.00     0.210 HD
ENDBRANCH  17  18
ENDBRANCH  16  17
BRANCH  16  20
HETATM   20  C8  UNL     1      24.493  -5.144   8.361  1.00  0.00     0.144 C 
BRANCH  20  21
HETATM   21  C9  UNL     1      25.410  -4.425   9.253  1.00  0.00     0.115 A 
HETATM   22  N4  UNL     1      26.651  -4.037   8.998  1.00  0.00    -0.273 N 
HETATM   23  N5  UNL     1      27.172  -3.411  10.053  1.00  0.00    -0.007 NA
ATOM     24  H4  UNL     1      27.140  -4.197   8.118  1.00  0.00     0.185 HD
HETATM   25  N6  UNL     1      26.216  -3.417  10.977  1.00  0.00    -0.007 NA
HETATM   26  N7  UNL     1      25.128  -4.037  10.502  1.00  0.00    -0.273 N 
ATOM     27  H7  UNL     1      24.250  -4.185  10.999  1.00  0.00     0.185 HD
ENDBRANCH  20  21
ENDBRANCH  16  20
ENDBRANCH  15  16
ENDBRANCH   1  15
TORSDOF 9
ENDMDL
MODEL 4
REMARK VINA RESULT: -7.066184319      1.017      1.334
REMARK  9 active torsions:
REMARK  status: ('A' for Active; 'I' for Inactive)
REMARK    1  A    between atoms: N1_1  and  C1_4 
REMARK    2  A    between atoms: C4_9  and  N3_10 
REMARK    3  A    between atoms: N3_10  and  C5_12 
REMARK    4  A    between atoms: C5_12  and  C6_13 
REMARK    5  A    between atoms: C6_13  and  S1_14 
REMARK    6  A    between atoms: S1_14  and  C7_15 
REMARK    7  A    between atoms: S1_14  and  C8_18 
REMARK    8  A    between atoms: C7_15  and  O1_16 
REMARK    9  A    between atoms: C8_18  and  C9_19 
ROOT
HETATM    1  C5  UNL     1      21.550  -5.285   8.420  1.00  0.00     0.130 C 
ENDROOT
BRANCH   1   2
HETATM    2  N3  UNL     1      20.965  -4.627   9.528  1.00  0.00    -0.375 N 
ATOM      3  H3  UNL     1      21.289  -4.940  10.443  1.00  0.00     0.161 HD
BRANCH   2   4
HETATM    4  C4  UNL     1      20.106  -3.716   9.545  1.00  0.00     0.118 A 
HETATM    5  C3  UNL     1      20.266  -2.590   8.773  1.00  0.00     0.066 A 
HETATM    6  C2  UNL     1      19.304  -1.576   8.797  1.00  0.00     0.110 A 
HETATM    7  N2  UNL     1      18.228  -1.721   9.581  1.00  0.00    -0.202 N 
HETATM    8  C1  UNL     1      18.071  -2.821  10.335  1.00  0.00     0.677 A 
ATOM      9  H2  UNL     1      17.519  -0.988   9.605  1.00  0.00     0.183 HD
HETATM   10  N8  UNL     1      19.010  -3.807  10.311  1.00  0.00    -0.177 N 
ATOM     11  H8  UNL     1      18.876  -4.637  10.889  1.00  0.00     0.185 HD
BRANCH   8  12
HETATM   12  N1  UNL     1      17.013  -2.949  11.098  1.00  0.00    -0.234 N 
ATOM     13  H12 UNL     1      16.103  -2.639  10.758  1.00  0.00     0.174 HD
ATOM     14  H11 UNL     1      17.100  -3.357  12.028  1.00  0.00     0.174 HD
ENDBRANCH   8  12
ENDBRANCH   2   4
ENDBRANCH   1   2
BRANCH   1  15
HETATM   15  C6  UNL     1      22.996  -5.668   8.610  1.00  0.00     0.085 C 
BRANCH  15  16
HETATM   16  S1  UNL     1      23.983  -4.397   7.845  1.00  0.00    -0.188 SA
BRANCH  16  17
HETATM   17  C7  UNL     1      23.025  -3.642   6.529  1.00  0.00     0.228 C 
BRANCH  17  18
HETATM   18  O1  UNL     1      23.298  -2.286   6.508  1.00  0.00    -0.392 OA
ATOM     19  H1  UNL     1      24.005  -2.129   5.893  1.00  0.00     0.210 HD
ENDBRANCH  17  18
ENDBRANCH  16  17
BRANCH  16  20
HETATM   20  C8  UNL     1      24.381  -3.109   8.993  1.00  0.00     0.144 C 
BRANCH  20  21
HETATM   21  C9  UNL     1      25.502  -3.445   9.878  1.00  0.00     0.115 A 
HETATM   22  N4  UNL     1      25.446  -3.871  11.131  1.00  0.00    -0.273 N 
HETATM   23  N5  UNL     1      26.673  -4.072  11.613  1.00  0.00    -0.007 NA
ATOM     24  H4  UNL     1      24.584  -4.025  11.654  1.00  0.00     0.185 HD
HETATM   25  N6  UNL     1      27.499  -3.758  10.620  1.00  0.00    -0.007 NA
HETATM   26  N7  UNL     1      26.797  -3.371   9.548  1.00  0.00    -0.273 N 
ATOM     27  H7  UNL     1      27.177  -3.074   8.649  1.00  0.00     0.185 HD
ENDBRANCH  20  21
ENDBRANCH  16  20
ENDBRANCH  15  16
ENDBRANCH   1  15
TORSDOF 9
ENDMDL
MODEL 5
REMARK VINA RESULT: -6.973293992      3.906      5.039
REMARK  9 active torsions:
REMARK  status: ('A' for Active; 'I' for Inactive)
REMARK    1  A    between atoms: N1_1  and  C1_4 
REMARK    2  A    between atoms: C4_9  and  N3_10 
REMARK    3  A    between atoms: N3_10  and  C5_12 
REMARK    4  A    between atoms: C5_12  and  C6_13 
REMARK    5  A    between atoms: C6_13  and  S1_14 
REMARK    6  A    between atoms: S1_14  and  C7_15 
REMARK    7  A    between atoms: S1_14  and  C8_18 
REMARK    8  A    between atoms: C7_15  and  O1_16 
REMARK    9  A    between atoms: C8_18  and  C9_19 
ROOT
HETATM    1  C5  UNL     1      22.295  -3.955   8.373  1.00  0.00     0.130 C 
ENDROOT
BRANCH   1   2
HETATM    2  N3  UNL     1      21.749  -2.784   8.953  1.00  0.00    -0.375 N 
ATOM      3  H3  UNL     1      22.348  -2.310   9.628  1.00  0.00     0.161 HD
BRANCH   2   4
HETATM    4  C4  UNL     1      20.634  -2.248   8.754  1.00  0.00     0.118 A 
HETATM    5  C3  UNL     1      19.576  -2.505   9.592  1.00  0.00     0.066 A 
HETATM    6  C2  UNL     1      18.334  -1.903   9.365  1.00  0.00     0.110 A 
HETATM    7  N2  UNL     1      18.197  -1.076   8.321  1.00  0.00    -0.202 N 
HETATM    8  C1  UNL     1      19.230  -0.825   7.502  1.00  0.00     0.677 A 
ATOM      9  H2  UNL     1      17.296  -0.630   8.146  1.00  0.00     0.183 HD
HETATM   10  N8  UNL     1      20.438  -1.412   7.725  1.00  0.00    -0.177 N 
ATOM     11  H8  UNL     1      21.214  -1.210   7.094  1.00  0.00     0.185 HD
BRANCH   8  12
HETATM   12  N1  UNL     1      19.081  -0.013   6.484  1.00  0.00    -0.234 N 
ATOM     13  H12 UNL     1      18.403  -0.235   5.754  1.00  0.00     0.174 HD
ATOM     14  H11 UNL     1      19.640   0.837   6.421  1.00  0.00     0.174 HD
ENDBRANCH   8  12
ENDBRANCH   2   4
ENDBRANCH   1   2
BRANCH   1  15
HETATM   15  C6  UNL     1      23.339  -3.703   7.315  1.00  0.00     0.085 C 
BRANCH  15  16
HETATM   16  S1  UNL     1      22.613  -4.137   5.746  1.00  0.00    -0.188 SA
BRANCH  16  17
HETATM   17  C7  UNL     1      22.394  -2.640   4.781  1.00  0.00     0.228 C 
BRANCH  17  18
HETATM   18  O1  UNL     1      21.126  -2.142   5.023  1.00  0.00    -0.392 OA
ATOM     19  H1  UNL     1      21.182  -1.500   5.721  1.00  0.00     0.210 HD
ENDBRANCH  17  18
ENDBRANCH  16  17
BRANCH  16  20
HETATM   20  C8  UNL     1      23.680  -5.197   4.812  1.00  0.00     0.144 C 
BRANCH  20  21
HETATM   21  C9  UNL     1      23.004  -6.391   4.293  1.00  0.00     0.115 A 
HETATM   22  N4  UNL     1      21.755  -6.493   3.862  1.00  0.00    -0.273 N 
HETATM   23  N5  UNL     1      21.495  -7.739   3.466  1.00  0.00    -0.007 NA
ATOM     24  H4  UNL     1      21.085  -5.724   3.837  1.00  0.00     0.185 HD
HETATM   25  N6  UNL     1      22.623  -8.415   3.662  1.00  0.00    -0.007 NA
HETATM   26  N7  UNL     1      23.559  -7.603   4.170  1.00  0.00    -0.273 N 
ATOM     27  H7  UNL     1      24.515  -7.859   4.416  1.00  0.00     0.185 HD
ENDBRANCH  20  21
ENDBRANCH  16  20
ENDBRANCH  15  16
ENDBRANCH   1  15
TORSDOF 9
ENDMDL
