MODEL 1
REMARK VINA RESULT: -7.121598764      0.000      0.000
REMARK  7 active torsions:
REMARK  status: ('A' for Active; 'I' for Inactive)
REMARK    1  A    between atoms: N1_2  and  C3_5 
REMARK    2  A    between atoms: C4_8  and  N4_9 
REMARK    3  A    between atoms: C6_16  and  O2_17 
REMARK    4  A    between atoms: O2_17  and  C7_18 
REMARK    5  A    between atoms: C7_18  and  C8_19 
REMARK    6  A    between atoms: C8_19  and  C9_21 
REMARK    7  A    between atoms: C9_21  and  N7_22 
ROOT
HETATM    1  C1  UNL     1      19.667  -1.350   7.869  1.00  0.00     0.170 C 
HETATM    2  N1  UNL     1      20.477  -2.331   8.564  1.00  0.00    -0.272 N 
HETATM    3  C2  UNL     1      19.887  -3.162   9.503  1.00  0.00     0.185 C 
HETATM    4  N2  UNL     1      19.378  -3.869  10.279  1.00  0.00    -0.172 NA
ENDROOT
BRANCH   2   5
HETATM    5  C3  UNL     1      21.884  -2.485   8.273  1.00  0.00     0.171 A 
HETATM    6  N3  UNL     1      22.722  -1.483   8.696  1.00  0.00    -0.173 N 
HETATM    7  C4  UNL     1      24.046  -1.561   8.530  1.00  0.00     0.680 A 
ATOM      8  H3  UNL     1      22.324  -0.660   9.147  1.00  0.00     0.186 HD
HETATM    9  N5  UNL     1      24.545  -2.658   7.932  1.00  0.00    -0.154 N 
HETATM   10  C5  UNL     1      23.812  -3.658   7.499  1.00  0.00     0.297 A 
ATOM     11  H5  UNL     1      25.555  -2.716   7.806  1.00  0.00     0.187 HD
HETATM   12  O1  UNL     1      24.254  -4.695   6.937  1.00  0.00    -0.264 OA
HETATM   13  C6  UNL     1      22.418  -3.587   7.667  1.00  0.00     0.189 A 
BRANCH   7  14
HETATM   14  N4  UNL     1      24.794  -0.586   8.947  1.00  0.00    -0.234 N 
ATOM     15  H42 UNL     1      24.600  -0.067   9.803  1.00  0.00     0.174 HD
ATOM     16  H41 UNL     1      25.615  -0.321   8.402  1.00  0.00     0.174 HD
ENDBRANCH   7  14
BRANCH  13  17
HETATM   17  O2  UNL     1      21.633  -4.614   7.216  1.00  0.00    -0.312 OA
BRANCH  17  18
HETATM   18  C7  UNL     1      21.376  -5.872   7.619  1.00  0.00     0.166 C 
BRANCH  18  19
HETATM   19  C8  UNL     1      20.875  -6.948   6.758  1.00  0.00     0.064 C 
HETATM   20  N6  UNL     1      20.025  -7.918   7.346  1.00  0.00    -0.103 NA
BRANCH  19  21
HETATM   21  C9  UNL     1      21.854  -7.576   5.802  1.00  0.00     0.177 C 
BRANCH  21  22
HETATM   22  N7  UNL     1      22.748  -6.606   5.210  1.00  0.00    -0.362 N 
HETATM   23  C10 UNL     1      22.560  -5.963   4.127  1.00  0.00     0.197 C 
HETATM   24  N8  UNL     1      21.437  -6.080   3.296  1.00  0.00    -0.067 NA
HETATM   25  N9  UNL     1      23.572  -5.055   3.730  1.00  0.00    -0.067 NA
ATOM     26  H7  UNL     1      23.616  -6.417   5.710  1.00  0.00     0.162 HD
ENDBRANCH  21  22
ENDBRANCH  19  21
ENDBRANCH  18  19
ENDBRANCH  17  18
ENDBRANCH  13  17
ENDBRANCH   2   5
TORSDOF 7
ENDMDL
MODEL 2
REMARK VINA RESULT: -7.099323107      2.555      5.380
REMARK  7 active torsions:
REMARK  status: ('A' for Active; 'I' for Inactive)
REMARK    1  A    between atoms: N1_2  and  C3_5 
REMARK    2  A    between atoms: C4_8  and  N4_9 
REMARK    3  A    between atoms: C6_16  and  O2_17 
REMARK    4  A    between atoms: O2_17  and  C7_18 
REMARK    5  A    between atoms: C7_18  and  C8_19 
REMARK    6  A    between atoms: C8_19  and  C9_21 
REMARK    7  A    between atoms: C9_21  and  N7_22 
ROOT
HETATM    1  C1  UNL     1      21.335  -7.072   5.989  1.00  0.00     0.170 C 
HETATM    2  N1  UNL     1      22.519  -6.271   5.753  1.00  0.00    -0.272 N 
HETATM    3  C2  UNL     1      23.605  -6.833   5.101  1.00  0.00     0.185 C 
HETATM    4  N2  UNL     1      24.508  -7.310   4.535  1.00  0.00    -0.172 NA
ENDROOT
BRANCH   2   5
HETATM    5  C3  UNL     1      22.580  -4.885   6.153  1.00  0.00     0.171 A 
HETATM    6  N3  UNL     1      22.561  -3.945   5.153  1.00  0.00    -0.173 N 
HETATM    7  C4  UNL     1      22.550  -2.635   5.422  1.00  0.00     0.680 A 
ATOM      8  H3  UNL     1      22.554  -4.254   4.180  1.00  0.00     0.186 HD
HETATM    9  N5  UNL     1      22.560  -2.255   6.712  1.00  0.00    -0.154 N 
HETATM   10  C5  UNL     1      22.579  -3.090   7.726  1.00  0.00     0.297 A 
ATOM     11  H5  UNL     1      22.552  -1.256   6.916  1.00  0.00     0.187 HD
HETATM   12  O1  UNL     1      22.588  -2.759   8.941  1.00  0.00    -0.264 OA
HETATM   13  C6  UNL     1      22.591  -4.469   7.455  1.00  0.00     0.189 A 
BRANCH   7  14
HETATM   14  N4  UNL     1      22.533  -1.787   4.439  1.00  0.00    -0.234 N 
ATOM     15  H42 UNL     1      21.686  -1.559   3.920  1.00  0.00     0.174 HD
ATOM     16  H41 UNL     1      23.400  -1.324   4.168  1.00  0.00     0.174 HD
ENDBRANCH   7  14
BRANCH  13  17
HETATM   17  O2  UNL     1      22.620  -5.358   8.496  1.00  0.00    -0.312 OA
BRANCH  17  18
HETATM   18  C7  UNL     1      23.446  -6.345   8.891  1.00  0.00     0.166 C 
BRANCH  18  19
HETATM   19  C8  UNL     1      24.851  -6.167   9.271  1.00  0.00     0.064 C 
HETATM   20  N6  UNL     1      25.693  -7.306   9.223  1.00  0.00    -0.103 NA
BRANCH  19  21
HETATM   21  C9  UNL     1      25.134  -5.319  10.482  1.00  0.00     0.177 C 
BRANCH  21  22
HETATM   22  N7  UNL     1      25.095  -3.903  10.186  1.00  0.00    -0.362 N 
HETATM   23  C10 UNL     1      26.094  -3.151   9.947  1.00  0.00     0.197 C 
HETATM   24  N8  UNL     1      27.435  -3.561   9.926  1.00  0.00    -0.067 NA
HETATM   25  N9  UNL     1      25.826  -1.786   9.680  1.00  0.00    -0.067 NA
ATOM     26  H7  UNL     1      24.175  -3.464  10.167  1.00  0.00     0.162 HD
ENDBRANCH  21  22
ENDBRANCH  19  21
ENDBRANCH  18  19
ENDBRANCH  17  18
ENDBRANCH  13  17
ENDBRANCH   2   5
TORSDOF 7
ENDMDL
MODEL 3
REMARK VINA RESULT: -7.055130088      2.978      5.446
REMARK  7 active torsions:
REMARK  status: ('A' for Active; 'I' for Inactive)
REMARK    1  A    between atoms: N1_2  and  C3_5 
REMARK    2  A    between atoms: C4_8  and  N4_9 
REMARK    3  A    between atoms: C6_16  and  O2_17 
REMARK    4  A    between atoms: O2_17  and  C7_18 
REMARK    5  A    between atoms: C7_18  and  C8_19 
REMARK    6  A    between atoms: C8_19  and  C9_21 
REMARK    7  A    between atoms: C9_21  and  N7_22 
ROOT
HETATM    1  C1  UNL     1      23.671  -7.290   4.494  1.00  0.00     0.170 C 
HETATM    2  N1  UNL     1      22.720  -6.555   5.303  1.00  0.00    -0.272 N 
HETATM    3  C2  UNL     1      21.567  -7.185   5.742  1.00  0.00     0.185 C 
HETATM    4  N2  UNL     1      20.606  -7.729   6.122  1.00  0.00    -0.172 NA
ENDROOT
BRANCH   2   5
HETATM    5  C3  UNL     1      22.965  -5.185   5.692  1.00  0.00     0.171 A 
HETATM    6  N3  UNL     1      22.301  -4.210   4.990  1.00  0.00    -0.173 N 
HETATM    7  C4  UNL     1      22.412  -2.917   5.312  1.00  0.00     0.680 A 
ATOM      8  H3  UNL     1      21.709  -4.479   4.204  1.00  0.00     0.186 HD
HETATM    9  N5  UNL     1      23.199  -2.590   6.353  1.00  0.00    -0.154 N 
HETATM   10  C5  UNL     1      23.867  -3.462   7.073  1.00  0.00     0.297 A 
ATOM     11  H5  UNL     1      23.283  -1.604   6.597  1.00  0.00     0.187 HD
HETATM   12  O1  UNL     1      24.609  -3.181   8.051  1.00  0.00    -0.264 OA
HETATM   13  C6  UNL     1      23.759  -4.824   6.743  1.00  0.00     0.189 A 
BRANCH   7  14
HETATM   14  N4  UNL     1      21.764  -2.034   4.615  1.00  0.00    -0.234 N 
ATOM     15  H42 UNL     1      22.222  -1.243   4.163  1.00  0.00     0.174 HD
ATOM     16  H41 UNL     1      20.754  -2.128   4.509  1.00  0.00     0.174 HD
ENDBRANCH   7  14
BRANCH  13  17
HETATM   17  O2  UNL     1      24.453  -5.750   7.475  1.00  0.00    -0.312 OA
BRANCH  17  18
HETATM   18  C7  UNL     1      24.127  -6.720   8.350  1.00  0.00     0.166 C 
BRANCH  18  19
HETATM   19  C8  UNL     1      24.875  -7.041   9.570  1.00  0.00     0.064 C 
HETATM   20  N6  UNL     1      24.724  -8.344  10.108  1.00  0.00    -0.103 NA
BRANCH  19  21
HETATM   21  C9  UNL     1      24.909  -5.995  10.651  1.00  0.00     0.177 C 
BRANCH  21  22
HETATM   22  N7  UNL     1      25.624  -4.805  10.246  1.00  0.00    -0.362 N 
HETATM   23  C10 UNL     1      26.832  -4.516  10.523  1.00  0.00     0.197 C 
HETATM   24  N8  UNL     1      27.704  -5.307  11.284  1.00  0.00    -0.067 NA
HETATM   25  N9  UNL     1      27.335  -3.290  10.021  1.00  0.00    -0.067 NA
ATOM     26  H7  UNL     1      25.108  -4.130   9.682  1.00  0.00     0.162 HD
ENDBRANCH  21  22
ENDBRANCH  19  21
ENDBRANCH  18  19
ENDBRANCH  17  18
ENDBRANCH  13  17
ENDBRANCH   2   5
TORSDOF 7
ENDMDL
MODEL 4
REMARK VINA RESULT: -7.051726553      3.698      6.825
REMARK  7 active torsions:
REMARK  status: ('A' for Active; 'I' for Inactive)
REMARK    1  A    between atoms: N1_2  and  C3_5 
REMARK    2  A    between atoms: C4_8  and  N4_9 
REMARK    3  A    between atoms: C6_16  and  O2_17 
REMARK    4  A    between atoms: O2_17  and  C7_18 
REMARK    5  A    between atoms: C7_18  and  C8_19 
REMARK    6  A    between atoms: C8_19  and  C9_21 
REMARK    7  A    between atoms: C9_21  and  N7_22 
ROOT
HETATM    1  C1  UNL     1      23.050  -6.703   7.158  1.00  0.00     0.170 C 
HETATM    2  N1  UNL     1      23.457  -5.487   6.483  1.00  0.00    -0.272 N 
HETATM    3  C2  UNL     1      24.036  -5.564   5.227  1.00  0.00     0.185 C 
HETATM    4  N2  UNL     1      24.508  -5.638   4.162  1.00  0.00    -0.172 NA
ENDROOT
BRANCH   2   5
HETATM    5  C3  UNL     1      23.239  -4.189   7.079  1.00  0.00     0.171 A 
HETATM    6  N3  UNL     1      22.034  -3.581   6.827  1.00  0.00    -0.173 N 
HETATM    7  C4  UNL     1      21.711  -2.408   7.382  1.00  0.00     0.680 A 
ATOM      8  H3  UNL     1      21.368  -4.036   6.201  1.00  0.00     0.186 HD
HETATM    9  N5  UNL     1      22.607  -1.830   8.203  1.00  0.00    -0.154 N 
HETATM   10  C5  UNL     1      23.779  -2.345   8.494  1.00  0.00     0.297 A 
ATOM     11  H5  UNL     1      22.360  -0.935   8.625  1.00  0.00     0.187 HD
HETATM   12  O1  UNL     1      24.633  -1.824   9.259  1.00  0.00    -0.264 OA
HETATM   13  C6  UNL     1      24.129  -3.578   7.916  1.00  0.00     0.189 A 
BRANCH   7  14
HETATM   14  N4  UNL     1      20.559  -1.875   7.110  1.00  0.00    -0.234 N 
ATOM     15  H42 UNL     1      19.692  -2.177   7.553  1.00  0.00     0.174 HD
ATOM     16  H41 UNL     1      20.511  -1.119   6.427  1.00  0.00     0.174 HD
ENDBRANCH   7  14
BRANCH  13  17
HETATM   17  O2  UNL     1      25.350  -4.130   8.198  1.00  0.00    -0.312 OA
BRANCH  17  18
HETATM   18  C7  UNL     1      25.869  -4.838   9.218  1.00  0.00     0.166 C 
BRANCH  18  19
HETATM   19  C8  UNL     1      26.634  -4.273  10.335  1.00  0.00     0.064 C 
HETATM   20  N6  UNL     1      27.587  -3.268  10.035  1.00  0.00    -0.103 NA
BRANCH  19  21
HETATM   21  C9  UNL     1      27.149  -5.235  11.371  1.00  0.00     0.177 C 
BRANCH  21  22
HETATM   22  N7  UNL     1      26.982  -4.737  12.719  1.00  0.00    -0.362 N 
HETATM   23  C10 UNL     1      27.880  -4.203  13.446  1.00  0.00     0.197 C 
HETATM   24  N8  UNL     1      29.216  -3.998  13.071  1.00  0.00    -0.067 NA
HETATM   25  N9  UNL     1      27.496  -3.782  14.743  1.00  0.00    -0.067 NA
ATOM     26  H7  UNL     1      26.052  -4.821  13.127  1.00  0.00     0.162 HD
ENDBRANCH  21  22
ENDBRANCH  19  21
ENDBRANCH  18  19
ENDBRANCH  17  18
ENDBRANCH  13  17
ENDBRANCH   2   5
TORSDOF 7
ENDMDL
MODEL 5
REMARK VINA RESULT: -6.979215763      3.707      6.408
REMARK  7 active torsions:
REMARK  status: ('A' for Active; 'I' for Inactive)
REMARK    1  A    between atoms: N1_2  and  C3_5 
REMARK    2  A    between atoms: C4_8  and  N4_9 
REMARK    3  A    between atoms: C6_16  and  O2_17 
REMARK    4  A    between atoms: O2_17  and  C7_18 
REMARK    5  A    between atoms: C7_18  and  C8_19 
REMARK    6  A    between atoms: C8_19  and  C9_21 
REMARK    7  A    between atoms: C9_21  and  N7_22 
ROOT
HETATM    1  C1  UNL     1      22.823  -6.312   6.856  1.00  0.00     0.170 C 
HETATM    2  N1  UNL     1      22.518  -5.568   8.061  1.00  0.00    -0.272 N 
HETATM    3  C2  UNL     1      22.089  -6.244   9.192  1.00  0.00     0.185 C 
HETATM    4  N2  UNL     1      21.745  -6.825  10.145  1.00  0.00    -0.172 NA
ENDROOT
BRANCH   2   5
HETATM    5  C3  UNL     1      22.683  -4.134   8.120  1.00  0.00     0.171 A 
HETATM    6  N3  UNL     1      21.541  -3.372   8.096  1.00  0.00    -0.173 N 
HETATM    7  C4  UNL     1      21.585  -2.040   8.209  1.00  0.00     0.680 A 
ATOM      8  H3  UNL     1      20.638  -3.834   7.990  1.00  0.00     0.186 HD
HETATM    9  N5  UNL     1      22.789  -1.457   8.347  1.00  0.00    -0.154 N 
HETATM   10  C5  UNL     1      23.926  -2.113   8.380  1.00  0.00     0.297 A 
ATOM     11  H5  UNL     1      22.821  -0.442   8.433  1.00  0.00     0.187 HD
HETATM   12  O1  UNL     1      25.065  -1.591   8.509  1.00  0.00    -0.264 OA
HETATM   13  C6  UNL     1      23.893  -3.514   8.261  1.00  0.00     0.189 A 
BRANCH   7  14
HETATM   14  N4  UNL     1      20.476  -1.367   8.178  1.00  0.00    -0.234 N 
ATOM     15  H42 UNL     1      19.845  -1.377   7.378  1.00  0.00     0.174 HD
ATOM     16  H41 UNL     1      20.216  -0.801   8.987  1.00  0.00     0.174 HD
ENDBRANCH   7  14
BRANCH  13  17
HETATM   17  O2  UNL     1      25.067  -4.219   8.283  1.00  0.00    -0.312 OA
BRANCH  17  18
HETATM   18  C7  UNL     1      25.756  -4.904   9.214  1.00  0.00     0.166 C 
BRANCH  18  19
HETATM   19  C8  UNL     1      26.539  -4.301  10.298  1.00  0.00     0.064 C 
HETATM   20  N6  UNL     1      27.460  -3.281   9.953  1.00  0.00    -0.103 NA
BRANCH  19  21
HETATM   21  C9  UNL     1      27.105  -5.231  11.337  1.00  0.00     0.177 C 
BRANCH  21  22
HETATM   22  N7  UNL     1      26.950  -4.718  12.681  1.00  0.00    -0.362 N 
HETATM   23  C10 UNL     1      27.857  -4.185  13.398  1.00  0.00     0.197 C 
HETATM   24  N8  UNL     1      29.192  -3.996  13.013  1.00  0.00    -0.067 NA
HETATM   25  N9  UNL     1      27.485  -3.748  14.692  1.00  0.00    -0.067 NA
ATOM     26  H7  UNL     1      26.021  -4.789  13.096  1.00  0.00     0.162 HD
ENDBRANCH  21  22
ENDBRANCH  19  21
ENDBRANCH  18  19
ENDBRANCH  17  18
ENDBRANCH  13  17
ENDBRANCH   2   5
TORSDOF 7
ENDMDL
