MODEL 1
REMARK VINA RESULT: -7.057599019      0.000      0.000
REMARK  10 active torsions:
REMARK  status: ('A' for Active; 'I' for Inactive)
REMARK    1  A    between atoms: N1_1  and  C1_4 
REMARK    2  A    between atoms: C3_8  and  N3_9 
REMARK    3  A    between atoms: N3_9  and  C4_11 
REMARK    4  A    between atoms: C4_11  and  N4_12 
REMARK    5  A    between atoms: N7_23  and  C7_24 
REMARK    6  A    between atoms: C7_24  and  O2_25 
REMARK    7  A    between atoms: O2_25  and  C8_26 
REMARK    8  A    between atoms: C8_26  and  C9_28 
REMARK    9  A    between atoms: C9_28  and  C10_29 
REMARK   10  A    between atoms: C10_29  and  N8_30 
ROOT
HETATM    1  C1  UNL     1      23.140  -3.350   7.474  1.00  0.00     0.682 A 
HETATM    2  N2  UNL     1      22.298  -2.318   7.313  1.00  0.00    -0.184 N 
ATOM      3  H2  UNL     1      22.453  -1.517   6.699  1.00  0.00     0.184 HD
HETATM    4  C2  UNL     1      21.209  -2.510   8.097  1.00  0.00     0.138 A 
HETATM    5  C3  UNL     1      20.053  -1.793   8.331  1.00  0.00     0.138 A 
HETATM    6  N5  UNL     1      19.151  -2.288   9.198  1.00  0.00    -0.293 N 
ATOM      7  H5  UNL     1      18.294  -1.762   9.374  1.00  0.00     0.172 HD
HETATM    8  C5  UNL     1      19.346  -3.467   9.847  1.00  0.00     0.327 A 
HETATM    9  O1  UNL     1      18.472  -3.887  10.651  1.00  0.00    -0.247 OA
HETATM   10  N6  UNL     1      20.486  -4.131   9.589  1.00  0.00    -0.292 N 
ATOM     11  H6  UNL     1      20.641  -5.016  10.072  1.00  0.00     0.172 HD
HETATM   12  C6  UNL     1      21.429  -3.709   8.744  1.00  0.00     0.161 A 
HETATM   13  N7  UNL     1      22.627  -4.228   8.357  1.00  0.00    -0.144 N 
ENDROOT
BRANCH  13  14
HETATM   14  C7  UNL     1      23.209  -5.475   8.816  1.00  0.00     0.330 C 
BRANCH  14  15
HETATM   15  O2  UNL     1      24.517  -5.659   8.350  1.00  0.00    -0.300 OA
BRANCH  15  16
HETATM   16  C8  UNL     1      25.580  -5.385   9.195  1.00  0.00     0.262 C 
HETATM   17  O3  UNL     1      26.631  -4.922   8.684  1.00  0.00    -0.265 OA
BRANCH  16  18
HETATM   18  C9  UNL     1      25.536  -5.610  10.653  1.00  0.00     0.138 C 
BRANCH  18  19
HETATM   19  C10 UNL     1      25.887  -4.284  11.341  1.00  0.00     0.239 C 
BRANCH  19  20
HETATM   20  N8  UNL     1      25.322  -3.237  10.518  1.00  0.00    -0.079 N 
ATOM     21  H83 UNL     1      24.827  -3.589   9.698  1.00  0.00     0.274 HD
ATOM     22  H82 UNL     1      24.529  -2.765  10.951  1.00  0.00     0.274 HD
ATOM     23  H81 UNL     1      26.090  -2.608  10.286  1.00  0.00     0.274 HD
ENDBRANCH  19  20
ENDBRANCH  18  19
ENDBRANCH  16  18
ENDBRANCH  15  16
ENDBRANCH  14  15
ENDBRANCH  13  14
BRANCH   1  24
HETATM   24  N1  UNL     1      24.279  -3.478   6.869  1.00  0.00    -0.234 N 
ATOM     25  H12 UNL     1      24.430  -4.002   6.006  1.00  0.00     0.174 HD
ATOM     26  H11 UNL     1      25.157  -3.069   7.187  1.00  0.00     0.174 HD
ENDBRANCH   1  24
BRANCH   5  27
HETATM   27  N3  UNL     1      19.883  -0.687   7.713  1.00  0.00    -0.351 N 
ATOM     28  H3  UNL     1      20.460   0.105   7.995  1.00  0.00     0.162 HD
BRANCH  27  29
HETATM   29  C4  UNL     1      18.940  -0.477   6.652  1.00  0.00     0.353 C 
BRANCH  29  30
HETATM   30  N4  UNL     1      19.500  -0.802   5.352  1.00  0.00    -0.064 N 
ATOM     31  H43 UNL     1      19.710   0.041   4.818  1.00  0.00     0.276 HD
ATOM     32  H42 UNL     1      20.444  -1.177   5.440  1.00  0.00     0.276 HD
ATOM     33  H41 UNL     1      18.898  -1.434   4.822  1.00  0.00     0.276 HD
ENDBRANCH  29  30
ENDBRANCH  27  29
ENDBRANCH   5  27
TORSDOF 10
ENDMDL
MODEL 2
REMARK VINA RESULT: -6.826814208      1.723      2.863
REMARK  10 active torsions:
REMARK  status: ('A' for Active; 'I' for Inactive)
REMARK    1  A    between atoms: N1_1  and  C1_4 
REMARK    2  A    between atoms: C3_8  and  N3_9 
REMARK    3  A    between atoms: N3_9  and  C4_11 
REMARK    4  A    between atoms: C4_11  and  N4_12 
REMARK    5  A    between atoms: N7_23  and  C7_24 
REMARK    6  A    between atoms: C7_24  and  O2_25 
REMARK    7  A    between atoms: O2_25  and  C8_26 
REMARK    8  A    between atoms: C8_26  and  C9_28 
REMARK    9  A    between atoms: C9_28  and  C10_29 
REMARK   10  A    between atoms: C10_29  and  N8_30 
ROOT
HETATM    1  C1  UNL     1      23.083  -3.274   7.491  1.00  0.00     0.682 A 
HETATM    2  N2  UNL     1      22.240  -2.244   7.328  1.00  0.00    -0.184 N 
ATOM      3  H2  UNL     1      22.399  -1.437   6.724  1.00  0.00     0.184 HD
HETATM    4  C2  UNL     1      21.140  -2.448   8.095  1.00  0.00     0.138 A 
HETATM    5  C3  UNL     1      19.978  -1.739   8.319  1.00  0.00     0.138 A 
HETATM    6  N5  UNL     1      19.065  -2.245   9.169  1.00  0.00    -0.293 N 
ATOM      7  H5  UNL     1      18.204  -1.725   9.338  1.00  0.00     0.172 HD
HETATM    8  C5  UNL     1      19.256  -3.430   9.809  1.00  0.00     0.327 A 
HETATM    9  O1  UNL     1      18.373  -3.862  10.596  1.00  0.00    -0.247 OA
HETATM   10  N6  UNL     1      20.403  -4.087   9.561  1.00  0.00    -0.292 N 
ATOM     11  H6  UNL     1      20.555  -4.976  10.037  1.00  0.00     0.172 HD
HETATM   12  C6  UNL     1      21.356  -3.652   8.734  1.00  0.00     0.161 A 
HETATM   13  N7  UNL     1      22.561  -4.163   8.358  1.00  0.00    -0.144 N 
ENDROOT
BRANCH  13  14
HETATM   14  C7  UNL     1      23.143  -5.412   8.813  1.00  0.00     0.330 C 
BRANCH  14  15
HETATM   15  O2  UNL     1      24.060  -5.941   7.897  1.00  0.00    -0.300 OA
BRANCH  15  16
HETATM   16  C8  UNL     1      23.674  -6.998   7.088  1.00  0.00     0.262 C 
HETATM   17  O3  UNL     1      24.215  -8.115   7.285  1.00  0.00    -0.265 OA
BRANCH  16  18
HETATM   18  C9  UNL     1      22.668  -6.872   6.016  1.00  0.00     0.138 C 
BRANCH  18  19
HETATM   19  C10 UNL     1      23.385  -6.354   4.762  1.00  0.00     0.239 C 
BRANCH  19  20
HETATM   20  N8  UNL     1      24.213  -7.442   4.288  1.00  0.00    -0.079 N 
ATOM     21  H83 UNL     1      25.212  -7.240   4.335  1.00  0.00     0.274 HD
ATOM     22  H82 UNL     1      24.217  -8.249   4.911  1.00  0.00     0.274 HD
ATOM     23  H81 UNL     1      23.889  -7.660   3.345  1.00  0.00     0.274 HD
ENDBRANCH  19  20
ENDBRANCH  18  19
ENDBRANCH  16  18
ENDBRANCH  15  16
ENDBRANCH  14  15
ENDBRANCH  13  14
BRANCH   1  24
HETATM   24  N1  UNL     1      24.231  -3.392   6.901  1.00  0.00    -0.234 N 
ATOM     25  H12 UNL     1      24.681  -2.668   6.341  1.00  0.00     0.174 HD
ATOM     26  H11 UNL     1      24.817  -4.226   6.928  1.00  0.00     0.174 HD
ENDBRANCH   1  24
BRANCH   5  27
HETATM   27  N3  UNL     1      19.811  -0.627   7.710  1.00  0.00    -0.351 N 
ATOM     28  H3  UNL     1      20.356   0.173   8.030  1.00  0.00     0.162 HD
BRANCH  27  29
HETATM   29  C4  UNL     1      18.915  -0.422   6.608  1.00  0.00     0.353 C 
BRANCH  29  30
HETATM   30  N4  UNL     1      19.520  -0.782   5.338  1.00  0.00    -0.064 N 
ATOM     31  H43 UNL     1      19.430  -0.027   4.658  1.00  0.00     0.276 HD
ATOM     32  H42 UNL     1      20.537  -0.814   5.409  1.00  0.00     0.276 HD
ATOM     33  H41 UNL     1      19.147  -1.657   4.969  1.00  0.00     0.276 HD
ENDBRANCH  29  30
ENDBRANCH  27  29
ENDBRANCH   5  27
TORSDOF 10
ENDMDL
MODEL 3
REMARK VINA RESULT: -6.777921138      1.894      3.053
REMARK  10 active torsions:
REMARK  status: ('A' for Active; 'I' for Inactive)
REMARK    1  A    between atoms: N1_1  and  C1_4 
REMARK    2  A    between atoms: C3_8  and  N3_9 
REMARK    3  A    between atoms: N3_9  and  C4_11 
REMARK    4  A    between atoms: C4_11  and  N4_12 
REMARK    5  A    between atoms: N7_23  and  C7_24 
REMARK    6  A    between atoms: C7_24  and  O2_25 
REMARK    7  A    between atoms: O2_25  and  C8_26 
REMARK    8  A    between atoms: C8_26  and  C9_28 
REMARK    9  A    between atoms: C9_28  and  C10_29 
REMARK   10  A    between atoms: C10_29  and  N8_30 
ROOT
HETATM    1  C1  UNL     1      23.041  -3.266   7.499  1.00  0.00     0.682 A 
HETATM    2  N2  UNL     1      22.221  -2.216   7.339  1.00  0.00    -0.184 N 
ATOM      3  H2  UNL     1      22.404  -1.406   6.745  1.00  0.00     0.184 HD
HETATM    4  C2  UNL     1      21.110  -2.404   8.094  1.00  0.00     0.138 A 
HETATM    5  C3  UNL     1      19.961  -1.672   8.314  1.00  0.00     0.138 A 
HETATM    6  N5  UNL     1      19.030  -2.168   9.151  1.00  0.00    -0.293 N 
ATOM      7  H5  UNL     1      18.179  -1.631   9.317  1.00  0.00     0.172 HD
HETATM    8  C5  UNL     1      19.190  -3.362   9.781  1.00  0.00     0.327 A 
HETATM    9  O1  UNL     1      18.290  -3.783  10.555  1.00  0.00    -0.247 OA
HETATM   10  N6  UNL     1      20.325  -4.041   9.536  1.00  0.00    -0.292 N 
ATOM     11  H6  UNL     1      20.453  -4.938  10.004  1.00  0.00     0.172 HD
HETATM   12  C6  UNL     1      21.294  -3.619   8.722  1.00  0.00     0.161 A 
HETATM   13  N7  UNL     1      22.492  -4.152   8.352  1.00  0.00    -0.144 N 
ENDROOT
BRANCH  13  14
HETATM   14  C7  UNL     1      23.042  -5.418   8.800  1.00  0.00     0.330 C 
BRANCH  14  15
HETATM   15  O2  UNL     1      22.227  -6.505   8.463  1.00  0.00    -0.300 OA
BRANCH  15  16
HETATM   16  C8  UNL     1      22.105  -6.872   7.132  1.00  0.00     0.262 C 
HETATM   17  O3  UNL     1      21.041  -6.569   6.536  1.00  0.00    -0.265 OA
BRANCH  16  18
HETATM   18  C9  UNL     1      23.156  -7.596   6.391  1.00  0.00     0.138 C 
BRANCH  18  19
HETATM   19  C10 UNL     1      23.733  -6.635   5.343  1.00  0.00     0.239 C 
BRANCH  19  20
HETATM   20  N8  UNL     1      24.200  -7.458   4.250  1.00  0.00    -0.079 N 
ATOM     21  H83 UNL     1      25.202  -7.375   4.080  1.00  0.00     0.274 HD
ATOM     22  H82 UNL     1      24.191  -8.456   4.461  1.00  0.00     0.274 HD
ATOM     23  H81 UNL     1      23.631  -7.211   3.440  1.00  0.00     0.274 HD
ENDBRANCH  19  20
ENDBRANCH  18  19
ENDBRANCH  16  18
ENDBRANCH  15  16
ENDBRANCH  14  15
ENDBRANCH  13  14
BRANCH   1  24
HETATM   24  N1  UNL     1      24.191  -3.402   6.919  1.00  0.00    -0.234 N 
ATOM     25  H12 UNL     1      24.480  -2.923   6.065  1.00  0.00     0.174 HD
ATOM     26  H11 UNL     1      24.943  -4.007   7.250  1.00  0.00     0.174 HD
ENDBRANCH   1  24
BRANCH   5  27
HETATM   27  N3  UNL     1      19.825  -0.551   7.715  1.00  0.00    -0.351 N 
ATOM     28  H3  UNL     1      20.407   0.225   8.027  1.00  0.00     0.162 HD
BRANCH  27  29
HETATM   29  C4  UNL     1      18.912  -0.304   6.636  1.00  0.00     0.353 C 
BRANCH  29  30
HETATM   30  N4  UNL     1      19.439  -0.760   5.361  1.00  0.00    -0.064 N 
ATOM     31  H43 UNL     1      19.318  -0.053   4.636  1.00  0.00     0.276 HD
ATOM     32  H42 UNL     1      20.458  -0.803   5.376  1.00  0.00     0.276 HD
ATOM     33  H41 UNL     1      19.035  -1.653   5.076  1.00  0.00     0.276 HD
ENDBRANCH  29  30
ENDBRANCH  27  29
ENDBRANCH   5  27
TORSDOF 10
ENDMDL
MODEL 4
REMARK VINA RESULT: -6.757016522      2.957      3.617
REMARK  10 active torsions:
REMARK  status: ('A' for Active; 'I' for Inactive)
REMARK    1  A    between atoms: N1_1  and  C1_4 
REMARK    2  A    between atoms: C3_8  and  N3_9 
REMARK    3  A    between atoms: N3_9  and  C4_11 
REMARK    4  A    between atoms: C4_11  and  N4_12 
REMARK    5  A    between atoms: N7_23  and  C7_24 
REMARK    6  A    between atoms: C7_24  and  O2_25 
REMARK    7  A    between atoms: O2_25  and  C8_26 
REMARK    8  A    between atoms: C8_26  and  C9_28 
REMARK    9  A    between atoms: C9_28  and  C10_29 
REMARK   10  A    between atoms: C10_29  and  N8_30 
ROOT
HETATM    1  C1  UNL     1      23.994  -5.988   7.794  1.00  0.00     0.682 A 
HETATM    2  N2  UNL     1      23.156  -5.151   7.164  1.00  0.00    -0.184 N 
ATOM      3  H2  UNL     1      22.457  -5.423   6.471  1.00  0.00     0.184 HD
HETATM    4  C2  UNL     1      23.387  -3.887   7.595  1.00  0.00     0.138 A 
HETATM    5  C3  UNL     1      22.840  -2.654   7.301  1.00  0.00     0.138 A 
HETATM    6  N5  UNL     1      23.321  -1.567   7.932  1.00  0.00    -0.293 N 
ATOM      7  H5  UNL     1      22.919  -0.654   7.719  1.00  0.00     0.172 HD
HETATM    8  C5  UNL     1      24.325  -1.649   8.845  1.00  0.00     0.327 A 
HETATM    9  O1  UNL     1      24.741  -0.602   9.409  1.00  0.00    -0.247 OA
HETATM   10  N6  UNL     1      24.828  -2.869   9.100  1.00  0.00    -0.292 N 
ATOM     11  H6  UNL     1      25.582  -2.940   9.784  1.00  0.00     0.172 HD
HETATM   12  C6  UNL     1      24.408  -3.994   8.518  1.00  0.00     0.161 A 
HETATM   13  N7  UNL     1      24.782  -5.298   8.641  1.00  0.00    -0.144 N 
ENDROOT
BRANCH  13  14
HETATM   14  C7  UNL     1      25.822  -5.813   9.512  1.00  0.00     0.330 C 
BRANCH  14  15
HETATM   15  O2  UNL     1      25.753  -5.276  10.803  1.00  0.00    -0.300 OA
BRANCH  15  16
HETATM   16  C8  UNL     1      26.886  -4.701  11.358  1.00  0.00     0.262 C 
HETATM   17  O3  UNL     1      27.390  -3.714  10.767  1.00  0.00    -0.265 OA
BRANCH  16  18
HETATM   18  C9  UNL     1      27.520  -5.192  12.597  1.00  0.00     0.138 C 
BRANCH  18  19
HETATM   19  C10 UNL     1      26.858  -4.468  13.777  1.00  0.00     0.239 C 
BRANCH  19  20
HETATM   20  N8  UNL     1      25.531  -4.099  13.336  1.00  0.00    -0.079 N 
ATOM     21  H83 UNL     1      25.268  -3.148  13.595  1.00  0.00     0.274 HD
ATOM     22  H82 UNL     1      25.458  -3.980  12.326  1.00  0.00     0.274 HD
ATOM     23  H81 UNL     1      24.898  -4.808  13.707  1.00  0.00     0.274 HD
ENDBRANCH  19  20
ENDBRANCH  18  19
ENDBRANCH  16  18
ENDBRANCH  15  16
ENDBRANCH  14  15
ENDBRANCH  13  14
BRANCH   1  24
HETATM   24  N1  UNL     1      24.036  -7.271   7.612  1.00  0.00    -0.234 N 
ATOM     25  H12 UNL     1      23.266  -7.915   7.791  1.00  0.00     0.174 HD
ATOM     26  H11 UNL     1      24.847  -7.784   7.268  1.00  0.00     0.174 HD
ENDBRANCH   1  24
BRANCH   5  27
HETATM   27  N3  UNL     1      21.896  -2.593   6.441  1.00  0.00    -0.351 N 
ATOM     28  H3  UNL     1      20.948  -2.451   6.789  1.00  0.00     0.162 HD
BRANCH  27  29
HETATM   29  C4  UNL     1      22.072  -2.708   5.022  1.00  0.00     0.353 C 
BRANCH  29  30
HETATM   30  N4  UNL     1      22.792  -1.575   4.467  1.00  0.00    -0.064 N 
ATOM     31  H43 UNL     1      22.337  -0.694   4.706  1.00  0.00     0.276 HD
ATOM     32  H42 UNL     1      23.681  -1.432   4.946  1.00  0.00     0.276 HD
ATOM     33  H41 UNL     1      22.924  -1.660   3.459  1.00  0.00     0.276 HD
ENDBRANCH  29  30
ENDBRANCH  27  29
ENDBRANCH   5  27
TORSDOF 10
ENDMDL
MODEL 5
REMARK VINA RESULT: -6.681744942      3.571      4.276
REMARK  10 active torsions:
REMARK  status: ('A' for Active; 'I' for Inactive)
REMARK    1  A    between atoms: N1_1  and  C1_4 
REMARK    2  A    between atoms: C3_8  and  N3_9 
REMARK    3  A    between atoms: N3_9  and  C4_11 
REMARK    4  A    between atoms: C4_11  and  N4_12 
REMARK    5  A    between atoms: N7_23  and  C7_24 
REMARK    6  A    between atoms: C7_24  and  O2_25 
REMARK    7  A    between atoms: O2_25  and  C8_26 
REMARK    8  A    between atoms: C8_26  and  C9_28 
REMARK    9  A    between atoms: C9_28  and  C10_29 
REMARK   10  A    between atoms: C10_29  and  N8_30 
ROOT
HETATM    1  C1  UNL     1      24.922  -3.549   8.751  1.00  0.00     0.682 A 
HETATM    2  N2  UNL     1      24.468  -3.338   7.506  1.00  0.00    -0.184 N 
ATOM      3  H2  UNL     1      24.441  -2.436   7.030  1.00  0.00     0.184 HD
HETATM    4  C2  UNL     1      24.051  -4.518   6.982  1.00  0.00     0.138 A 
HETATM    5  C3  UNL     1      23.506  -4.894   5.772  1.00  0.00     0.138 A 
HETATM    6  N5  UNL     1      23.197  -6.190   5.577  1.00  0.00    -0.293 N 
ATOM      7  H5  UNL     1      22.795  -6.473   4.684  1.00  0.00     0.172 HD
HETATM    8  C5  UNL     1      23.406  -7.132   6.535  1.00  0.00     0.327 A 
HETATM    9  O1  UNL     1      23.100  -8.332   6.305  1.00  0.00    -0.247 OA
HETATM   10  N6  UNL     1      23.939  -6.721   7.699  1.00  0.00    -0.292 N 
ATOM     11  H6  UNL     1      24.099  -7.421   8.423  1.00  0.00     0.172 HD
HETATM   12  C6  UNL     1      24.271  -5.457   7.970  1.00  0.00     0.161 A 
HETATM   13  N7  UNL     1      24.812  -4.855   9.066  1.00  0.00    -0.144 N 
ENDROOT
BRANCH  13  14
HETATM   14  C7  UNL     1      25.184  -5.508  10.307  1.00  0.00     0.330 C 
BRANCH  14  15
HETATM   15  O2  UNL     1      26.570  -5.659  10.437  1.00  0.00    -0.300 OA
BRANCH  15  16
HETATM   16  C8  UNL     1      27.232  -4.980  11.446  1.00  0.00     0.262 C 
HETATM   17  O3  UNL     1      27.594  -3.798  11.217  1.00  0.00    -0.265 OA
BRANCH  16  18
HETATM   18  C9  UNL     1      27.530  -5.573  12.764  1.00  0.00     0.138 C 
BRANCH  18  19
HETATM   19  C10 UNL     1      27.889  -4.428  13.721  1.00  0.00     0.239 C 
BRANCH  19  20
HETATM   20  N8  UNL     1      29.281  -4.117  13.480  1.00  0.00    -0.079 N 
ATOM     21  H83 UNL     1      29.792  -4.875  13.027  1.00  0.00     0.274 HD
ATOM     22  H82 UNL     1      29.419  -3.418  12.750  1.00  0.00     0.274 HD
ATOM     23  H81 UNL     1      29.675  -3.846  14.380  1.00  0.00     0.274 HD
ENDBRANCH  19  20
ENDBRANCH  18  19
ENDBRANCH  16  18
ENDBRANCH  15  16
ENDBRANCH  14  15
ENDBRANCH  13  14
BRANCH   1  24
HETATM   24  N1  UNL     1      25.394  -2.630   9.533  1.00  0.00    -0.234 N 
ATOM     25  H12 UNL     1      25.517  -1.650   9.280  1.00  0.00     0.174 HD
ATOM     26  H11 UNL     1      25.698  -2.783  10.494  1.00  0.00     0.174 HD
ENDBRANCH   1  24
BRANCH   5  27
HETATM   27  N3  UNL     1      23.315  -3.997   4.880  1.00  0.00    -0.351 N 
ATOM     28  H3  UNL     1      23.985  -3.944   4.114  1.00  0.00     0.162 HD
BRANCH  27  29
HETATM   29  C4  UNL     1      22.228  -3.061   4.879  1.00  0.00     0.353 C 
BRANCH  29  30
HETATM   30  N4  UNL     1      22.665  -1.718   4.534  1.00  0.00    -0.064 N 
ATOM     31  H43 UNL     1      23.079  -1.692   3.603  1.00  0.00     0.276 HD
ATOM     32  H42 UNL     1      21.869  -1.101   4.374  1.00  0.00     0.276 HD
ATOM     33  H41 UNL     1      23.299  -1.331   5.232  1.00  0.00     0.276 HD
ENDBRANCH  29  30
ENDBRANCH  27  29
ENDBRANCH   5  27
TORSDOF 10
ENDMDL
