MODEL 1
REMARK VINA RESULT: -6.474718823      0.000      0.000
REMARK  4 active torsions:
REMARK  status: ('A' for Active; 'I' for Inactive)
REMARK       I    between atoms: C1_4  and  N3_6 
REMARK    1  A    between atoms: C4_9  and  C5_10 
REMARK    2  A    between atoms: C5_10  and  C6_11 
REMARK    3  A    between atoms: C6_11  and  O1_12 
REMARK    4  A    between atoms: C6_11  and  C7_14 
ROOT
HETATM    1  N1  UNL     1      19.592  17.004  19.985  1.00  0.00    -0.374 N 
ATOM      2  H11 UNL     1      19.657  16.668  19.025  1.00  0.00     0.158 HD
ATOM      3  H12 UNL     1      20.435  17.130  20.544  1.00  0.00     0.158 HD
HETATM    4  C1  UNL     1      18.434  17.260  20.470  1.00  0.00     0.183 C 
HETATM    5  N2  UNL     1      18.343  17.728  21.808  1.00  0.00    -0.064 NA
HETATM    6  N3  UNL     1      17.255  17.083  19.688  1.00  0.00    -0.356 N 
HETATM    7  C2  UNL     1      16.121  16.443  20.325  1.00  0.00     0.126 C 
HETATM    8  C3  UNL     1      14.855  17.130  19.842  1.00  0.00     0.024 C 
HETATM    9  C4  UNL     1      14.762  17.181  18.368  1.00  0.00    -0.009 C 
HETATM   10  C10 UNL     1      15.940  17.964  17.773  1.00  0.00     0.024 C 
HETATM   11  C11 UNL     1      17.244  17.532  18.344  1.00  0.00     0.126 C 
ENDROOT
BRANCH   9  12
HETATM   12  C5  UNL     1      14.630  15.853  17.709  1.00  0.00     0.037 C 
BRANCH  12  13
HETATM   13  C6  UNL     1      13.268  15.451  17.269  1.00  0.00     0.122 C 
BRANCH  13  14
HETATM   14  O1  UNL     1      12.987  14.119  17.423  1.00  0.00    -0.395 OA
ATOM     15  H1  UNL     1      12.145  13.849  17.077  1.00  0.00     0.210 HD
ENDBRANCH  13  14
BRANCH  13  16
HETATM   16  C7  UNL     1      13.027  15.785  15.800  1.00  0.00     0.014 A 
HETATM   17  C8  UNL     1      11.813  16.641  15.531  1.00  0.00     0.007 A 
HETATM   18  C9  UNL     1      11.813  15.214  15.136  1.00  0.00     0.007 A 
ENDBRANCH  13  16
ENDBRANCH  12  13
ENDBRANCH   9  12
TORSDOF 4
ENDMDL
MODEL 2
REMARK VINA RESULT: -6.165775767      3.522      6.257
REMARK  4 active torsions:
REMARK  status: ('A' for Active; 'I' for Inactive)
REMARK       I    between atoms: C1_4  and  N3_6 
REMARK    1  A    between atoms: C4_9  and  C5_10 
REMARK    2  A    between atoms: C5_10  and  C6_11 
REMARK    3  A    between atoms: C6_11  and  O1_12 
REMARK    4  A    between atoms: C6_11  and  C7_14 
ROOT
HETATM    1  N1  UNL     1      12.415  14.231  15.873  1.00  0.00    -0.374 N 
ATOM      2  H11 UNL     1      12.987  13.580  16.410  1.00  0.00     0.158 HD
ATOM      3  H12 UNL     1      11.748  13.883  15.185  1.00  0.00     0.158 HD
HETATM    4  C1  UNL     1      12.553  15.487  16.082  1.00  0.00     0.183 C 
HETATM    5  N2  UNL     1      11.755  16.394  15.334  1.00  0.00    -0.064 NA
HETATM    6  N3  UNL     1      13.486  15.974  17.045  1.00  0.00    -0.356 N 
HETATM    7  C2  UNL     1      14.306  17.107  16.666  1.00  0.00     0.126 C 
HETATM    8  C3  UNL     1      14.460  18.008  17.878  1.00  0.00     0.024 C 
HETATM    9  C4  UNL     1      14.953  17.284  19.068  1.00  0.00    -0.009 C 
HETATM   10  C10 UNL     1      13.980  16.169  19.471  1.00  0.00     0.024 C 
HETATM   11  C11 UNL     1      13.569  15.338  18.308  1.00  0.00     0.126 C 
ENDROOT
BRANCH   9  12
HETATM   12  C5  UNL     1      16.337  16.750  18.939  1.00  0.00     0.037 C 
BRANCH  12  13
HETATM   13  C6  UNL     1      17.362  17.305  19.860  1.00  0.00     0.122 C 
BRANCH  13  14
HETATM   14  O1  UNL     1      18.656  16.997  19.531  1.00  0.00    -0.395 OA
ATOM     15  H1  UNL     1      19.165  17.725  19.198  1.00  0.00     0.210 HD
ENDBRANCH  13  14
BRANCH  13  16
HETATM   16  C7  UNL     1      17.149  16.832  21.296  1.00  0.00     0.014 A 
HETATM   17  C8  UNL     1      16.837  17.926  22.288  1.00  0.00     0.007 A 
HETATM   18  C9  UNL     1      18.150  17.241  22.329  1.00  0.00     0.007 A 
ENDBRANCH  13  16
ENDBRANCH  12  13
ENDBRANCH   9  12
TORSDOF 4
ENDMDL
MODEL 3
REMARK VINA RESULT: -6.095456883      1.800      2.275
REMARK  4 active torsions:
REMARK  status: ('A' for Active; 'I' for Inactive)
REMARK       I    between atoms: C1_4  and  N3_6 
REMARK    1  A    between atoms: C4_9  and  C5_10 
REMARK    2  A    between atoms: C5_10  and  C6_11 
REMARK    3  A    between atoms: C6_11  and  O1_12 
REMARK    4  A    between atoms: C6_11  and  C7_14 
ROOT
HETATM    1  N1  UNL     1      17.910  17.232  22.693  1.00  0.00    -0.374 N 
ATOM      2  H11 UNL     1      18.253  16.634  21.942  1.00  0.00     0.158 HD
ATOM      3  H12 UNL     1      18.553  17.593  23.398  1.00  0.00     0.158 HD
HETATM    4  C1  UNL     1      16.662  17.519  22.729  1.00  0.00     0.183 C 
HETATM    5  N2  UNL     1      16.184  18.354  23.774  1.00  0.00    -0.064 NA
HETATM    6  N3  UNL     1      15.764  17.015  21.743  1.00  0.00    -0.356 N 
HETATM    7  C2  UNL     1      14.490  16.497  22.202  1.00  0.00     0.126 C 
HETATM    8  C3  UNL     1      13.425  16.895  21.195  1.00  0.00     0.024 C 
HETATM    9  C4  UNL     1      13.769  16.498  19.815  1.00  0.00    -0.009 C 
HETATM   10  C10 UNL     1      15.073  17.168  19.362  1.00  0.00     0.024 C 
HETATM   11  C11 UNL     1      16.150  17.041  20.380  1.00  0.00     0.126 C 
ENDROOT
BRANCH   9  12
HETATM   12  C5  UNL     1      13.832  15.027  19.590  1.00  0.00     0.037 C 
BRANCH  12  13
HETATM   13  C6  UNL     1      13.768  14.557  18.181  1.00  0.00     0.122 C 
BRANCH  13  14
HETATM   14  O1  UNL     1      14.979  14.490  17.545  1.00  0.00    -0.395 OA
ATOM     15  H1  UNL     1      15.187  13.640  17.177  1.00  0.00     0.210 HD
ENDBRANCH  13  14
BRANCH  13  16
HETATM   16  C7  UNL     1      12.870  15.448  17.328  1.00  0.00     0.014 A 
HETATM   17  C8  UNL     1      12.222  14.761  16.151  1.00  0.00     0.007 A 
HETATM   18  C9  UNL     1      13.302  15.750  15.927  1.00  0.00     0.007 A 
ENDBRANCH  13  16
ENDBRANCH  12  13
ENDBRANCH   9  12
TORSDOF 4
ENDMDL
MODEL 4
REMARK VINA RESULT: -6.051750436      3.011      3.902
REMARK  4 active torsions:
REMARK  status: ('A' for Active; 'I' for Inactive)
REMARK       I    between atoms: C1_4  and  N3_6 
REMARK    1  A    between atoms: C4_9  and  C5_10 
REMARK    2  A    between atoms: C5_10  and  C6_11 
REMARK    3  A    between atoms: C6_11  and  O1_12 
REMARK    4  A    between atoms: C6_11  and  C7_14 
ROOT
HETATM    1  N1  UNL     1      13.692  15.988  24.695  1.00  0.00    -0.374 N 
ATOM      2  H11 UNL     1      14.541  15.431  24.598  1.00  0.00     0.158 HD
ATOM      3  H12 UNL     1      13.199  16.022  25.587  1.00  0.00     0.158 HD
HETATM    4  C1  UNL     1      13.263  16.638  23.678  1.00  0.00     0.183 C 
HETATM    5  N2  UNL     1      12.081  17.414  23.814  1.00  0.00    -0.064 NA
HETATM    6  N3  UNL     1      13.952  16.589  22.431  1.00  0.00    -0.356 N 
HETATM    7  C2  UNL     1      13.154  16.428  21.232  1.00  0.00     0.126 C 
HETATM    8  C3  UNL     1      13.767  17.282  20.136  1.00  0.00     0.024 C 
HETATM    9  C4  UNL     1      15.205  17.008  19.937  1.00  0.00    -0.009 C 
HETATM   10  C10 UNL     1      15.999  17.301  21.217  1.00  0.00     0.024 C 
HETATM   11  C11 UNL     1      15.365  16.697  22.419  1.00  0.00     0.126 C 
ENDROOT
BRANCH   9  12
HETATM   12  C5  UNL     1      15.511  15.640  19.433  1.00  0.00     0.037 C 
BRANCH  12  13
HETATM   13  C6  UNL     1      14.483  14.991  18.578  1.00  0.00     0.122 C 
BRANCH  13  14
HETATM   14  O1  UNL     1      14.534  13.622  18.561  1.00  0.00    -0.395 OA
ATOM     15  H1  UNL     1      14.677  13.241  17.703  1.00  0.00     0.210 HD
ENDBRANCH  13  14
BRANCH  13  16
HETATM   16  C7  UNL     1      14.579  15.454  17.127  1.00  0.00     0.014 A 
HETATM   17  C8  UNL     1      13.693  16.622  16.770  1.00  0.00     0.007 A 
HETATM   18  C9  UNL     1      13.382  15.271  16.248  1.00  0.00     0.007 A 
ENDBRANCH  13  16
ENDBRANCH  12  13
ENDBRANCH   9  12
TORSDOF 4
ENDMDL
MODEL 5
REMARK VINA RESULT: -5.980800952      2.291      3.381
REMARK  4 active torsions:
REMARK  status: ('A' for Active; 'I' for Inactive)
REMARK       I    between atoms: C1_4  and  N3_6 
REMARK    1  A    between atoms: C4_9  and  C5_10 
REMARK    2  A    between atoms: C5_10  and  C6_11 
REMARK    3  A    between atoms: C6_11  and  O1_12 
REMARK    4  A    between atoms: C6_11  and  C7_14 
ROOT
HETATM    1  N1  UNL     1      16.267  18.066  23.945  1.00  0.00    -0.374 N 
ATOM      2  H11 UNL     1      15.395  18.350  23.498  1.00  0.00     0.158 HD
ATOM      3  H12 UNL     1      16.374  18.140  24.956  1.00  0.00     0.158 HD
HETATM    4  C1  UNL     1      17.216  17.619  23.211  1.00  0.00     0.183 C 
HETATM    5  N2  UNL     1      18.431  17.224  23.832  1.00  0.00    -0.064 NA
HETATM    6  N3  UNL     1      17.065  17.517  21.796  1.00  0.00    -0.356 N 
HETATM    7  C2  UNL     1      18.173  17.961  20.972  1.00  0.00     0.126 C 
HETATM    8  C3  UNL     1      18.295  17.014  19.791  1.00  0.00     0.024 C 
HETATM    9  C4  UNL     1      17.025  16.858  19.053  1.00  0.00    -0.009 C 
HETATM   10  C10 UNL     1      15.931  16.285  19.962  1.00  0.00     0.024 C 
HETATM   11  C11 UNL     1      15.859  16.996  21.267  1.00  0.00     0.126 C 
ENDROOT
BRANCH   9  12
HETATM   12  C5  UNL     1      16.547  18.094  18.373  1.00  0.00     0.037 C 
BRANCH  12  13
HETATM   13  C6  UNL     1      15.948  17.932  17.022  1.00  0.00     0.122 C 
BRANCH  13  14
HETATM   14  O1  UNL     1      16.371  18.847  16.095  1.00  0.00    -0.395 OA
ATOM     15  H1  UNL     1      15.773  18.982  15.369  1.00  0.00     0.210 HD
ENDBRANCH  13  14
BRANCH  13  16
HETATM   16  C7  UNL     1      14.425  18.019  17.065  1.00  0.00     0.014 A 
HETATM   17  C8  UNL     1      13.703  16.739  16.723  1.00  0.00     0.007 A 
HETATM   18  C9  UNL     1      13.674  17.880  15.778  1.00  0.00     0.007 A 
ENDBRANCH  13  16
ENDBRANCH  12  13
ENDBRANCH   9  12
TORSDOF 4
ENDMDL
