MODEL 1
REMARK VINA RESULT: -6.609117910      0.000      0.000
REMARK  5 active torsions:
REMARK  status: ('A' for Active; 'I' for Inactive)
REMARK    1  A    between atoms: C2_2  and  O1_3 
REMARK    2  A    between atoms: C7_9  and  C8_10 
REMARK    3  A    between atoms: C9_11  and  C10_12 
REMARK    4  A    between atoms: C10_12  and  N1_13 
REMARK    5  A    between atoms: C10_12  and  C11_17 
ROOT
HETATM    1  C8  UNL     1      14.738  16.362  20.219  1.00  0.00    -0.017 C 
HETATM    2  C9  UNL     1      13.945  16.152  21.260  1.00  0.00     0.013 C 
ENDROOT
BRANCH   1   3
HETATM    3  C7  UNL     1      14.809  15.471  19.047  1.00  0.00     0.064 C 
HETATM    4  C2  UNL     1      14.801  16.231  17.741  1.00  0.00     0.065 C 
HETATM    5  C1  UNL     1      15.580  17.504  17.809  1.00  0.00     0.047 C 
HETATM    6  C3  UNL     1      13.344  16.525  17.352  1.00  0.00     0.042 C 
HETATM    7  C4  UNL     1      12.726  15.185  17.014  1.00  0.00     0.030 C 
HETATM    8  C5  UNL     1      12.749  14.353  18.230  1.00  0.00    -0.030 C 
HETATM    9  C6  UNL     1      13.696  14.497  19.135  1.00  0.00    -0.019 C 
BRANCH   4  10
HETATM   10  O1  UNL     1      15.304  15.445  16.704  1.00  0.00    -0.389 OA
ATOM     11  H1  UNL     1      15.503  14.579  17.041  1.00  0.00     0.210 HD
ENDBRANCH   4  10
ENDBRANCH   1   3
BRANCH   2  12
HETATM   12  C10 UNL     1      13.890  17.066  22.433  1.00  0.00     0.306 C 
BRANCH  12  13
HETATM   13  N1  UNL     1      15.215  17.035  23.070  1.00  0.00    -0.062 N 
ATOM     14  H13 UNL     1      15.852  17.741  22.701  1.00  0.00     0.275 HD
ATOM     15  H12 UNL     1      15.202  17.363  24.036  1.00  0.00     0.275 HD
ATOM     16  H11 UNL     1      15.573  16.084  22.975  1.00  0.00     0.275 HD
ENDBRANCH  12  13
BRANCH  12  17
HETATM   17  C11 UNL     1      12.883  16.668  23.421  1.00  0.00     0.208 C 
HETATM   18  O2  UNL     1      13.053  15.609  24.075  1.00  0.00    -0.646 OA
HETATM   19  O3  UNL     1      11.741  17.409  23.675  1.00  0.00    -0.646 OA
ENDBRANCH  12  17
ENDBRANCH   2  12
TORSDOF 5
ENDMDL
MODEL 2
REMARK VINA RESULT: -6.514766432      3.011      4.556
REMARK  5 active torsions:
REMARK  status: ('A' for Active; 'I' for Inactive)
REMARK    1  A    between atoms: C2_2  and  O1_3 
REMARK    2  A    between atoms: C7_9  and  C8_10 
REMARK    3  A    between atoms: C9_11  and  C10_12 
REMARK    4  A    between atoms: C10_12  and  N1_13 
REMARK    5  A    between atoms: C10_12  and  C11_17 
ROOT
HETATM    1  C8  UNL     1      15.616  16.540  19.831  1.00  0.00    -0.017 C 
HETATM    2  C9  UNL     1      16.722  17.268  19.776  1.00  0.00     0.013 C 
ENDROOT
BRANCH   1   3
HETATM    3  C7  UNL     1      14.386  16.854  19.083  1.00  0.00     0.064 C 
HETATM    4  C2  UNL     1      13.770  15.632  18.442  1.00  0.00     0.065 C 
HETATM    5  C1  UNL     1      13.879  14.412  19.300  1.00  0.00     0.047 C 
HETATM    6  C3  UNL     1      14.456  15.387  17.090  1.00  0.00     0.042 C 
HETATM    7  C4  UNL     1      14.036  16.535  16.198  1.00  0.00     0.030 C 
HETATM    8  C5  UNL     1      14.549  17.783  16.788  1.00  0.00    -0.030 C 
HETATM    9  C6  UNL     1      14.700  17.908  18.092  1.00  0.00    -0.019 C 
BRANCH   4  10
HETATM   10  O1  UNL     1      12.427  15.853  18.136  1.00  0.00    -0.389 OA
ATOM     11  H1  UNL     1      12.372  16.475  17.421  1.00  0.00     0.210 HD
ENDBRANCH   4  10
ENDBRANCH   1   3
BRANCH   2  12
HETATM   12  C10 UNL     1      17.953  16.932  20.541  1.00  0.00     0.306 C 
BRANCH  12  13
HETATM   13  N1  UNL     1      17.702  17.288  21.945  1.00  0.00    -0.062 N 
ATOM     14  H13 UNL     1      17.788  18.288  22.126  1.00  0.00     0.275 HD
ATOM     15  H12 UNL     1      16.723  17.189  22.214  1.00  0.00     0.275 HD
ATOM     16  H11 UNL     1      18.332  16.723  22.516  1.00  0.00     0.275 HD
ENDBRANCH  12  13
BRANCH  12  17
HETATM   17  C11 UNL     1      19.134  17.663  20.073  1.00  0.00     0.208 C 
HETATM   18  O2  UNL     1      18.998  18.836  19.645  1.00  0.00    -0.646 OA
HETATM   19  O3  UNL     1      20.409  17.120  20.079  1.00  0.00    -0.646 OA
ENDBRANCH  12  17
ENDBRANCH   2  12
TORSDOF 5
ENDMDL
MODEL 3
REMARK VINA RESULT: -6.361050702      2.853      3.702
REMARK  5 active torsions:
REMARK  status: ('A' for Active; 'I' for Inactive)
REMARK    1  A    between atoms: C2_2  and  O1_3 
REMARK    2  A    between atoms: C7_9  and  C8_10 
REMARK    3  A    between atoms: C9_11  and  C10_12 
REMARK    4  A    between atoms: C10_12  and  N1_13 
REMARK    5  A    between atoms: C10_12  and  C11_17 
ROOT
HETATM    1  C8  UNL     1      15.527  16.512  20.544  1.00  0.00    -0.017 C 
HETATM    2  C9  UNL     1      15.796  17.232  21.624  1.00  0.00     0.013 C 
ENDROOT
BRANCH   1   3
HETATM    3  C7  UNL     1      14.564  16.917  19.505  1.00  0.00     0.064 C 
HETATM    4  C2  UNL     1      13.906  15.734  18.834  1.00  0.00     0.065 C 
HETATM    5  C1  UNL     1      13.614  14.618  19.786  1.00  0.00     0.047 C 
HETATM    6  C3  UNL     1      14.821  15.236  17.705  1.00  0.00     0.042 C 
HETATM    7  C4  UNL     1      14.809  16.324  16.653  1.00  0.00     0.030 C 
HETATM    8  C5  UNL     1      15.385  17.541  17.248  1.00  0.00    -0.030 C 
HETATM    9  C6  UNL     1      15.264  17.792  18.537  1.00  0.00    -0.019 C 
BRANCH   4  10
HETATM   10  O1  UNL     1      12.721  16.115  18.204  1.00  0.00    -0.389 OA
ATOM     11  H1  UNL     1      12.359  16.868  18.655  1.00  0.00     0.210 HD
ENDBRANCH   4  10
ENDBRANCH   1   3
BRANCH   2  12
HETATM   12  C10 UNL     1      16.773  16.803  22.661  1.00  0.00     0.306 C 
BRANCH  12  13
HETATM   13  N1  UNL     1      16.164  17.078  23.971  1.00  0.00    -0.062 N 
ATOM     14  H13 UNL     1      16.123  18.073  24.192  1.00  0.00     0.275 HD
ATOM     15  H12 UNL     1      15.160  16.897  23.991  1.00  0.00     0.275 HD
ATOM     16  H11 UNL     1      16.682  16.535  24.663  1.00  0.00     0.275 HD
ENDBRANCH  12  13
BRANCH  12  17
HETATM   17  C11 UNL     1      18.049  17.519  22.575  1.00  0.00     0.208 C 
HETATM   18  O2  UNL     1      18.573  17.963  23.627  1.00  0.00    -0.646 OA
HETATM   19  O3  UNL     1      18.717  17.732  21.380  1.00  0.00    -0.646 OA
ENDBRANCH  12  17
ENDBRANCH   2  12
TORSDOF 5
ENDMDL
MODEL 4
REMARK VINA RESULT: -6.340847285      1.355      1.962
REMARK  5 active torsions:
REMARK  status: ('A' for Active; 'I' for Inactive)
REMARK    1  A    between atoms: C2_2  and  O1_3 
REMARK    2  A    between atoms: C7_9  and  C8_10 
REMARK    3  A    between atoms: C9_11  and  C10_12 
REMARK    4  A    between atoms: C10_12  and  N1_13 
REMARK    5  A    between atoms: C10_12  and  C11_17 
ROOT
HETATM    1  C8  UNL     1      15.630  16.871  21.166  1.00  0.00    -0.017 C 
HETATM    2  C9  UNL     1      14.594  16.542  21.923  1.00  0.00     0.013 C 
ENDROOT
BRANCH   1   3
HETATM    3  C7  UNL     1      15.932  16.246  19.866  1.00  0.00     0.064 C 
HETATM    4  C2  UNL     1      16.768  17.135  18.976  1.00  0.00     0.065 C 
HETATM    5  C1  UNL     1      17.799  17.907  19.735  1.00  0.00     0.047 C 
HETATM    6  C3  UNL     1      15.836  18.098  18.227  1.00  0.00     0.042 C 
HETATM    7  C4  UNL     1      15.040  17.242  17.266  1.00  0.00     0.030 C 
HETATM    8  C5  UNL     1      14.234  16.297  18.057  1.00  0.00    -0.030 C 
HETATM    9  C6  UNL     1      14.652  15.859  19.228  1.00  0.00    -0.019 C 
BRANCH   4  10
HETATM   10  O1  UNL     1      17.401  16.390  17.980  1.00  0.00    -0.389 OA
ATOM     11  H1  UNL     1      18.333  16.569  18.006  1.00  0.00     0.210 HD
ENDBRANCH   4  10
ENDBRANCH   1   3
BRANCH   2  12
HETATM   12  C10 UNL     1      14.309  17.187  23.233  1.00  0.00     0.306 C 
BRANCH  12  13
HETATM   13  N1  UNL     1      15.448  16.896  24.117  1.00  0.00    -0.062 N 
ATOM     14  H13 UNL     1      16.349  16.973  23.646  1.00  0.00     0.275 HD
ATOM     15  H12 UNL     1      15.604  17.620  24.818  1.00  0.00     0.275 HD
ATOM     16  H11 UNL     1      15.286  15.975  24.523  1.00  0.00     0.275 HD
ENDBRANCH  12  13
BRANCH  12  17
HETATM   17  C11 UNL     1      13.084  16.687  23.862  1.00  0.00     0.208 C 
HETATM   18  O2  UNL     1      13.099  15.563  24.424  1.00  0.00    -0.646 OA
HETATM   19  O3  UNL     1      11.895  17.399  23.872  1.00  0.00    -0.646 OA
ENDBRANCH  12  17
ENDBRANCH   2  12
TORSDOF 5
ENDMDL
MODEL 5
REMARK VINA RESULT: -6.297023314      3.542      5.049
REMARK  5 active torsions:
REMARK  status: ('A' for Active; 'I' for Inactive)
REMARK    1  A    between atoms: C2_2  and  O1_3 
REMARK    2  A    between atoms: C7_9  and  C8_10 
REMARK    3  A    between atoms: C9_11  and  C10_12 
REMARK    4  A    between atoms: C10_12  and  N1_13 
REMARK    5  A    between atoms: C10_12  and  C11_17 
ROOT
HETATM    1  C8  UNL     1      16.175  17.282  18.932  1.00  0.00    -0.017 C 
HETATM    2  C9  UNL     1      17.422  17.689  19.119  1.00  0.00     0.013 C 
ENDROOT
BRANCH   1   3
HETATM    3  C7  UNL     1      15.265  17.856  17.925  1.00  0.00     0.064 C 
HETATM    4  C2  UNL     1      14.218  16.870  17.462  1.00  0.00     0.065 C 
HETATM    5  C1  UNL     1      13.718  15.996  18.567  1.00  0.00     0.047 C 
HETATM    6  C3  UNL     1      14.816  16.008  16.340  1.00  0.00     0.042 C 
HETATM    7  C4  UNL     1      15.009  16.937  15.161  1.00  0.00     0.030 C 
HETATM    8  C5  UNL     1      15.979  17.974  15.552  1.00  0.00    -0.030 C 
HETATM    9  C6  UNL     1      16.080  18.375  16.803  1.00  0.00    -0.019 C 
BRANCH   4  10
HETATM   10  O1  UNL     1      13.135  17.530  16.879  1.00  0.00    -0.389 OA
ATOM     11  H1  UNL     1      12.745  16.964  16.224  1.00  0.00     0.210 HD
ENDBRANCH   4  10
ENDBRANCH   1   3
BRANCH   2  12
HETATM   12  C10 UNL     1      18.324  17.094  20.142  1.00  0.00     0.306 C 
BRANCH  12  13
HETATM   13  N1  UNL     1      17.792  17.470  21.461  1.00  0.00    -0.062 N 
ATOM     14  H13 UNL     1      17.103  16.808  21.818  1.00  0.00     0.275 HD
ATOM     15  H12 UNL     1      18.475  17.367  22.211  1.00  0.00     0.275 HD
ATOM     16  H11 UNL     1      17.429  18.420  21.379  1.00  0.00     0.275 HD
ENDBRANCH  12  13
BRANCH  12  17
HETATM   17  C11 UNL     1      19.704  17.575  20.037  1.00  0.00     0.208 C 
HETATM   18  O2  UNL     1      19.916  18.807  19.915  1.00  0.00    -0.646 OA
HETATM   19  O3  UNL     1      20.802  16.730  20.065  1.00  0.00    -0.646 OA
ENDBRANCH  12  17
ENDBRANCH   2  12
TORSDOF 5
ENDMDL
