MODEL 1
REMARK VINA RESULT: -6.501461461      0.000      0.000
REMARK  6 active torsions:
REMARK  status: ('A' for Active; 'I' for Inactive)
REMARK       I    between atoms: N1_2  and  C2_4 
REMARK    1  A    between atoms: C2_4  and  C3_6 
REMARK    2  A    between atoms: C3_6  and  N2_7 
REMARK       I    between atoms: N2_7  and  C4_9 
REMARK       I    between atoms: C4_9  and  N3_11 
REMARK    3  A    between atoms: N3_11  and  N4_13 
REMARK    4  A    between atoms: N4_13  and  C5_15 
REMARK    5  A    between atoms: C5_15  and  C6_17 
REMARK    6  A    between atoms: C6_17  and  N5_18 
REMARK       I    between atoms: N5_18  and  C7_20 
ROOT
HETATM    1  N2  UNL     1      58.544  18.386  42.678  1.00  0.00    -0.333 N 
ATOM      2  H2  UNL     1      59.382  18.065  42.192  1.00  0.00     0.164 HD
HETATM    3  C4  UNL     1      57.318  18.355  41.971  1.00  0.00     0.335 C 
HETATM    4  O2  UNL     1      56.263  18.743  42.575  1.00  0.00    -0.246 OA
HETATM    5  N3  UNL     1      57.237  17.913  40.634  1.00  0.00    -0.251 N 
ATOM      6  H3  UNL     1      58.075  17.603  40.143  1.00  0.00     0.191 HD
ENDROOT
BRANCH   5   7
HETATM    7  N4  UNL     1      55.984  17.904  39.982  1.00  0.00    -0.289 N 
ATOM      8  H4  UNL     1      55.504  18.786  39.799  1.00  0.00     0.188 HD
BRANCH   7   9
HETATM    9  C5  UNL     1      55.389  16.691  39.583  1.00  0.00     0.110 C 
HETATM   10  S1  UNL     1      54.138  16.711  38.560  1.00  0.00    -0.062 SA
BRANCH   9  11
HETATM   11  C6  UNL     1      55.909  15.424  40.118  1.00  0.00     0.193 C 
BRANCH  11  12
HETATM   12  N5  UNL     1      55.288  14.990  41.345  1.00  0.00    -0.355 N 
HETATM   13  C7  UNL     1      55.995  15.006  42.567  1.00  0.00     0.213 C 
HETATM   14  C8  UNL     1      55.282  14.534  43.796  1.00  0.00     0.117 C 
HETATM   15  O3  UNL     1      57.173  15.377  42.731  1.00  0.00    -0.274 OA
ATOM     16  H5  UNL     1      54.321  14.666  41.331  1.00  0.00     0.162 HD
ENDBRANCH  11  12
ENDBRANCH   9  11
ENDBRANCH   7   9
ENDBRANCH   5   7
BRANCH   1  17
HETATM   17  C3  UNL     1      58.687  18.836  44.026  1.00  0.00     0.227 C 
BRANCH  17  18
HETATM   18  C2  UNL     1      58.404  17.771  44.996  1.00  0.00     0.234 C 
HETATM   19  N1  UNL     1      57.147  17.198  45.274  1.00  0.00    -0.364 N 
HETATM   20  C1  UNL     1      57.061  16.135  46.271  1.00  0.00     0.149 C 
ATOM     21  H1  UNL     1      56.311  17.521  44.787  1.00  0.00     0.161 HD
HETATM   22  O1  UNL     1      59.421  17.343  45.644  1.00  0.00    -0.272 OA
ENDBRANCH  17  18
ENDBRANCH   1  17
TORSDOF 6
ENDMDL
MODEL 2
REMARK VINA RESULT: -6.300975206      2.839      5.525
REMARK  6 active torsions:
REMARK  status: ('A' for Active; 'I' for Inactive)
REMARK       I    between atoms: N1_2  and  C2_4 
REMARK    1  A    between atoms: C2_4  and  C3_6 
REMARK    2  A    between atoms: C3_6  and  N2_7 
REMARK       I    between atoms: N2_7  and  C4_9 
REMARK       I    between atoms: C4_9  and  N3_11 
REMARK    3  A    between atoms: N3_11  and  N4_13 
REMARK    4  A    between atoms: N4_13  and  C5_15 
REMARK    5  A    between atoms: C5_15  and  C6_17 
REMARK    6  A    between atoms: C6_17  and  N5_18 
REMARK       I    between atoms: N5_18  and  C7_20 
ROOT
HETATM    1  N2  UNL     1      56.654  16.069  40.616  1.00  0.00    -0.333 N 
ATOM      2  H2  UNL     1      57.536  15.780  40.192  1.00  0.00     0.164 HD
HETATM    3  C4  UNL     1      56.703  17.040  41.645  1.00  0.00     0.335 C 
HETATM    4  O2  UNL     1      55.603  17.416  42.172  1.00  0.00    -0.246 OA
HETATM    5  N3  UNL     1      57.920  17.592  42.095  1.00  0.00    -0.251 N 
ATOM      6  H3  UNL     1      58.804  17.296  41.680  1.00  0.00     0.191 HD
ENDROOT
BRANCH   5   7
HETATM    7  N4  UNL     1      57.904  18.559  43.124  1.00  0.00    -0.289 N 
ATOM      8  H4  UNL     1      57.569  19.502  42.926  1.00  0.00     0.188 HD
BRANCH   7   9
HETATM    9  C5  UNL     1      58.346  18.235  44.423  1.00  0.00     0.110 C 
HETATM   10  S1  UNL     1      59.928  18.087  44.716  1.00  0.00    -0.062 SA
BRANCH   9  11
HETATM   11  C6  UNL     1      57.355  18.021  45.487  1.00  0.00     0.193 C 
BRANCH  11  12
HETATM   12  N5  UNL     1      56.197  17.260  45.086  1.00  0.00    -0.355 N 
HETATM   13  C7  UNL     1      56.199  15.849  45.130  1.00  0.00     0.213 C 
HETATM   14  C8  UNL     1      54.960  15.132  44.692  1.00  0.00     0.117 C 
HETATM   15  O3  UNL     1      57.144  15.125  45.500  1.00  0.00    -0.274 OA
ATOM     16  H5  UNL     1      55.361  17.750  44.766  1.00  0.00     0.162 HD
ENDBRANCH  11  12
ENDBRANCH   9  11
ENDBRANCH   7   9
ENDBRANCH   5   7
BRANCH   1  17
HETATM   17  C3  UNL     1      55.453  15.467  40.132  1.00  0.00     0.227 C 
BRANCH  17  18
HETATM   18  C2  UNL     1      54.784  16.301  39.125  1.00  0.00     0.234 C 
HETATM   19  N1  UNL     1      53.515  16.077  38.556  1.00  0.00    -0.364 N 
HETATM   20  C1  UNL     1      53.006  17.027  37.571  1.00  0.00     0.149 C 
ATOM     21  H1  UNL     1      52.961  15.265  38.827  1.00  0.00     0.161 HD
HETATM   22  O1  UNL     1      55.448  17.326  38.743  1.00  0.00    -0.272 OA
ENDBRANCH  17  18
ENDBRANCH   1  17
TORSDOF 6
ENDMDL
MODEL 3
REMARK VINA RESULT: -6.291156988      3.089      5.808
REMARK  6 active torsions:
REMARK  status: ('A' for Active; 'I' for Inactive)
REMARK       I    between atoms: N1_2  and  C2_4 
REMARK    1  A    between atoms: C2_4  and  C3_6 
REMARK    2  A    between atoms: C3_6  and  N2_7 
REMARK       I    between atoms: N2_7  and  C4_9 
REMARK       I    between atoms: C4_9  and  N3_11 
REMARK    3  A    between atoms: N3_11  and  N4_13 
REMARK    4  A    between atoms: N4_13  and  C5_15 
REMARK    5  A    between atoms: C5_15  and  C6_17 
REMARK    6  A    between atoms: C6_17  and  N5_18 
REMARK       I    between atoms: N5_18  and  C7_20 
ROOT
HETATM    1  N2  UNL     1      55.267  18.277  39.952  1.00  0.00    -0.333 N 
ATOM      2  H2  UNL     1      55.802  18.922  39.370  1.00  0.00     0.164 HD
HETATM    3  C4  UNL     1      55.941  17.638  41.021  1.00  0.00     0.335 C 
HETATM    4  O2  UNL     1      55.277  16.840  41.762  1.00  0.00    -0.246 OA
HETATM    5  N3  UNL     1      57.310  17.861  41.281  1.00  0.00    -0.251 N 
ATOM      6  H3  UNL     1      57.849  18.496  40.693  1.00  0.00     0.191 HD
ENDROOT
BRANCH   5   7
HETATM    7  N4  UNL     1      57.926  17.195  42.363  1.00  0.00    -0.289 N 
ATOM      8  H4  UNL     1      58.156  16.205  42.282  1.00  0.00     0.188 HD
BRANCH   7   9
HETATM    9  C5  UNL     1      58.229  17.885  43.554  1.00  0.00     0.110 C 
HETATM   10  S1  UNL     1      59.676  18.582  43.730  1.00  0.00    -0.062 SA
BRANCH   9  11
HETATM   11  C6  UNL     1      57.224  17.945  44.626  1.00  0.00     0.193 C 
BRANCH  11  12
HETATM   12  N5  UNL     1      56.090  17.073  44.436  1.00  0.00    -0.355 N 
HETATM   13  C7  UNL     1      56.094  15.751  44.931  1.00  0.00     0.213 C 
HETATM   14  C8  UNL     1      54.881  14.909  44.688  1.00  0.00     0.117 C 
HETATM   15  O3  UNL     1      57.020  15.202  45.559  1.00  0.00    -0.274 OA
ATOM     16  H5  UNL     1      55.271  17.419  43.936  1.00  0.00     0.162 HD
ENDBRANCH  11  12
ENDBRANCH   9  11
ENDBRANCH   7   9
ENDBRANCH   5   7
BRANCH   1  17
HETATM   17  C3  UNL     1      53.889  18.079  39.635  1.00  0.00     0.227 C 
BRANCH  17  18
HETATM   18  C2  UNL     1      53.712  17.360  38.367  1.00  0.00     0.234 C 
HETATM   19  N1  UNL     1      52.676  17.547  37.432  1.00  0.00    -0.364 N 
HETATM   20  C1  UNL     1      52.670  16.742  36.214  1.00  0.00     0.149 C 
ATOM     21  H1  UNL     1      51.941  18.234  37.602  1.00  0.00     0.161 HD
HETATM   22  O1  UNL     1      54.603  16.476  38.116  1.00  0.00    -0.272 OA
ENDBRANCH  17  18
ENDBRANCH   1  17
TORSDOF 6
ENDMDL
MODEL 4
REMARK VINA RESULT: -6.286632470      1.141      1.497
REMARK  6 active torsions:
REMARK  status: ('A' for Active; 'I' for Inactive)
REMARK       I    between atoms: N1_2  and  C2_4 
REMARK    1  A    between atoms: C2_4  and  C3_6 
REMARK    2  A    between atoms: C3_6  and  N2_7 
REMARK       I    between atoms: N2_7  and  C4_9 
REMARK       I    between atoms: C4_9  and  N3_11 
REMARK    3  A    between atoms: N3_11  and  N4_13 
REMARK    4  A    between atoms: N4_13  and  C5_15 
REMARK    5  A    between atoms: C5_15  and  C6_17 
REMARK    6  A    between atoms: C6_17  and  N5_18 
REMARK       I    between atoms: N5_18  and  C7_20 
ROOT
HETATM    1  N2  UNL     1      58.078  18.300  42.669  1.00  0.00    -0.333 N 
ATOM      2  H2  UNL     1      58.987  18.000  42.315  1.00  0.00     0.164 HD
HETATM    3  C4  UNL     1      56.976  18.257  41.782  1.00  0.00     0.335 C 
HETATM    4  O2  UNL     1      55.834  18.618  42.220  1.00  0.00    -0.246 OA
HETATM    5  N3  UNL     1      57.109  17.829  40.444  1.00  0.00    -0.251 N 
ATOM      6  H3  UNL     1      58.018  17.539  40.085  1.00  0.00     0.191 HD
ENDROOT
BRANCH   5   7
HETATM    7  N4  UNL     1      55.972  17.806  39.608  1.00  0.00    -0.289 N 
ATOM      8  H4  UNL     1      55.680  18.658  39.130  1.00  0.00     0.188 HD
BRANCH   7   9
HETATM    9  C5  UNL     1      55.236  16.618  39.426  1.00  0.00     0.110 C 
HETATM   10  S1  UNL     1      53.884  16.641  38.541  1.00  0.00    -0.062 SA
BRANCH   9  11
HETATM   11  C6  UNL     1      55.704  15.377  40.061  1.00  0.00     0.193 C 
BRANCH  11  12
HETATM   12  N5  UNL     1      55.149  15.124  41.368  1.00  0.00    -0.355 N 
HETATM   13  C7  UNL     1      55.970  15.088  42.516  1.00  0.00     0.213 C 
HETATM   14  C8  UNL     1      55.319  14.814  43.835  1.00  0.00     0.117 C 
HETATM   15  O3  UNL     1      57.204  15.262  42.545  1.00  0.00    -0.274 OA
ATOM     16  H5  UNL     1      54.145  14.969  41.465  1.00  0.00     0.162 HD
ENDBRANCH  11  12
ENDBRANCH   9  11
ENDBRANCH   7   9
ENDBRANCH   5   7
BRANCH   1  17
HETATM   17  C3  UNL     1      58.004  18.737  44.027  1.00  0.00     0.227 C 
BRANCH  17  18
HETATM   18  C2  UNL     1      59.092  18.186  44.844  1.00  0.00     0.234 C 
HETATM   19  N1  UNL     1      60.457  18.527  44.768  1.00  0.00    -0.364 N 
HETATM   20  C1  UNL     1      61.398  17.878  45.675  1.00  0.00     0.149 C 
ATOM     21  H1  UNL     1      60.782  19.216  44.089  1.00  0.00     0.161 HD
HETATM   22  O1  UNL     1      58.734  17.306  45.701  1.00  0.00    -0.272 OA
ENDBRANCH  17  18
ENDBRANCH   1  17
TORSDOF 6
ENDMDL
MODEL 5
REMARK VINA RESULT: -5.979568353      2.929      5.590
REMARK  6 active torsions:
REMARK  status: ('A' for Active; 'I' for Inactive)
REMARK       I    between atoms: N1_2  and  C2_4 
REMARK    1  A    between atoms: C2_4  and  C3_6 
REMARK    2  A    between atoms: C3_6  and  N2_7 
REMARK       I    between atoms: N2_7  and  C4_9 
REMARK       I    between atoms: C4_9  and  N3_11 
REMARK    3  A    between atoms: N3_11  and  N4_13 
REMARK    4  A    between atoms: N4_13  and  C5_15 
REMARK    5  A    between atoms: C5_15  and  C6_17 
REMARK    6  A    between atoms: C6_17  and  N5_18 
REMARK       I    between atoms: N5_18  and  C7_20 
ROOT
HETATM    1  N2  UNL     1      57.106  16.439  40.329  1.00  0.00    -0.333 N 
ATOM      2  H2  UNL     1      57.528  17.259  39.895  1.00  0.00     0.164 HD
HETATM    3  C4  UNL     1      57.442  16.157  41.676  1.00  0.00     0.335 C 
HETATM    4  O2  UNL     1      56.908  15.140  42.231  1.00  0.00    -0.246 OA
HETATM    5  N3  UNL     1      58.339  16.964  42.406  1.00  0.00    -0.251 N 
ATOM      6  H3  UNL     1      58.771  17.778  41.970  1.00  0.00     0.191 HD
ENDROOT
BRANCH   5   7
HETATM    7  N4  UNL     1      58.634  16.633  43.747  1.00  0.00    -0.289 N 
ATOM      8  H4  UNL     1      58.790  15.658  44.003  1.00  0.00     0.188 HD
BRANCH   7   9
HETATM    9  C5  UNL     1      58.714  17.635  44.735  1.00  0.00     0.110 C 
HETATM   10  S1  UNL     1      60.104  18.429  44.959  1.00  0.00    -0.062 SA
BRANCH   9  11
HETATM   11  C6  UNL     1      57.532  17.931  45.557  1.00  0.00     0.193 C 
BRANCH  11  12
HETATM   12  N5  UNL     1      56.272  17.582  44.947  1.00  0.00    -0.355 N 
HETATM   13  C7  UNL     1      55.736  16.282  45.068  1.00  0.00     0.213 C 
HETATM   14  C8  UNL     1      54.426  15.999  44.401  1.00  0.00     0.117 C 
HETATM   15  O3  UNL     1      56.250  15.328  45.684  1.00  0.00    -0.274 OA
ATOM     16  H5  UNL     1      55.759  18.288  44.418  1.00  0.00     0.162 HD
ENDBRANCH  11  12
ENDBRANCH   9  11
ENDBRANCH   7   9
ENDBRANCH   5   7
BRANCH   1  17
HETATM   17  C3  UNL     1      56.215  15.649  39.539  1.00  0.00     0.227 C 
BRANCH  17  18
HETATM   18  C2  UNL     1      54.976  16.369  39.220  1.00  0.00     0.234 C 
HETATM   19  N1  UNL     1      54.769  17.761  39.292  1.00  0.00    -0.364 N 
HETATM   20  C1  UNL     1      53.463  18.300  38.923  1.00  0.00     0.149 C 
ATOM     21  H1  UNL     1      55.518  18.382  39.598  1.00  0.00     0.161 HD
HETATM   22  O1  UNL     1      54.001  15.630  38.845  1.00  0.00    -0.272 OA
ENDBRANCH  17  18
ENDBRANCH   1  17
TORSDOF 6
ENDMDL
