MODEL 1
REMARK VINA RESULT: -6.689650429      0.000      0.000
REMARK  5 active torsions:
REMARK  status: ('A' for Active; 'I' for Inactive)
REMARK       I    between atoms: C1_4  and  N3_6 
REMARK       I    between atoms: N4_9  and  C4_10 
REMARK    1  A    between atoms: C4_10  and  C5_12 
REMARK    2  A    between atoms: C5_12  and  C6_13 
REMARK    3  A    between atoms: N5_14  and  C7_16 
REMARK    4  A    between atoms: C7_16  and  N6_18 
REMARK    5  A    between atoms: N6_18  and  N7_20 
ROOT
HETATM    1  N1  UNL     1      60.615  17.940  45.194  1.00  0.00    -0.374 N 
ATOM      2  H11 UNL     1      60.834  16.989  44.897  1.00  0.00     0.158 HD
ATOM      3  H12 UNL     1      61.285  18.538  45.677  1.00  0.00     0.158 HD
HETATM    4  C1  UNL     1      59.424  18.377  44.930  1.00  0.00     0.184 C 
HETATM    5  N2  UNL     1      59.118  19.702  45.344  1.00  0.00    -0.064 NA
HETATM    6  N3  UNL     1      58.490  17.544  44.256  1.00  0.00    -0.353 N 
HETATM    7  C2  UNL     1      57.090  17.462  44.624  1.00  0.00     0.145 C 
HETATM    8  C3  UNL     1      56.553  16.075  44.263  1.00  0.00     0.145 C 
HETATM    9  N4  UNL     1      56.709  15.958  42.821  1.00  0.00    -0.349 N 
HETATM   10  C4  UNL     1      55.848  15.158  42.027  1.00  0.00     0.224 C 
HETATM   11  O1  UNL     1      54.925  14.533  42.631  1.00  0.00    -0.273 OA
HETATM   12  C8  UNL     1      57.776  16.674  42.149  1.00  0.00     0.145 C 
HETATM   13  C9  UNL     1      58.937  16.727  43.146  1.00  0.00     0.145 C 
ENDROOT
BRANCH  10  14
HETATM   14  C5  UNL     1      55.975  15.025  40.576  1.00  0.00     0.147 C 
BRANCH  14  15
HETATM   15  C6  UNL     1      54.945  15.791  39.833  1.00  0.00     0.072 C 
HETATM   16  N5  UNL     1      55.043  17.062  39.640  1.00  0.00    -0.345 N 
ATOM     17  H5  UNL     1      55.855  17.556  40.011  1.00  0.00     0.167 HD
BRANCH  16  18
HETATM   18  C7  UNL     1      54.067  17.791  38.935  1.00  0.00     0.189 C 
HETATM   19  S1  UNL     1      53.114  16.959  37.901  1.00  0.00    -0.039 SA
BRANCH  18  20
HETATM   20  N6  UNL     1      53.918  19.176  39.112  1.00  0.00    -0.283 N 
ATOM     21  H6  UNL     1      53.804  19.789  38.305  1.00  0.00     0.188 HD
BRANCH  20  22
HETATM   22  N7  UNL     1      53.927  19.705  40.408  1.00  0.00    -0.343 N 
ATOM     23  H72 UNL     1      53.336  19.283  41.125  1.00  0.00     0.176 HD
ATOM     24  H71 UNL     1      54.525  20.504  40.616  1.00  0.00     0.176 HD
ENDBRANCH  20  22
ENDBRANCH  18  20
ENDBRANCH  16  18
ENDBRANCH  14  15
ENDBRANCH  10  14
TORSDOF 5
ENDMDL
MODEL 2
REMARK VINA RESULT: -6.469761741      1.672      2.170
REMARK  5 active torsions:
REMARK  status: ('A' for Active; 'I' for Inactive)
REMARK       I    between atoms: C1_4  and  N3_6 
REMARK       I    between atoms: N4_9  and  C4_10 
REMARK    1  A    between atoms: C4_10  and  C5_12 
REMARK    2  A    between atoms: C5_12  and  C6_13 
REMARK    3  A    between atoms: N5_14  and  C7_16 
REMARK    4  A    between atoms: C7_16  and  N6_18 
REMARK    5  A    between atoms: N6_18  and  N7_20 
ROOT
HETATM    1  N1  UNL     1      56.812  18.556  45.874  1.00  0.00    -0.374 N 
ATOM      2  H11 UNL     1      56.353  19.067  45.119  1.00  0.00     0.158 HD
ATOM      3  H12 UNL     1      56.910  18.930  46.818  1.00  0.00     0.158 HD
HETATM    4  C1  UNL     1      57.282  17.384  45.587  1.00  0.00     0.184 C 
HETATM    5  N2  UNL     1      57.923  16.672  46.638  1.00  0.00    -0.064 NA
HETATM    6  N3  UNL     1      57.147  16.862  44.272  1.00  0.00    -0.353 N 
HETATM    7  C2  UNL     1      58.206  16.145  43.589  1.00  0.00     0.145 C 
HETATM    8  C3  UNL     1      58.061  16.348  42.079  1.00  0.00     0.145 C 
HETATM    9  N4  UNL     1      56.763  15.790  41.732  1.00  0.00    -0.349 N 
HETATM   10  C4  UNL     1      56.491  15.239  40.454  1.00  0.00     0.224 C 
HETATM   11  O1  UNL     1      57.435  15.256  39.607  1.00  0.00    -0.273 OA
HETATM   12  C8  UNL     1      55.693  15.787  42.710  1.00  0.00     0.145 C 
HETATM   13  C9  UNL     1      55.899  17.045  43.559  1.00  0.00     0.145 C 
ENDROOT
BRANCH  10  14
HETATM   14  C5  UNL     1      55.199  14.666  40.077  1.00  0.00     0.147 C 
BRANCH  14  15
HETATM   15  C6  UNL     1      54.329  15.626  39.355  1.00  0.00     0.072 C 
HETATM   16  N5  UNL     1      54.630  16.875  39.247  1.00  0.00    -0.345 N 
ATOM     17  H5  UNL     1      55.494  17.213  39.671  1.00  0.00     0.167 HD
BRANCH  16  18
HETATM   18  C7  UNL     1      53.806  17.789  38.562  1.00  0.00     0.189 C 
HETATM   19  S1  UNL     1      52.841  17.190  37.387  1.00  0.00    -0.039 SA
BRANCH  18  20
HETATM   20  N6  UNL     1      53.813  19.157  38.875  1.00  0.00    -0.283 N 
ATOM     21  H6  UNL     1      53.775  19.856  38.132  1.00  0.00     0.188 HD
BRANCH  20  22
HETATM   22  N7  UNL     1      53.874  19.552  40.216  1.00  0.00    -0.343 N 
ATOM     23  H72 UNL     1      53.820  18.844  40.949  1.00  0.00     0.176 HD
ATOM     24  H71 UNL     1      53.970  20.543  40.441  1.00  0.00     0.176 HD
ENDBRANCH  20  22
ENDBRANCH  18  20
ENDBRANCH  16  18
ENDBRANCH  14  15
ENDBRANCH  10  14
TORSDOF 5
ENDMDL
MODEL 3
REMARK VINA RESULT: -6.284865781      1.307      1.429
REMARK  5 active torsions:
REMARK  status: ('A' for Active; 'I' for Inactive)
REMARK       I    between atoms: C1_4  and  N3_6 
REMARK       I    between atoms: N4_9  and  C4_10 
REMARK    1  A    between atoms: C4_10  and  C5_12 
REMARK    2  A    between atoms: C5_12  and  C6_13 
REMARK    3  A    between atoms: N5_14  and  C7_16 
REMARK    4  A    between atoms: C7_16  and  N6_18 
REMARK    5  A    between atoms: N6_18  and  N7_20 
ROOT
HETATM    1  N1  UNL     1      60.940  17.958  44.871  1.00  0.00    -0.374 N 
ATOM      2  H11 UNL     1      61.151  17.045  44.468  1.00  0.00     0.158 HD
ATOM      3  H12 UNL     1      61.658  18.575  45.251  1.00  0.00     0.158 HD
HETATM    4  C1  UNL     1      59.696  18.320  44.885  1.00  0.00     0.184 C 
HETATM    5  N2  UNL     1      59.402  19.592  45.448  1.00  0.00    -0.064 NA
HETATM    6  N3  UNL     1      58.696  17.460  44.355  1.00  0.00    -0.353 N 
HETATM    7  C2  UNL     1      57.410  17.252  44.992  1.00  0.00     0.145 C 
HETATM    8  C3  UNL     1      56.896  15.852  44.646  1.00  0.00     0.145 C 
HETATM    9  N4  UNL     1      56.758  15.832  43.198  1.00  0.00    -0.349 N 
HETATM   10  C4  UNL     1      55.802  15.018  42.539  1.00  0.00     0.224 C 
HETATM   11  O1  UNL     1      55.064  14.291  43.269  1.00  0.00    -0.273 OA
HETATM   12  C8  UNL     1      57.617  16.663  42.378  1.00  0.00     0.145 C 
HETATM   13  C9  UNL     1      58.953  16.745  43.122  1.00  0.00     0.145 C 
ENDROOT
BRANCH  10  14
HETATM   14  C5  UNL     1      55.635  14.979  41.086  1.00  0.00     0.147 C 
BRANCH  14  15
HETATM   15  C6  UNL     1      55.014  16.212  40.543  1.00  0.00     0.072 C 
HETATM   16  N5  UNL     1      54.591  16.287  39.327  1.00  0.00    -0.345 N 
ATOM     17  H5  UNL     1      54.687  15.473  38.720  1.00  0.00     0.167 HD
BRANCH  16  18
HETATM   18  C7  UNL     1      54.000  17.456  38.809  1.00  0.00     0.189 C 
HETATM   19  S1  UNL     1      54.071  18.802  39.733  1.00  0.00    -0.039 SA
BRANCH  18  20
HETATM   20  N6  UNL     1      53.377  17.465  37.552  1.00  0.00    -0.283 N 
ATOM     21  H6  UNL     1      53.895  17.757  36.722  1.00  0.00     0.188 HD
BRANCH  20  22
HETATM   22  N7  UNL     1      52.038  17.071  37.448  1.00  0.00    -0.343 N 
ATOM     23  H72 UNL     1      51.353  17.721  37.063  1.00  0.00     0.176 HD
ATOM     24  H71 UNL     1      51.768  16.138  37.761  1.00  0.00     0.176 HD
ENDBRANCH  20  22
ENDBRANCH  18  20
ENDBRANCH  16  18
ENDBRANCH  14  15
ENDBRANCH  10  14
TORSDOF 5
ENDMDL
MODEL 4
REMARK VINA RESULT: -6.206660393      3.118      6.191
REMARK  5 active torsions:
REMARK  status: ('A' for Active; 'I' for Inactive)
REMARK       I    between atoms: C1_4  and  N3_6 
REMARK       I    between atoms: N4_9  and  C4_10 
REMARK    1  A    between atoms: C4_10  and  C5_12 
REMARK    2  A    between atoms: C5_12  and  C6_13 
REMARK    3  A    between atoms: N5_14  and  C7_16 
REMARK    4  A    between atoms: C7_16  and  N6_18 
REMARK    5  A    between atoms: N6_18  and  N7_20 
ROOT
HETATM    1  N1  UNL     1      53.807  16.958  39.106  1.00  0.00    -0.374 N 
ATOM      2  H11 UNL     1      53.151  17.274  39.820  1.00  0.00     0.158 HD
ATOM      3  H12 UNL     1      53.619  17.036  38.106  1.00  0.00     0.158 HD
HETATM    4  C1  UNL     1      54.920  16.438  39.520  1.00  0.00     0.184 C 
HETATM    5  N2  UNL     1      55.834  15.997  38.524  1.00  0.00    -0.064 NA
HETATM    6  N3  UNL     1      55.183  16.330  40.912  1.00  0.00    -0.353 N 
HETATM    7  C2  UNL     1      55.792  15.160  41.516  1.00  0.00     0.145 C 
HETATM    8  C3  UNL     1      55.307  15.029  42.962  1.00  0.00     0.145 C 
HETATM    9  N4  UNL     1      55.751  16.239  43.635  1.00  0.00    -0.349 N 
HETATM   10  C4  UNL     1      56.045  16.272  45.022  1.00  0.00     0.224 C 
HETATM   11  O1  UNL     1      55.899  15.189  45.667  1.00  0.00    -0.273 OA
HETATM   12  C8  UNL     1      55.904  17.470  42.884  1.00  0.00     0.145 C 
HETATM   13  C9  UNL     1      54.833  17.428  41.790  1.00  0.00     0.145 C 
ENDROOT
BRANCH  10  14
HETATM   14  C5  UNL     1      56.499  17.471  45.727  1.00  0.00     0.147 C 
BRANCH  14  15
HETATM   15  C6  UNL     1      57.703  18.081  45.113  1.00  0.00     0.072 C 
HETATM   16  N5  UNL     1      58.772  17.399  44.879  1.00  0.00    -0.345 N 
ATOM     17  H5  UNL     1      58.789  16.409  45.124  1.00  0.00     0.167 HD
BRANCH  16  18
HETATM   18  C7  UNL     1      59.917  17.976  44.296  1.00  0.00     0.189 C 
HETATM   19  S1  UNL     1      61.281  18.001  45.195  1.00  0.00    -0.039 SA
BRANCH  18  20
HETATM   20  N6  UNL     1      59.888  18.507  42.997  1.00  0.00    -0.283 N 
ATOM     21  H6  UNL     1      59.945  17.891  42.187  1.00  0.00     0.188 HD
BRANCH  20  22
HETATM   22  N7  UNL     1      59.780  19.893  42.826  1.00  0.00    -0.343 N 
ATOM     23  H72 UNL     1      59.556  20.480  43.630  1.00  0.00     0.176 HD
ATOM     24  H71 UNL     1      59.928  20.294  41.900  1.00  0.00     0.176 HD
ENDBRANCH  20  22
ENDBRANCH  18  20
ENDBRANCH  16  18
ENDBRANCH  14  15
ENDBRANCH  10  14
TORSDOF 5
ENDMDL
MODEL 5
REMARK VINA RESULT: -6.022899643      0.950      1.022
REMARK  5 active torsions:
REMARK  status: ('A' for Active; 'I' for Inactive)
REMARK       I    between atoms: C1_4  and  N3_6 
REMARK       I    between atoms: N4_9  and  C4_10 
REMARK    1  A    between atoms: C4_10  and  C5_12 
REMARK    2  A    between atoms: C5_12  and  C6_13 
REMARK    3  A    between atoms: N5_14  and  C7_16 
REMARK    4  A    between atoms: C7_16  and  N6_18 
REMARK    5  A    between atoms: N6_18  and  N7_20 
ROOT
HETATM    1  N1  UNL     1      61.110  17.410  45.597  1.00  0.00    -0.374 N 
ATOM      2  H11 UNL     1      60.783  16.454  45.738  1.00  0.00     0.158 HD
ATOM      3  H12 UNL     1      61.994  17.754  45.971  1.00  0.00     0.158 HD
HETATM    4  C1  UNL     1      60.345  18.196  44.909  1.00  0.00     0.184 C 
HETATM    5  N2  UNL     1      60.800  19.528  44.713  1.00  0.00    -0.064 NA
HETATM    6  N3  UNL     1      59.113  17.716  44.387  1.00  0.00    -0.353 N 
HETATM    7  C2  UNL     1      57.887  18.492  44.406  1.00  0.00     0.145 C 
HETATM    8  C3  UNL     1      56.689  17.540  44.467  1.00  0.00     0.145 C 
HETATM    9  N4  UNL     1      56.765  16.737  43.256  1.00  0.00    -0.349 N 
HETATM   10  C4  UNL     1      55.613  16.194  42.632  1.00  0.00     0.224 C 
HETATM   11  O1  UNL     1      54.495  16.434  43.181  1.00  0.00    -0.273 OA
HETATM   12  C8  UNL     1      58.053  16.466  42.648  1.00  0.00     0.145 C 
HETATM   13  C9  UNL     1      59.054  16.391  43.805  1.00  0.00     0.145 C 
ENDROOT
BRANCH  10  14
HETATM   14  C5  UNL     1      55.656  15.388  41.413  1.00  0.00     0.147 C 
BRANCH  14  15
HETATM   15  C6  UNL     1      55.032  16.065  40.250  1.00  0.00     0.072 C 
HETATM   16  N5  UNL     1      54.566  17.265  40.325  1.00  0.00    -0.345 N 
ATOM     17  H5  UNL     1      54.629  17.764  41.213  1.00  0.00     0.167 HD
BRANCH  16  18
HETATM   18  C7  UNL     1      53.974  17.910  39.222  1.00  0.00     0.189 C 
HETATM   19  S1  UNL     1      53.375  16.961  38.035  1.00  0.00    -0.039 SA
BRANCH  18  20
HETATM   20  N6  UNL     1      53.900  19.310  39.147  1.00  0.00    -0.283 N 
ATOM     21  H6  UNL     1      53.844  19.775  38.240  1.00  0.00     0.188 HD
BRANCH  20  22
HETATM   22  N7  UNL     1      53.905  20.061  40.328  1.00  0.00    -0.343 N 
ATOM     23  H72 UNL     1      54.772  20.155  40.858  1.00  0.00     0.176 HD
ATOM     24  H71 UNL     1      53.041  20.503  40.642  1.00  0.00     0.176 HD
ENDBRANCH  20  22
ENDBRANCH  18  20
ENDBRANCH  16  18
ENDBRANCH  14  15
ENDBRANCH  10  14
TORSDOF 5
ENDMDL
