MODEL 1
REMARK VINA RESULT: -7.527843656      0.000      0.000
REMARK  3 active torsions:
REMARK  status: ('A' for Active; 'I' for Inactive)
REMARK    1  A    between atoms: S1_2  and  N1_5 
REMARK       I    between atoms: N1_5  and  C2_7 
REMARK       I    between atoms: C2_7  and  N2_9 
REMARK    2  A    between atoms: N2_9  and  N3_11 
REMARK    3  A    between atoms: C5_14  and  N4_15 
REMARK       I    between atoms: N4_15  and  C6_17 
ROOT
HETATM    1  N3  UNL     1      55.979  17.714  40.547  1.00  0.00    -0.322 N 
HETATM    2  C3  UNL     1      54.822  17.852  41.364  1.00  0.00     0.144 C 
HETATM    3  C4  UNL     1      53.769  18.147  40.282  1.00  0.00     0.048 C 
HETATM    4  C5  UNL     1      54.115  17.096  39.242  1.00  0.00     0.105 C 
HETATM    5  C7  UNL     1      55.634  16.975  39.388  1.00  0.00     0.167 C 
ENDROOT
BRANCH   1   6
HETATM    6  N2  UNL     1      57.168  17.467  41.154  1.00  0.00    -0.253 N 
HETATM    7  C2  UNL     1      57.585  17.892  42.440  1.00  0.00     0.348 C 
HETATM    8  N1  UNL     1      58.867  17.558  42.949  1.00  0.00    -0.235 N 
HETATM    9  O3  UNL     1      56.846  18.585  43.193  1.00  0.00    -0.245 OA
ATOM     10  H1  UNL     1      59.487  16.999  42.362  1.00  0.00     0.183 HD
ATOM     11  H2  UNL     1      57.838  16.911  40.624  1.00  0.00     0.191 HD
BRANCH   8  12
HETATM   12  S1  UNL     1      59.430  18.037  44.486  1.00  0.00     0.230 S 
HETATM   13  C1  UNL     1      61.164  17.669  44.614  1.00  0.00     0.186 C 
HETATM   14  O1  UNL     1      59.282  19.523  44.704  1.00  0.00    -0.206 OA
HETATM   15  O2  UNL     1      58.731  17.357  45.619  1.00  0.00    -0.206 OA
ENDBRANCH   8  12
ENDBRANCH   1   6
BRANCH   4  16
HETATM   16  N4  UNL     1      53.789  17.526  37.910  1.00  0.00    -0.359 N 
HETATM   17  C6  UNL     1      52.623  17.104  37.211  1.00  0.00     0.182 C 
HETATM   18  N5  UNL     1      51.473  17.098  37.791  1.00  0.00    -0.374 N 
HETATM   19  N6  UNL     1      52.666  16.671  35.860  1.00  0.00    -0.064 NA
ATOM     20  H52 UNL     1      51.442  17.409  38.762  1.00  0.00     0.158 HD
ATOM     21  H51 UNL     1      50.637  16.795  37.290  1.00  0.00     0.158 HD
ATOM     22  H4  UNL     1      54.427  18.168  37.439  1.00  0.00     0.162 HD
ENDBRANCH   4  16
TORSDOF 3
ENDMDL
MODEL 2
REMARK VINA RESULT: -7.337195374      3.646      7.576
REMARK  3 active torsions:
REMARK  status: ('A' for Active; 'I' for Inactive)
REMARK    1  A    between atoms: S1_2  and  N1_5 
REMARK       I    between atoms: N1_5  and  C2_7 
REMARK       I    between atoms: C2_7  and  N2_9 
REMARK    2  A    between atoms: N2_9  and  N3_11 
REMARK    3  A    between atoms: C5_14  and  N4_15 
REMARK       I    between atoms: N4_15  and  C6_17 
ROOT
HETATM    1  N3  UNL     1      56.236  17.034  43.706  1.00  0.00    -0.322 N 
HETATM    2  C3  UNL     1      55.608  16.623  44.916  1.00  0.00     0.144 C 
HETATM    3  C4  UNL     1      56.852  16.353  45.780  1.00  0.00     0.048 C 
HETATM    4  C5  UNL     1      57.689  17.583  45.480  1.00  0.00     0.105 C 
HETATM    5  C7  UNL     1      57.324  17.883  44.023  1.00  0.00     0.167 C 
ENDROOT
BRANCH   1   6
HETATM    6  N2  UNL     1      55.446  17.345  42.647  1.00  0.00    -0.253 N 
HETATM    7  C2  UNL     1      55.321  16.636  41.427  1.00  0.00     0.348 C 
HETATM    8  N1  UNL     1      54.450  17.083  40.399  1.00  0.00    -0.235 N 
HETATM    9  O3  UNL     1      55.971  15.581  41.190  1.00  0.00    -0.245 OA
ATOM     10  H1  UNL     1      53.911  17.935  40.561  1.00  0.00     0.183 HD
ATOM     11  H2  UNL     1      54.877  18.186  42.741  1.00  0.00     0.191 HD
BRANCH   8  12
HETATM   12  S1  UNL     1      54.252  16.278  38.908  1.00  0.00     0.230 S 
HETATM   13  C1  UNL     1      53.297  17.302  37.813  1.00  0.00     0.186 C 
HETATM   14  O1  UNL     1      55.573  16.022  38.225  1.00  0.00    -0.206 OA
HETATM   15  O2  UNL     1      53.558  14.960  39.026  1.00  0.00    -0.206 OA
ENDBRANCH   8  12
ENDBRANCH   1   6
BRANCH   4  16
HETATM   16  N4  UNL     1      59.098  17.316  45.582  1.00  0.00    -0.359 N 
HETATM   17  C6  UNL     1      60.077  17.940  44.759  1.00  0.00     0.182 C 
HETATM   18  N5  UNL     1      60.050  19.211  44.550  1.00  0.00    -0.374 N 
HETATM   19  N6  UNL     1      61.119  17.206  44.134  1.00  0.00    -0.064 NA
ATOM     20  H52 UNL     1      59.301  19.738  44.999  1.00  0.00     0.158 HD
ATOM     21  H51 UNL     1      60.751  19.658  43.960  1.00  0.00     0.158 HD
ATOM     22  H4  UNL     1      59.413  16.643  46.280  1.00  0.00     0.162 HD
ENDBRANCH   4  16
TORSDOF 3
ENDMDL
MODEL 3
REMARK VINA RESULT: -7.254945872      0.963      1.193
REMARK  3 active torsions:
REMARK  status: ('A' for Active; 'I' for Inactive)
REMARK    1  A    between atoms: S1_2  and  N1_5 
REMARK       I    between atoms: N1_5  and  C2_7 
REMARK       I    between atoms: C2_7  and  N2_9 
REMARK    2  A    between atoms: N2_9  and  N3_11 
REMARK    3  A    between atoms: C5_14  and  N4_15 
REMARK       I    between atoms: N4_15  and  C6_17 
ROOT
HETATM    1  N3  UNL     1      55.896  17.793  40.341  1.00  0.00    -0.322 N 
HETATM    2  C3  UNL     1      54.804  18.231  41.144  1.00  0.00     0.144 C 
HETATM    3  C4  UNL     1      53.781  18.556  40.041  1.00  0.00     0.048 C 
HETATM    4  C5  UNL     1      53.913  17.334  39.150  1.00  0.00     0.105 C 
HETATM    5  C7  UNL     1      55.395  16.978  39.296  1.00  0.00     0.167 C 
ENDROOT
BRANCH   1   6
HETATM    6  N2  UNL     1      57.045  17.430  40.965  1.00  0.00    -0.253 N 
HETATM    7  C2  UNL     1      57.524  17.879  42.221  1.00  0.00     0.348 C 
HETATM    8  N1  UNL     1      58.754  17.411  42.753  1.00  0.00    -0.235 N 
HETATM    9  O3  UNL     1      56.889  18.711  42.926  1.00  0.00    -0.245 OA
ATOM     10  H1  UNL     1      59.290  16.737  42.205  1.00  0.00     0.183 HD
ATOM     11  H2  UNL     1      57.632  16.757  40.473  1.00  0.00     0.191 HD
BRANCH   8  12
HETATM   12  S1  UNL     1      59.386  17.909  44.256  1.00  0.00     0.230 S 
HETATM   13  C1  UNL     1      58.264  17.435  45.550  1.00  0.00     0.186 C 
HETATM   14  O1  UNL     1      60.708  17.247  44.561  1.00  0.00    -0.206 OA
HETATM   15  O2  UNL     1      59.605  19.385  44.355  1.00  0.00    -0.206 OA
ENDBRANCH   8  12
ENDBRANCH   1   6
BRANCH   4  16
HETATM   16  N4  UNL     1      53.621  17.634  37.774  1.00  0.00    -0.359 N 
HETATM   17  C6  UNL     1      52.491  17.117  37.081  1.00  0.00     0.182 C 
HETATM   18  N5  UNL     1      51.322  17.130  37.622  1.00  0.00    -0.374 N 
HETATM   19  N6  UNL     1      52.591  16.568  35.776  1.00  0.00    -0.064 NA
ATOM     20  H52 UNL     1      51.250  17.525  38.560  1.00  0.00     0.158 HD
ATOM     21  H51 UNL     1      50.512  16.759  37.125  1.00  0.00     0.158 HD
ATOM     22  H4  UNL     1      54.257  18.250  37.268  1.00  0.00     0.162 HD
ENDBRANCH   4  16
TORSDOF 3
ENDMDL
MODEL 4
REMARK VINA RESULT: -7.241807834      3.538      7.495
REMARK  3 active torsions:
REMARK  status: ('A' for Active; 'I' for Inactive)
REMARK    1  A    between atoms: S1_2  and  N1_5 
REMARK       I    between atoms: N1_5  and  C2_7 
REMARK       I    between atoms: C2_7  and  N2_9 
REMARK    2  A    between atoms: N2_9  and  N3_11 
REMARK    3  A    between atoms: C5_14  and  N4_15 
REMARK       I    between atoms: N4_15  and  C6_17 
ROOT
HETATM    1  N3  UNL     1      56.699  15.868  43.660  1.00  0.00    -0.322 N 
HETATM    2  C3  UNL     1      55.890  16.052  44.818  1.00  0.00     0.144 C 
HETATM    3  C4  UNL     1      56.982  16.378  45.851  1.00  0.00     0.048 C 
HETATM    4  C5  UNL     1      57.828  17.375  45.080  1.00  0.00     0.105 C 
HETATM    5  C7  UNL     1      57.700  16.870  43.640  1.00  0.00     0.167 C 
ENDROOT
BRANCH   1   6
HETATM    6  N2  UNL     1      56.086  15.527  42.498  1.00  0.00    -0.253 N 
HETATM    7  C2  UNL     1      55.520  16.396  41.533  1.00  0.00     0.348 C 
HETATM    8  N1  UNL     1      54.906  15.893  40.356  1.00  0.00    -0.235 N 
HETATM    9  O3  UNL     1      55.531  17.650  41.667  1.00  0.00    -0.245 OA
ATOM     10  H1  UNL     1      54.881  14.882  40.220  1.00  0.00     0.183 HD
ATOM     11  H2  UNL     1      56.027  14.529  42.296  1.00  0.00     0.191 HD
BRANCH   8  12
HETATM   12  S1  UNL     1      54.207  16.883  39.156  1.00  0.00     0.230 S 
HETATM   13  C1  UNL     1      53.082  18.025  39.923  1.00  0.00     0.186 C 
HETATM   14  O1  UNL     1      55.241  17.709  38.431  1.00  0.00    -0.206 OA
HETATM   15  O2  UNL     1      53.450  16.121  38.117  1.00  0.00    -0.206 OA
ENDBRANCH   8  12
ENDBRANCH   1   6
BRANCH   4  16
HETATM   16  N4  UNL     1      59.207  17.341  45.485  1.00  0.00    -0.359 N 
HETATM   17  C6  UNL     1      60.253  17.979  44.761  1.00  0.00     0.182 C 
HETATM   18  N5  UNL     1      60.119  19.186  44.333  1.00  0.00    -0.374 N 
HETATM   19  N6  UNL     1      61.482  17.327  44.477  1.00  0.00    -0.064 NA
ATOM     20  H52 UNL     1      59.236  19.654  44.537  1.00  0.00     0.158 HD
ATOM     21  H51 UNL     1      60.869  19.642  43.814  1.00  0.00     0.158 HD
ATOM     22  H4  UNL     1      59.448  16.834  46.336  1.00  0.00     0.162 HD
ENDBRANCH   4  16
TORSDOF 3
ENDMDL
MODEL 5
REMARK VINA RESULT: -7.101370019      0.916      1.071
REMARK  3 active torsions:
REMARK  status: ('A' for Active; 'I' for Inactive)
REMARK    1  A    between atoms: S1_2  and  N1_5 
REMARK       I    between atoms: N1_5  and  C2_7 
REMARK       I    between atoms: C2_7  and  N2_9 
REMARK    2  A    between atoms: N2_9  and  N3_11 
REMARK    3  A    between atoms: C5_14  and  N4_15 
REMARK       I    between atoms: N4_15  and  C6_17 
ROOT
HETATM    1  N3  UNL     1      55.966  17.614  40.557  1.00  0.00    -0.322 N 
HETATM    2  C3  UNL     1      54.825  17.889  41.363  1.00  0.00     0.144 C 
HETATM    3  C4  UNL     1      53.810  18.251  40.266  1.00  0.00     0.048 C 
HETATM    4  C5  UNL     1      54.054  17.139  39.262  1.00  0.00     0.105 C 
HETATM    5  C7  UNL     1      55.554  16.875  39.421  1.00  0.00     0.167 C 
ENDROOT
BRANCH   1   6
HETATM    6  N2  UNL     1      57.123  17.272  41.180  1.00  0.00    -0.253 N 
HETATM    7  C2  UNL     1      57.577  17.698  42.452  1.00  0.00     0.348 C 
HETATM    8  N1  UNL     1      58.819  17.257  42.980  1.00  0.00    -0.235 N 
HETATM    9  O3  UNL     1      56.909  18.486  43.177  1.00  0.00    -0.245 OA
ATOM     10  H1  UNL     1      59.382  16.619  42.416  1.00  0.00     0.183 HD
ATOM     11  H2  UNL     1      57.736  16.634  40.673  1.00  0.00     0.191 HD
BRANCH   8  12
HETATM   12  S1  UNL     1      59.424  17.731  44.502  1.00  0.00     0.230 S 
HETATM   13  C1  UNL     1      59.293  19.496  44.659  1.00  0.00     0.186 C 
HETATM   14  O1  UNL     1      58.630  17.132  45.637  1.00  0.00    -0.206 OA
HETATM   15  O2  UNL     1      60.853  17.355  44.723  1.00  0.00    -0.206 OA
ENDBRANCH   8  12
ENDBRANCH   1   6
BRANCH   4  16
HETATM   16  N4  UNL     1      53.775  17.556  37.915  1.00  0.00    -0.359 N 
HETATM   17  C6  UNL     1      52.627  17.138  37.185  1.00  0.00     0.182 C 
HETATM   18  N5  UNL     1      51.459  17.154  37.727  1.00  0.00    -0.374 N 
HETATM   19  N6  UNL     1      52.707  16.688  35.841  1.00  0.00    -0.064 NA
ATOM     20  H52 UNL     1      51.401  17.478  38.693  1.00  0.00     0.158 HD
ATOM     21  H51 UNL     1      50.636  16.855  37.204  1.00  0.00     0.158 HD
ATOM     22  H4  UNL     1      54.436  18.183  37.457  1.00  0.00     0.162 HD
ENDBRANCH   4  16
TORSDOF 3
ENDMDL
