MODEL 1
REMARK VINA RESULT: -7.185559613      0.000      0.000
REMARK  8 active torsions:
REMARK  status: ('A' for Active; 'I' for Inactive)
REMARK    1  A    between atoms: C2_2  and  N1_3 
REMARK    2  A    between atoms: N1_3  and  C3_5 
REMARK    3  A    between atoms: C3_5  and  N2_7 
REMARK    4  A    between atoms: N2_7  and  N3_9 
REMARK       I    between atoms: N3_9  and  C4_11 
REMARK    5  A    between atoms: C4_11  and  C5_13 
REMARK    6  A    between atoms: C5_13  and  N4_15 
REMARK    7  A    between atoms: N4_15  and  S2_17 
REMARK    8  A    between atoms: S2_17  and  N5_18 
ROOT
HETATM    1  N3  UNL     1      57.317  17.629  41.767  1.00  0.00    -0.266 N 
ATOM      2  H3  UNL     1      57.203  18.638  41.665  1.00  0.00     0.190 HD
HETATM    3  C4  UNL     1      57.601  17.052  43.019  1.00  0.00     0.259 C 
HETATM    4  O1  UNL     1      57.723  15.794  43.064  1.00  0.00    -0.269 OA
ENDROOT
BRANCH   3   5
HETATM    5  C5  UNL     1      57.766  17.816  44.269  1.00  0.00     0.184 C 
HETATM    6  C6  UNL     1      56.584  17.737  45.199  1.00  0.00     0.043 C 
BRANCH   5   7
HETATM    7  N4  UNL     1      58.929  17.374  44.954  1.00  0.00    -0.289 N 
ATOM      8  H4  UNL     1      58.902  16.660  45.683  1.00  0.00     0.174 HD
BRANCH   7   9
HETATM    9  S2  UNL     1      60.366  18.130  44.460  1.00  0.00     0.313 S 
HETATM   10  O2  UNL     1      60.935  18.861  45.656  1.00  0.00    -0.183 OA
HETATM   11  O3  UNL     1      61.359  17.161  43.937  1.00  0.00    -0.183 OA
BRANCH   9  12
HETATM   12  N5  UNL     1      59.954  19.314  43.243  1.00  0.00    -0.312 N 
ATOM     13  H52 UNL     1      59.489  20.205  43.420  1.00  0.00     0.170 HD
ATOM     14  H51 UNL     1      60.260  18.952  42.340  1.00  0.00     0.170 HD
ENDBRANCH   9  12
ENDBRANCH   7   9
ENDBRANCH   5   7
ENDBRANCH   3   5
BRANCH   1  15
HETATM   15  N2  UNL     1      57.194  16.759  40.650  1.00  0.00    -0.274 N 
ATOM     16  H2  UNL     1      57.994  16.202  40.353  1.00  0.00     0.189 HD
BRANCH  15  17
HETATM   17  C3  UNL     1      55.971  16.661  39.946  1.00  0.00     0.186 C 
HETATM   18  S1  UNL     1      55.072  15.285  39.970  1.00  0.00    -0.040 SA
BRANCH  17  19
HETATM   19  N1  UNL     1      55.484  17.742  39.203  1.00  0.00    -0.366 N 
ATOM     20  H1  UNL     1      56.093  18.203  38.526  1.00  0.00     0.161 HD
BRANCH  19  21
HETATM   21  C2  UNL     1      54.136  18.212  39.384  1.00  0.00     0.117 C 
HETATM   22  C1  UNL     1      54.047  19.408  40.287  1.00  0.00     0.026 C 
ENDBRANCH  19  21
ENDBRANCH  17  19
ENDBRANCH  15  17
ENDBRANCH   1  15
TORSDOF 8
ENDMDL
MODEL 2
REMARK VINA RESULT: -7.062144420      1.374      1.540
REMARK  8 active torsions:
REMARK  status: ('A' for Active; 'I' for Inactive)
REMARK    1  A    between atoms: C2_2  and  N1_3 
REMARK    2  A    between atoms: N1_3  and  C3_5 
REMARK    3  A    between atoms: C3_5  and  N2_7 
REMARK    4  A    between atoms: N2_7  and  N3_9 
REMARK       I    between atoms: N3_9  and  C4_11 
REMARK    5  A    between atoms: C4_11  and  C5_13 
REMARK    6  A    between atoms: C5_13  and  N4_15 
REMARK    7  A    between atoms: N4_15  and  S2_17 
REMARK    8  A    between atoms: S2_17  and  N5_18 
ROOT
HETATM    1  N3  UNL     1      56.038  16.911  43.137  1.00  0.00    -0.266 N 
ATOM      2  H3  UNL     1      55.887  16.047  43.658  1.00  0.00     0.190 HD
HETATM    3  C4  UNL     1      56.992  17.856  43.556  1.00  0.00     0.259 C 
HETATM    4  O1  UNL     1      57.124  18.899  42.853  1.00  0.00    -0.269 OA
ENDROOT
BRANCH   3   5
HETATM    5  C5  UNL     1      57.841  17.708  44.753  1.00  0.00     0.184 C 
HETATM    6  C6  UNL     1      57.186  16.957  45.882  1.00  0.00     0.043 C 
BRANCH   5   7
HETATM    7  N4  UNL     1      59.056  17.059  44.404  1.00  0.00    -0.289 N 
ATOM      8  H4  UNL     1      59.112  16.060  44.210  1.00  0.00     0.174 HD
BRANCH   7   9
HETATM    9  S2  UNL     1      60.406  18.087  44.337  1.00  0.00     0.313 S 
HETATM   10  O2  UNL     1      60.449  18.873  45.628  1.00  0.00    -0.183 OA
HETATM   11  O3  UNL     1      61.672  17.338  44.155  1.00  0.00    -0.183 OA
BRANCH   9  12
HETATM   12  N5  UNL     1      60.155  19.210  43.022  1.00  0.00    -0.312 N 
ATOM     13  H52 UNL     1      59.431  19.131  42.308  1.00  0.00     0.170 HD
ATOM     14  H51 UNL     1      60.856  19.946  43.104  1.00  0.00     0.170 HD
ENDBRANCH   9  12
ENDBRANCH   7   9
ENDBRANCH   5   7
ENDBRANCH   3   5
BRANCH   1  15
HETATM   15  N2  UNL     1      55.291  17.200  41.962  1.00  0.00    -0.274 N 
ATOM     16  H2  UNL     1      54.366  17.622  42.043  1.00  0.00     0.189 HD
BRANCH  15  17
HETATM   17  C3  UNL     1      55.819  16.907  40.683  1.00  0.00     0.186 C 
HETATM   18  S1  UNL     1      56.794  15.608  40.431  1.00  0.00    -0.040 SA
BRANCH  17  19
HETATM   19  N1  UNL     1      55.523  17.722  39.585  1.00  0.00    -0.366 N 
ATOM     20  H1  UNL     1      56.283  18.133  39.043  1.00  0.00     0.161 HD
BRANCH  19  21
HETATM   21  C2  UNL     1      54.158  17.985  39.210  1.00  0.00     0.117 C 
HETATM   22  C1  UNL     1      53.566  16.905  38.352  1.00  0.00     0.026 C 
ENDBRANCH  19  21
ENDBRANCH  17  19
ENDBRANCH  15  17
ENDBRANCH   1  15
TORSDOF 8
ENDMDL
MODEL 3
REMARK VINA RESULT: -7.039149928      1.826      2.131
REMARK  8 active torsions:
REMARK  status: ('A' for Active; 'I' for Inactive)
REMARK    1  A    between atoms: C2_2  and  N1_3 
REMARK    2  A    between atoms: N1_3  and  C3_5 
REMARK    3  A    between atoms: C3_5  and  N2_7 
REMARK    4  A    between atoms: N2_7  and  N3_9 
REMARK       I    between atoms: N3_9  and  C4_11 
REMARK    5  A    between atoms: C4_11  and  C5_13 
REMARK    6  A    between atoms: C5_13  and  N4_15 
REMARK    7  A    between atoms: N4_15  and  S2_17 
REMARK    8  A    between atoms: S2_17  and  N5_18 
ROOT
HETATM    1  N3  UNL     1      57.074  16.973  40.914  1.00  0.00    -0.266 N 
ATOM      2  H3  UNL     1      57.371  16.026  40.680  1.00  0.00     0.190 HD
HETATM    3  C4  UNL     1      57.226  17.482  42.217  1.00  0.00     0.259 C 
HETATM    4  O1  UNL     1      56.838  18.667  42.426  1.00  0.00    -0.269 OA
ENDROOT
BRANCH   3   5
HETATM    5  C5  UNL     1      57.804  16.726  43.344  1.00  0.00     0.184 C 
HETATM    6  C6  UNL     1      57.289  15.316  43.468  1.00  0.00     0.043 C 
BRANCH   5   7
HETATM    7  N4  UNL     1      59.219  16.697  43.228  1.00  0.00    -0.289 N 
ATOM      8  H4  UNL     1      59.707  16.093  42.567  1.00  0.00     0.174 HD
BRANCH   7   9
HETATM    9  S2  UNL     1      60.032  17.751  44.282  1.00  0.00     0.313 S 
HETATM   10  O2  UNL     1      59.441  17.565  45.662  1.00  0.00    -0.183 OA
HETATM   11  O3  UNL     1      61.491  17.496  44.316  1.00  0.00    -0.183 OA
BRANCH   9  12
HETATM   12  N5  UNL     1      59.699  19.386  43.762  1.00  0.00    -0.312 N 
ATOM     13  H52 UNL     1      60.035  19.810  42.898  1.00  0.00     0.170 HD
ATOM     14  H51 UNL     1      59.115  19.825  44.474  1.00  0.00     0.170 HD
ENDBRANCH   9  12
ENDBRANCH   7   9
ENDBRANCH   5   7
ENDBRANCH   3   5
BRANCH   1  15
HETATM   15  N2  UNL     1      56.492  17.823  39.934  1.00  0.00    -0.274 N 
ATOM     16  H2  UNL     1      57.070  18.517  39.461  1.00  0.00     0.189 HD
BRANCH  15  17
HETATM   17  C3  UNL     1      55.120  17.714  39.610  1.00  0.00     0.186 C 
HETATM   18  S1  UNL     1      54.018  18.807  40.151  1.00  0.00    -0.040 SA
BRANCH  17  19
HETATM   19  N1  UNL     1      54.656  16.664  38.810  1.00  0.00    -0.366 N 
ATOM     20  H1  UNL     1      55.311  15.957  38.476  1.00  0.00     0.161 HD
BRANCH  19  21
HETATM   21  C2  UNL     1      53.264  16.570  38.454  1.00  0.00     0.117 C 
HETATM   22  C1  UNL     1      52.987  17.018  37.048  1.00  0.00     0.026 C 
ENDBRANCH  19  21
ENDBRANCH  17  19
ENDBRANCH  15  17
ENDBRANCH   1  15
TORSDOF 8
ENDMDL
MODEL 4
REMARK VINA RESULT: -6.968375186      1.175      1.176
REMARK  8 active torsions:
REMARK  status: ('A' for Active; 'I' for Inactive)
REMARK    1  A    between atoms: C2_2  and  N1_3 
REMARK    2  A    between atoms: N1_3  and  C3_5 
REMARK    3  A    between atoms: C3_5  and  N2_7 
REMARK    4  A    between atoms: N2_7  and  N3_9 
REMARK       I    between atoms: N3_9  and  C4_11 
REMARK    5  A    between atoms: C4_11  and  C5_13 
REMARK    6  A    between atoms: C5_13  and  N4_15 
REMARK    7  A    between atoms: N4_15  and  S2_17 
REMARK    8  A    between atoms: S2_17  and  N5_18 
ROOT
HETATM    1  N3  UNL     1      57.283  16.696  42.257  1.00  0.00    -0.266 N 
ATOM      2  H3  UNL     1      57.468  15.736  42.545  1.00  0.00     0.190 HD
HETATM    3  C4  UNL     1      57.084  17.715  43.206  1.00  0.00     0.259 C 
HETATM    4  O1  UNL     1      56.865  18.881  42.769  1.00  0.00    -0.269 OA
ENDROOT
BRANCH   3   5
HETATM    5  C5  UNL     1      57.113  17.509  44.666  1.00  0.00     0.184 C 
HETATM    6  C6  UNL     1      55.944  16.725  45.201  1.00  0.00     0.043 C 
BRANCH   5   7
HETATM    7  N4  UNL     1      58.320  16.859  45.036  1.00  0.00    -0.289 N 
ATOM      8  H4  UNL     1      58.340  15.931  45.459  1.00  0.00     0.174 HD
BRANCH   7   9
HETATM    9  S2  UNL     1      59.727  17.754  44.717  1.00  0.00     0.313 S 
HETATM   10  O2  UNL     1      60.712  17.474  45.831  1.00  0.00    -0.183 OA
HETATM   11  O3  UNL     1      60.329  17.405  43.408  1.00  0.00    -0.183 OA
BRANCH   9  12
HETATM   12  N5  UNL     1      59.305  19.449  44.775  1.00  0.00    -0.312 N 
ATOM     13  H52 UNL     1      58.449  19.857  44.400  1.00  0.00     0.170 HD
ATOM     14  H51 UNL     1      60.064  19.942  45.246  1.00  0.00     0.170 HD
ENDBRANCH   9  12
ENDBRANCH   7   9
ENDBRANCH   5   7
ENDBRANCH   3   5
BRANCH   1  15
HETATM   15  N2  UNL     1      57.219  17.051  40.881  1.00  0.00    -0.274 N 
ATOM     16  H2  UNL     1      57.996  17.551  40.452  1.00  0.00     0.189 HD
BRANCH  15  17
HETATM   17  C3  UNL     1      56.086  16.715  40.104  1.00  0.00     0.186 C 
HETATM   18  S1  UNL     1      55.369  15.240  40.219  1.00  0.00    -0.040 SA
BRANCH  17  19
HETATM   19  N1  UNL     1      55.536  17.637  39.206  1.00  0.00    -0.366 N 
ATOM     20  H1  UNL     1      56.099  17.979  38.427  1.00  0.00     0.161 HD
BRANCH  19  21
HETATM   21  C2  UNL     1      54.186  18.107  39.370  1.00  0.00     0.117 C 
HETATM   22  C1  UNL     1      54.086  19.300  40.277  1.00  0.00     0.026 C 
ENDBRANCH  19  21
ENDBRANCH  17  19
ENDBRANCH  15  17
ENDBRANCH   1  15
TORSDOF 8
ENDMDL
MODEL 5
REMARK VINA RESULT: -6.927798758      1.725      2.043
REMARK  8 active torsions:
REMARK  status: ('A' for Active; 'I' for Inactive)
REMARK    1  A    between atoms: C2_2  and  N1_3 
REMARK    2  A    between atoms: N1_3  and  C3_5 
REMARK    3  A    between atoms: C3_5  and  N2_7 
REMARK    4  A    between atoms: N2_7  and  N3_9 
REMARK       I    between atoms: N3_9  and  C4_11 
REMARK    5  A    between atoms: C4_11  and  C5_13 
REMARK    6  A    between atoms: C5_13  and  N4_15 
REMARK    7  A    between atoms: N4_15  and  S2_17 
REMARK    8  A    between atoms: S2_17  and  N5_18 
ROOT
HETATM    1  N3  UNL     1      57.149  17.157  40.915  1.00  0.00    -0.266 N 
ATOM      2  H3  UNL     1      57.826  16.416  40.734  1.00  0.00     0.190 HD
HETATM    3  C4  UNL     1      56.948  17.657  42.215  1.00  0.00     0.259 C 
HETATM    4  O1  UNL     1      56.095  18.579  42.357  1.00  0.00    -0.269 OA
ENDROOT
BRANCH   3   5
HETATM    5  C5  UNL     1      57.666  17.177  43.411  1.00  0.00     0.184 C 
HETATM    6  C6  UNL     1      57.425  15.726  43.732  1.00  0.00     0.043 C 
BRANCH   5   7
HETATM    7  N4  UNL     1      59.060  17.395  43.256  1.00  0.00    -0.289 N 
ATOM      8  H4  UNL     1      59.685  16.701  42.845  1.00  0.00     0.174 HD
BRANCH   7   9
HETATM    9  S2  UNL     1      59.602  18.906  43.809  1.00  0.00     0.313 S 
HETATM   10  O2  UNL     1      58.497  19.510  44.649  1.00  0.00    -0.183 OA
HETATM   11  O3  UNL     1      60.846  18.799  44.607  1.00  0.00    -0.183 OA
BRANCH   9  12
HETATM   12  N5  UNL     1      59.845  19.929  42.413  1.00  0.00    -0.312 N 
ATOM     13  H52 UNL     1      59.346  19.847  41.527  1.00  0.00     0.170 HD
ATOM     14  H51 UNL     1      60.567  20.609  42.648  1.00  0.00     0.170 HD
ENDBRANCH   9  12
ENDBRANCH   7   9
ENDBRANCH   5   7
ENDBRANCH   3   5
BRANCH   1  15
HETATM   15  N2  UNL     1      56.375  17.718  39.863  1.00  0.00    -0.274 N 
ATOM     16  H2  UNL     1      56.633  18.625  39.475  1.00  0.00     0.189 HD
BRANCH  15  17
HETATM   17  C3  UNL     1      55.252  17.030  39.349  1.00  0.00     0.186 C 
HETATM   18  S1  UNL     1      54.970  15.451  39.709  1.00  0.00    -0.040 SA
BRANCH  17  19
HETATM   19  N1  UNL     1      54.337  17.680  38.513  1.00  0.00    -0.366 N 
ATOM     20  H1  UNL     1      54.547  18.616  38.167  1.00  0.00     0.161 HD
BRANCH  19  21
HETATM   21  C2  UNL     1      53.103  17.041  38.135  1.00  0.00     0.117 C 
HETATM   22  C1  UNL     1      52.839  17.104  36.658  1.00  0.00     0.026 C 
ENDBRANCH  19  21
ENDBRANCH  17  19
ENDBRANCH  15  17
ENDBRANCH   1  15
TORSDOF 8
ENDMDL
