MODEL 1
REMARK VINA RESULT: -8.864808317      0.000      0.000
REMARK  9 active torsions:
REMARK  status: ('A' for Active; 'I' for Inactive)
REMARK    1  A    between atoms: C2_2  and  O1_3 
REMARK    2  A    between atoms: C2_2  and  N1_5 
REMARK    3  A    between atoms: N1_5  and  N2_6 
REMARK       I    between atoms: N2_6  and  C3_7 
REMARK       I    between atoms: C3_7  and  N4_9 
REMARK    4  A    between atoms: N4_9  and  C4_11 
REMARK    5  A    between atoms: C4_11  and  C5_12 
REMARK       I    between atoms: C5_12  and  N5_14 
REMARK    6  A    between atoms: N5_14  and  N6_15 
REMARK    7  A    between atoms: N6_15  and  C6_17 
REMARK    8  A    between atoms: C6_17  and  O3_18 
REMARK    9  A    between atoms: C6_17  and  N7_20 
ROOT
HETATM    1  C5  UNL     1      55.467  14.588  43.328  1.00  0.00     0.330 C 
HETATM    2  O2  UNL     1      54.951  14.165  44.152  1.00  0.00    -0.253 OA
HETATM    3  N5  UNL     1      56.140  15.035  42.271  1.00  0.00    -0.282 NA
ENDROOT
BRANCH   1   4
HETATM    4  C4  UNL     1      54.968  16.364  43.774  1.00  0.00     0.244 C 
BRANCH   4   5
HETATM    5  N4  UNL     1      56.172  16.498  44.496  1.00  0.00    -0.342 N 
HETATM    6  C3  UNL     1      56.973  17.563  44.159  1.00  0.00     0.281 C 
HETATM    7  N2  UNL     1      58.060  17.564  44.946  1.00  0.00    -0.296 NA
HETATM    8  N3  UNL     1      56.580  18.377  43.109  1.00  0.00    -0.048 NA
ATOM      9  H4  UNL     1      56.435  15.840  45.228  1.00  0.00     0.163 HD
BRANCH   7  10
HETATM   10  N1  UNL     1      59.085  17.409  45.793  1.00  0.00    -0.028 NA
BRANCH  10  11
HETATM   11  C2  UNL     1      60.344  17.780  45.189  1.00  0.00     0.242 C 
HETATM   12  C1  UNL     1      60.701  18.409  43.956  1.00  0.00     0.061 C 
BRANCH  11  13
HETATM   13  O1  UNL     1      61.429  17.486  45.902  1.00  0.00    -0.377 OA
ATOM     14  H1  UNL     1      61.483  16.552  46.066  1.00  0.00     0.211 HD
ENDBRANCH  11  13
ENDBRANCH  10  11
ENDBRANCH   7  10
ENDBRANCH   4   5
ENDBRANCH   1   4
BRANCH   3  15
HETATM   15  N6  UNL     1      56.812  15.469  41.219  1.00  0.00    -0.195 N 
ATOM     16  H6  UNL     1      57.820  15.534  41.359  1.00  0.00     0.205 HD
BRANCH  15  17
HETATM   17  C6  UNL     1      56.387  15.846  39.970  1.00  0.00     0.245 C 
BRANCH  17  18
HETATM   18  O3  UNL     1      57.068  15.359  38.940  1.00  0.00    -0.331 OA
ATOM     19  H3  UNL     1      56.740  15.576  38.075  1.00  0.00     0.221 HD
ENDBRANCH  17  18
BRANCH  17  20
HETATM   20  N7  UNL     1      55.292  16.650  39.735  1.00  0.00    -0.346 N 
HETATM   21  C7  UNL     1      54.227  16.177  38.827  1.00  0.00     0.126 C 
HETATM   22  C8  UNL     1      53.463  17.364  38.459  1.00  0.00     0.021 C 
HETATM   23  C9  UNL     1      53.914  18.495  39.346  1.00  0.00     0.021 C 
HETATM   24  C10 UNL     1      54.890  17.895  40.313  1.00  0.00     0.126 C 
ENDBRANCH  17  20
ENDBRANCH  15  17
ENDBRANCH   3  15
TORSDOF 9
ENDMDL
MODEL 2
REMARK VINA RESULT: -8.470560761      1.426      1.770
REMARK  9 active torsions:
REMARK  status: ('A' for Active; 'I' for Inactive)
REMARK    1  A    between atoms: C2_2  and  O1_3 
REMARK    2  A    between atoms: C2_2  and  N1_5 
REMARK    3  A    between atoms: N1_5  and  N2_6 
REMARK       I    between atoms: N2_6  and  C3_7 
REMARK       I    between atoms: C3_7  and  N4_9 
REMARK    4  A    between atoms: N4_9  and  C4_11 
REMARK    5  A    between atoms: C4_11  and  C5_12 
REMARK       I    between atoms: C5_12  and  N5_14 
REMARK    6  A    between atoms: N5_14  and  N6_15 
REMARK    7  A    between atoms: N6_15  and  C6_17 
REMARK    8  A    between atoms: C6_17  and  O3_18 
REMARK    9  A    between atoms: C6_17  and  N7_20 
ROOT
HETATM    1  C5  UNL     1      55.213  15.114  43.538  1.00  0.00     0.330 C 
HETATM    2  O2  UNL     1      54.581  15.086  44.389  1.00  0.00    -0.253 OA
HETATM    3  N5  UNL     1      55.933  15.165  42.421  1.00  0.00    -0.282 NA
ENDROOT
BRANCH   1   4
HETATM    4  C4  UNL     1      56.788  14.795  44.550  1.00  0.00     0.244 C 
BRANCH   4   5
HETATM    5  N4  UNL     1      57.140  16.151  44.389  1.00  0.00    -0.342 N 
HETATM    6  C3  UNL     1      57.534  16.820  45.522  1.00  0.00     0.281 C 
HETATM    7  N2  UNL     1      57.855  18.083  45.200  1.00  0.00    -0.296 NA
HETATM    8  N3  UNL     1      57.494  16.148  46.733  1.00  0.00    -0.048 NA
ATOM      9  H4  UNL     1      57.104  16.610  43.479  1.00  0.00     0.163 HD
BRANCH   7  10
HETATM   10  N1  UNL     1      58.117  19.303  44.715  1.00  0.00    -0.028 NA
BRANCH  10  11
HETATM   11  C2  UNL     1      59.299  19.310  43.884  1.00  0.00     0.242 C 
HETATM   12  C1  UNL     1      60.429  18.443  43.766  1.00  0.00     0.061 C 
BRANCH  11  13
HETATM   13  O1  UNL     1      59.395  20.330  43.034  1.00  0.00    -0.377 OA
ATOM     14  H1  UNL     1      60.114  20.904  43.273  1.00  0.00     0.211 HD
ENDBRANCH  11  13
ENDBRANCH  10  11
ENDBRANCH   7  10
ENDBRANCH   4   5
ENDBRANCH   1   4
BRANCH   3  15
HETATM   15  N6  UNL     1      56.639  15.217  41.305  1.00  0.00    -0.195 N 
ATOM     16  H6  UNL     1      57.553  14.770  41.362  1.00  0.00     0.205 HD
BRANCH  15  17
HETATM   17  C6  UNL     1      56.352  15.769  40.081  1.00  0.00     0.245 C 
BRANCH  17  18
HETATM   18  O3  UNL     1      57.124  15.396  39.068  1.00  0.00    -0.331 OA
ATOM     19  H3  UNL     1      57.153  14.465  38.878  1.00  0.00     0.221 HD
ENDBRANCH  17  18
BRANCH  17  20
HETATM   20  N7  UNL     1      55.305  16.634  39.849  1.00  0.00    -0.346 N 
HETATM   21  C7  UNL     1      54.270  16.271  38.859  1.00  0.00     0.126 C 
HETATM   22  C8  UNL     1      53.577  17.513  38.536  1.00  0.00     0.021 C 
HETATM   23  C9  UNL     1      54.027  18.562  39.520  1.00  0.00     0.021 C 
HETATM   24  C10 UNL     1      54.926  17.855  40.490  1.00  0.00     0.126 C 
ENDBRANCH  17  20
ENDBRANCH  15  17
ENDBRANCH   3  15
TORSDOF 9
ENDMDL
MODEL 3
REMARK VINA RESULT: -8.408705108      1.554      6.236
REMARK  9 active torsions:
REMARK  status: ('A' for Active; 'I' for Inactive)
REMARK    1  A    between atoms: C2_2  and  O1_3 
REMARK    2  A    between atoms: C2_2  and  N1_5 
REMARK    3  A    between atoms: N1_5  and  N2_6 
REMARK       I    between atoms: N2_6  and  C3_7 
REMARK       I    between atoms: C3_7  and  N4_9 
REMARK    4  A    between atoms: N4_9  and  C4_11 
REMARK    5  A    between atoms: C4_11  and  C5_12 
REMARK       I    between atoms: C5_12  and  N5_14 
REMARK    6  A    between atoms: N5_14  and  N6_15 
REMARK    7  A    between atoms: N6_15  and  C6_17 
REMARK    8  A    between atoms: C6_17  and  O3_18 
REMARK    9  A    between atoms: C6_17  and  N7_20 
ROOT
HETATM    1  C5  UNL     1      54.960  14.982  44.710  1.00  0.00     0.330 C 
HETATM    2  O2  UNL     1      54.340  14.170  44.427  1.00  0.00    -0.253 OA
HETATM    3  N5  UNL     1      55.679  16.021  45.130  1.00  0.00    -0.282 NA
ENDROOT
BRANCH   1   4
HETATM    4  C4  UNL     1      56.249  14.622  43.364  1.00  0.00     0.244 C 
BRANCH   4   5
HETATM    5  N4  UNL     1      55.507  15.422  42.470  1.00  0.00    -0.342 N 
HETATM    6  C3  UNL     1      56.225  16.279  41.672  1.00  0.00     0.281 C 
HETATM    7  N2  UNL     1      55.382  16.946  40.869  1.00  0.00    -0.296 NA
HETATM    8  N3  UNL     1      57.598  16.346  41.846  1.00  0.00    -0.048 NA
ATOM      9  H4  UNL     1      54.490  15.366  42.418  1.00  0.00     0.163 HD
BRANCH   7  10
HETATM   10  N1  UNL     1      54.410  17.533  40.159  1.00  0.00    -0.028 NA
BRANCH  10  11
HETATM   11  C2  UNL     1      54.165  16.846  38.911  1.00  0.00     0.242 C 
HETATM   12  C1  UNL     1      53.053  16.791  38.015  1.00  0.00     0.061 C 
BRANCH  11  13
HETATM   13  O1  UNL     1      55.167  16.089  38.470  1.00  0.00    -0.377 OA
ATOM     14  H1  UNL     1      54.866  15.484  37.802  1.00  0.00     0.211 HD
ENDBRANCH  11  13
ENDBRANCH  10  11
ENDBRANCH   7  10
ENDBRANCH   4   5
ENDBRANCH   1   4
BRANCH   3  15
HETATM   15  N6  UNL     1      56.384  17.054  45.555  1.00  0.00    -0.195 N 
ATOM     16  H6  UNL     1      55.845  17.911  45.680  1.00  0.00     0.205 HD
BRANCH  15  17
HETATM   17  C6  UNL     1      57.718  17.173  45.856  1.00  0.00     0.245 C 
BRANCH  17  18
HETATM   18  O3  UNL     1      58.143  16.514  46.926  1.00  0.00    -0.331 OA
ATOM     19  H3  UNL     1      57.552  15.863  47.286  1.00  0.00     0.221 HD
ENDBRANCH  17  18
BRANCH  17  20
HETATM   20  N7  UNL     1      58.621  17.888  45.101  1.00  0.00    -0.346 N 
HETATM   21  C7  UNL     1      58.143  19.011  44.268  1.00  0.00     0.126 C 
HETATM   22  C8  UNL     1      59.207  19.273  43.305  1.00  0.00     0.021 C 
HETATM   23  C9  UNL     1      60.417  18.481  43.729  1.00  0.00     0.021 C 
HETATM   24  C10 UNL     1      60.049  17.835  45.031  1.00  0.00     0.126 C 
ENDBRANCH  17  20
ENDBRANCH  15  17
ENDBRANCH   3  15
TORSDOF 9
ENDMDL
MODEL 4
REMARK VINA RESULT: -8.200352606      1.900      5.910
REMARK  9 active torsions:
REMARK  status: ('A' for Active; 'I' for Inactive)
REMARK    1  A    between atoms: C2_2  and  O1_3 
REMARK    2  A    between atoms: C2_2  and  N1_5 
REMARK    3  A    between atoms: N1_5  and  N2_6 
REMARK       I    between atoms: N2_6  and  C3_7 
REMARK       I    between atoms: C3_7  and  N4_9 
REMARK    4  A    between atoms: N4_9  and  C4_11 
REMARK    5  A    between atoms: C4_11  and  C5_12 
REMARK       I    between atoms: C5_12  and  N5_14 
REMARK    6  A    between atoms: N5_14  and  N6_15 
REMARK    7  A    between atoms: N6_15  and  C6_17 
REMARK    8  A    between atoms: C6_17  and  O3_18 
REMARK    9  A    between atoms: C6_17  and  N7_20 
ROOT
HETATM    1  C5  UNL     1      60.176  17.692  44.427  1.00  0.00     0.330 C 
HETATM    2  O2  UNL     1      60.982  17.883  43.765  1.00  0.00    -0.253 OA
HETATM    3  N5  UNL     1      59.216  17.388  45.297  1.00  0.00    -0.282 NA
ENDROOT
BRANCH   1   4
HETATM    4  C4  UNL     1      59.067  19.023  43.652  1.00  0.00     0.244 C 
BRANCH   4   5
HETATM    5  N4  UNL     1      58.701  18.103  42.648  1.00  0.00    -0.342 N 
HETATM    6  C3  UNL     1      57.361  18.013  42.358  1.00  0.00     0.281 C 
HETATM    7  N2  UNL     1      57.182  17.118  41.373  1.00  0.00    -0.296 NA
HETATM    8  N3  UNL     1      56.473  18.769  43.104  1.00  0.00    -0.048 NA
ATOM      9  H4  UNL     1      59.395  17.535  42.162  1.00  0.00     0.163 HD
BRANCH   7  10
HETATM   10  N1  UNL     1      57.178  16.192  40.406  1.00  0.00    -0.028 NA
BRANCH  10  11
HETATM   11  C2  UNL     1      55.919  16.161  39.696  1.00  0.00     0.242 C 
HETATM   12  C1  UNL     1      54.850  15.216  39.621  1.00  0.00     0.061 C 
BRANCH  11  13
HETATM   13  O1  UNL     1      55.667  17.223  38.934  1.00  0.00    -0.377 OA
ATOM     14  H1  UNL     1      56.474  17.607  38.611  1.00  0.00     0.211 HD
ENDBRANCH  11  13
ENDBRANCH  10  11
ENDBRANCH   7  10
ENDBRANCH   4   5
ENDBRANCH   1   4
BRANCH   3  15
HETATM   15  N6  UNL     1      58.269  17.078  46.164  1.00  0.00    -0.195 N 
ATOM     16  H6  UNL     1      58.203  17.710  46.961  1.00  0.00     0.205 HD
BRANCH  15  17
HETATM   17  C6  UNL     1      57.359  16.050  46.177  1.00  0.00     0.245 C 
BRANCH  17  18
HETATM   18  O3  UNL     1      57.216  15.401  47.325  1.00  0.00    -0.331 OA
ATOM     19  H3  UNL     1      57.141  15.935  48.108  1.00  0.00     0.221 HD
ENDBRANCH  17  18
BRANCH  17  20
HETATM   20  N7  UNL     1      56.577  15.696  45.099  1.00  0.00    -0.346 N 
HETATM   21  C7  UNL     1      55.242  16.308  44.939  1.00  0.00     0.126 C 
HETATM   22  C8  UNL     1      54.522  15.452  44.002  1.00  0.00     0.021 C 
HETATM   23  C9  UNL     1      55.512  14.482  43.411  1.00  0.00     0.021 C 
HETATM   24  C10 UNL     1      56.850  14.875  43.960  1.00  0.00     0.126 C 
ENDBRANCH  17  20
ENDBRANCH  15  17
ENDBRANCH   3  15
TORSDOF 9
ENDMDL
MODEL 5
REMARK VINA RESULT: -8.155528982      1.904      6.036
REMARK  9 active torsions:
REMARK  status: ('A' for Active; 'I' for Inactive)
REMARK    1  A    between atoms: C2_2  and  O1_3 
REMARK    2  A    between atoms: C2_2  and  N1_5 
REMARK    3  A    between atoms: N1_5  and  N2_6 
REMARK       I    between atoms: N2_6  and  C3_7 
REMARK       I    between atoms: C3_7  and  N4_9 
REMARK    4  A    between atoms: N4_9  and  C4_11 
REMARK    5  A    between atoms: C4_11  and  C5_12 
REMARK       I    between atoms: C5_12  and  N5_14 
REMARK    6  A    between atoms: N5_14  and  N6_15 
REMARK    7  A    between atoms: N6_15  and  C6_17 
REMARK    8  A    between atoms: C6_17  and  O3_18 
REMARK    9  A    between atoms: C6_17  and  N7_20 
ROOT
HETATM    1  C5  UNL     1      54.980  14.843  44.812  1.00  0.00     0.330 C 
HETATM    2  O2  UNL     1      54.384  14.033  44.478  1.00  0.00    -0.253 OA
HETATM    3  N5  UNL     1      55.671  15.871  45.300  1.00  0.00    -0.282 NA
ENDROOT
BRANCH   1   4
HETATM    4  C4  UNL     1      56.211  14.686  43.375  1.00  0.00     0.244 C 
BRANCH   4   5
HETATM    5  N4  UNL     1      55.699  15.884  42.834  1.00  0.00    -0.342 N 
HETATM    6  C3  UNL     1      56.201  16.268  41.614  1.00  0.00     0.281 C 
HETATM    7  N2  UNL     1      55.601  17.406  41.229  1.00  0.00    -0.296 NA
HETATM    8  N3  UNL     1      57.203  15.502  41.042  1.00  0.00    -0.048 NA
ATOM      9  H4  UNL     1      54.995  16.435  43.323  1.00  0.00     0.163 HD
BRANCH   7  10
HETATM   10  N1  UNL     1      54.925  18.540  41.006  1.00  0.00    -0.028 NA
BRANCH  10  11
HETATM   11  C2  UNL     1      54.215  18.505  39.747  1.00  0.00     0.242 C 
HETATM   12  C1  UNL     1      53.818  17.452  38.866  1.00  0.00     0.061 C 
BRANCH  11  13
HETATM   13  O1  UNL     1      53.836  19.689  39.272  1.00  0.00    -0.377 OA
ATOM     14  H1  UNL     1      52.899  19.810  39.375  1.00  0.00     0.211 HD
ENDBRANCH  11  13
ENDBRANCH  10  11
ENDBRANCH   7  10
ENDBRANCH   4   5
ENDBRANCH   1   4
BRANCH   3  15
HETATM   15  N6  UNL     1      56.349  16.892  45.793  1.00  0.00    -0.195 N 
ATOM     16  H6  UNL     1      55.771  17.672  46.104  1.00  0.00     0.205 HD
BRANCH  15  17
HETATM   17  C6  UNL     1      57.698  17.083  45.959  1.00  0.00     0.245 C 
BRANCH  17  18
HETATM   18  O3  UNL     1      58.258  16.479  47.000  1.00  0.00    -0.331 OA
ATOM     19  H3  UNL     1      59.037  15.965  46.822  1.00  0.00     0.221 HD
ENDBRANCH  17  18
BRANCH  17  20
HETATM   20  N7  UNL     1      58.487  17.814  45.098  1.00  0.00    -0.346 N 
HETATM   21  C7  UNL     1      57.849  18.649  44.060  1.00  0.00     0.126 C 
HETATM   22  C8  UNL     1      58.894  18.938  43.084  1.00  0.00     0.021 C 
HETATM   23  C9  UNL     1      60.208  18.493  43.671  1.00  0.00     0.021 C 
HETATM   24  C10 UNL     1      59.900  18.034  45.065  1.00  0.00     0.126 C 
ENDBRANCH  17  20
ENDBRANCH  15  17
ENDBRANCH   3  15
TORSDOF 9
ENDMDL
