MODEL 1
REMARK VINA RESULT: -9.106083059      0.000      0.000
REMARK  6 active torsions:
REMARK  status: ('A' for Active; 'I' for Inactive)
REMARK    1  A    between atoms: S1_2  and  C2_3 
REMARK    2  A    between atoms: C3_8  and  C4_9 
REMARK    3  A    between atoms: C4_9  and  N3_10 
REMARK    4  A    between atoms: N3_10  and  C5_12 
REMARK    5  A    between atoms: C7_18  and  O1_19 
REMARK    6  A    between atoms: C7_18  and  C8_21 
ROOT
HETATM    1  C5  UNL     1      20.456   7.387   2.571  1.00  0.00     0.124 A 
HETATM    2  N4  UNL     1      20.379   6.443   1.637  1.00  0.00    -0.285 N 
ATOM      3  H4  UNL     1      19.791   5.610   1.672  1.00  0.00     0.188 HD
HETATM    4  N5  UNL     1      21.196   6.773   0.658  1.00  0.00    -0.296 N 
ATOM      5  H5  UNL     1      21.333   6.223  -0.189  1.00  0.00     0.187 HD
HETATM    6  C6  UNL     1      21.839   7.954   0.926  1.00  0.00     0.087 A 
HETATM    7  C7  UNL     1      22.770   8.550   0.030  1.00  0.00     0.080 C 
HETATM    8  C16 UNL     1      21.375   8.361   2.146  1.00  0.00     0.014 A 
HETATM    9  C17 UNL     1      21.679   9.540   2.957  1.00  0.00     0.055 C 
ENDROOT
BRANCH   1  10
HETATM   10  N3  UNL     1      19.796   7.394   3.671  1.00  0.00    -0.369 N 
ATOM     11  H3  UNL     1      20.207   7.858   4.481  1.00  0.00     0.161 HD
BRANCH  10  12
HETATM   12  C4  UNL     1      18.496   6.775   3.817  1.00  0.00     0.187 C 
BRANCH  12  13
HETATM   13  C3  UNL     1      18.626   5.444   4.514  1.00  0.00     0.086 A 
HETATM   14  N2  UNL     1      17.675   4.730   5.110  1.00  0.00    -0.295 N 
HETATM   15  N1  UNL     1      17.965   3.624   5.648  1.00  0.00    -0.287 N 
ATOM     16  H2  UNL     1      16.715   5.073   5.132  1.00  0.00     0.187 HD
HETATM   17  C2  UNL     1      19.218   3.182   5.614  1.00  0.00     0.128 A 
ATOM     18  H1  UNL     1      17.240   3.074   6.107  1.00  0.00     0.188 HD
HETATM   19  S2  UNL     1      19.993   4.446   4.757  1.00  0.00    -0.048 SA
BRANCH  17  20
HETATM   20  S1  UNL     1      19.887   1.651   6.300  1.00  0.00    -0.108 SA
HETATM   21  C1  UNL     1      20.025   1.870   8.075  1.00  0.00     0.097 C 
ENDBRANCH  17  20
ENDBRANCH  12  13
ENDBRANCH  10  12
ENDBRANCH   1  10
BRANCH   7  22
HETATM   22  O1  UNL     1      22.931   7.861  -1.087  1.00  0.00    -0.362 OA
ATOM     23  H1  UNL     1      22.923   8.404  -1.866  1.00  0.00     0.217 HD
ENDBRANCH   7  22
BRANCH   7  24
HETATM   24  C8  UNL     1      23.597   9.736   0.039  1.00  0.00     0.012 C 
HETATM   25  C9  UNL     1      24.540   9.965   1.150  1.00  0.00     0.021 C 
HETATM   26  C10 UNL     1      25.527  10.990   0.549  1.00  0.00    -0.009 C 
HETATM   27  C11 UNL     1      24.802  12.342   0.535  1.00  0.00     0.010 C 
HETATM   28  C14 UNL     1      25.322  10.932  -0.913  1.00  0.00    -0.005 C 
HETATM   29  C12 UNL     1      24.178  11.871  -0.771  1.00  0.00    -0.009 C 
HETATM   30  C13 UNL     1      22.952  11.002  -0.465  1.00  0.00     0.021 C 
HETATM   31  C15 UNL     1      24.669   9.614  -1.122  1.00  0.00     0.021 C 
ENDBRANCH   7  24
TORSDOF 6
ENDMDL
MODEL 2
REMARK VINA RESULT: -8.585538453      0.444      1.125
REMARK  6 active torsions:
REMARK  status: ('A' for Active; 'I' for Inactive)
REMARK    1  A    between atoms: S1_2  and  C2_3 
REMARK    2  A    between atoms: C3_8  and  C4_9 
REMARK    3  A    between atoms: C4_9  and  N3_10 
REMARK    4  A    between atoms: N3_10  and  C5_12 
REMARK    5  A    between atoms: C7_18  and  O1_19 
REMARK    6  A    between atoms: C7_18  and  C8_21 
ROOT
HETATM    1  C5  UNL     1      20.467   7.157   2.702  1.00  0.00     0.124 A 
HETATM    2  N4  UNL     1      20.495   6.095   1.901  1.00  0.00    -0.285 N 
ATOM      3  H4  UNL     1      20.008   5.212   2.058  1.00  0.00     0.188 HD
HETATM    4  N5  UNL     1      21.261   6.384   0.869  1.00  0.00    -0.296 N 
ATOM      5  H5  UNL     1      21.456   5.745   0.099  1.00  0.00     0.187 HD
HETATM    6  C6  UNL     1      21.763   7.655   0.967  1.00  0.00     0.087 A 
HETATM    7  C7  UNL     1      22.613   8.230  -0.020  1.00  0.00     0.080 C 
HETATM    8  C16 UNL     1      21.264   8.164   2.133  1.00  0.00     0.014 A 
HETATM    9  C17 UNL     1      21.433   9.467   2.776  1.00  0.00     0.055 C 
ENDROOT
BRANCH   1  10
HETATM   10  N3  UNL     1      19.818   7.234   3.805  1.00  0.00    -0.369 N 
ATOM     11  H3  UNL     1      20.255   7.710   4.594  1.00  0.00     0.161 HD
BRANCH  10  12
HETATM   12  C4  UNL     1      18.494   6.677   3.984  1.00  0.00     0.187 C 
BRANCH  12  13
HETATM   13  C3  UNL     1      18.581   5.318   4.633  1.00  0.00     0.086 A 
HETATM   14  N2  UNL     1      17.586   4.538   5.048  1.00  0.00    -0.295 N 
HETATM   15  N1  UNL     1      17.845   3.419   5.574  1.00  0.00    -0.287 N 
ATOM     16  H2  UNL     1      16.619   4.842   4.942  1.00  0.00     0.187 HD
HETATM   17  C2  UNL     1      19.109   3.028   5.708  1.00  0.00     0.128 A 
ATOM     18  H1  UNL     1      17.087   2.818   5.895  1.00  0.00     0.188 HD
HETATM   19  S2  UNL     1      19.941   4.363   5.033  1.00  0.00    -0.048 SA
BRANCH  17  20
HETATM   20  S1  UNL     1      19.739   1.491   6.418  1.00  0.00    -0.108 SA
HETATM   21  C1  UNL     1      20.306   1.858   8.080  1.00  0.00     0.097 C 
ENDBRANCH  17  20
ENDBRANCH  12  13
ENDBRANCH  10  12
ENDBRANCH   1  10
BRANCH   7  22
HETATM   22  O1  UNL     1      22.846   7.422  -1.040  1.00  0.00    -0.362 OA
ATOM     23  H1  UNL     1      23.420   7.803  -1.695  1.00  0.00     0.217 HD
ENDBRANCH   7  22
BRANCH   7  24
HETATM   24  C8  UNL     1      23.296   9.494  -0.184  1.00  0.00     0.012 C 
HETATM   25  C9  UNL     1      22.520  10.749  -0.213  1.00  0.00     0.021 C 
HETATM   26  C10 UNL     1      23.591  11.815   0.106  1.00  0.00    -0.009 C 
HETATM   27  C11 UNL     1      24.428  11.992  -1.167  1.00  0.00     0.010 C 
HETATM   28  C14 UNL     1      24.733  11.074   0.682  1.00  0.00    -0.005 C 
HETATM   29  C12 UNL     1      25.207  10.773  -0.696  1.00  0.00    -0.009 C 
HETATM   30  C13 UNL     1      24.471   9.499  -1.128  1.00  0.00     0.021 C 
HETATM   31  C15 UNL     1      24.129   9.794   1.131  1.00  0.00     0.021 C 
ENDBRANCH   7  24
TORSDOF 6
ENDMDL
MODEL 3
REMARK VINA RESULT: -8.062712584      0.456      1.147
REMARK  6 active torsions:
REMARK  status: ('A' for Active; 'I' for Inactive)
REMARK    1  A    between atoms: S1_2  and  C2_3 
REMARK    2  A    between atoms: C3_8  and  C4_9 
REMARK    3  A    between atoms: C4_9  and  N3_10 
REMARK    4  A    between atoms: N3_10  and  C5_12 
REMARK    5  A    between atoms: C7_18  and  O1_19 
REMARK    6  A    between atoms: C7_18  and  C8_21 
ROOT
HETATM    1  C5  UNL     1      20.322   7.214   2.673  1.00  0.00     0.124 A 
HETATM    2  N4  UNL     1      20.107   6.312   1.718  1.00  0.00    -0.285 N 
ATOM      3  H4  UNL     1      19.458   5.526   1.770  1.00  0.00     0.188 HD
HETATM    4  N5  UNL     1      20.878   6.613   0.694  1.00  0.00    -0.296 N 
ATOM      5  H5  UNL     1      20.913   6.083  -0.177  1.00  0.00     0.187 HD
HETATM    6  C6  UNL     1      21.629   7.730   0.951  1.00  0.00     0.087 A 
HETATM    7  C7  UNL     1      22.542   8.283   0.010  1.00  0.00     0.080 C 
HETATM    8  C16 UNL     1      21.284   8.128   2.213  1.00  0.00     0.014 A 
HETATM    9  C17 UNL     1      21.736   9.250   3.035  1.00  0.00     0.055 C 
ENDROOT
BRANCH   1  10
HETATM   10  N3  UNL     1      19.741   7.233   3.816  1.00  0.00    -0.369 N 
ATOM     11  H3  UNL     1      20.230   7.661   4.602  1.00  0.00     0.161 HD
BRANCH  10  12
HETATM   12  C4  UNL     1      18.425   6.675   4.044  1.00  0.00     0.187 C 
BRANCH  12  13
HETATM   13  C3  UNL     1      18.537   5.311   4.676  1.00  0.00     0.086 A 
HETATM   14  N2  UNL     1      17.560   4.526   5.122  1.00  0.00    -0.295 N 
HETATM   15  N1  UNL     1      17.839   3.402   5.628  1.00  0.00    -0.287 N 
ATOM     16  H2  UNL     1      16.588   4.831   5.057  1.00  0.00     0.187 HD
HETATM   17  C2  UNL     1      19.106   3.010   5.709  1.00  0.00     0.128 A 
ATOM     18  H1  UNL     1      17.093   2.798   5.972  1.00  0.00     0.188 HD
HETATM   19  S2  UNL     1      19.912   4.352   5.014  1.00  0.00    -0.048 SA
BRANCH  17  20
HETATM   20  S1  UNL     1      19.764   1.468   6.379  1.00  0.00    -0.108 SA
HETATM   21  C1  UNL     1      20.302   1.795   8.058  1.00  0.00     0.097 C 
ENDBRANCH  17  20
ENDBRANCH  12  13
ENDBRANCH  10  12
ENDBRANCH   1  10
BRANCH   7  22
HETATM   22  O1  UNL     1      22.571   7.624  -1.135  1.00  0.00    -0.362 OA
ATOM     23  H1  UNL     1      22.499   8.190  -1.895  1.00  0.00     0.217 HD
ENDBRANCH   7  22
BRANCH   7  24
HETATM   24  C8  UNL     1      23.459   9.401  -0.004  1.00  0.00     0.012 C 
HETATM   25  C9  UNL     1      24.341   9.612  -1.168  1.00  0.00     0.021 C 
HETATM   26  C10 UNL     1      24.744  11.096  -1.021  1.00  0.00    -0.009 C 
HETATM   27  C11 UNL     1      25.779  11.161   0.110  1.00  0.00     0.010 C 
HETATM   28  C14 UNL     1      23.768  11.684  -0.080  1.00  0.00    -0.005 C 
HETATM   29  C12 UNL     1      24.586  11.179   1.055  1.00  0.00    -0.009 C 
HETATM   30  C13 UNL     1      24.116   9.742   1.310  1.00  0.00     0.021 C 
HETATM   31  C15 UNL     1      22.622  10.741  -0.132  1.00  0.00     0.021 C 
ENDBRANCH   7  24
TORSDOF 6
ENDMDL
MODEL 4
REMARK VINA RESULT: -7.280514914      1.489      1.931
REMARK  6 active torsions:
REMARK  status: ('A' for Active; 'I' for Inactive)
REMARK    1  A    between atoms: S1_2  and  C2_3 
REMARK    2  A    between atoms: C3_8  and  C4_9 
REMARK    3  A    between atoms: C4_9  and  N3_10 
REMARK    4  A    between atoms: N3_10  and  C5_12 
REMARK    5  A    between atoms: C7_18  and  O1_19 
REMARK    6  A    between atoms: C7_18  and  C8_21 
ROOT
HETATM    1  C5  UNL     1      20.003   7.321   3.239  1.00  0.00     0.124 A 
HETATM    2  N4  UNL     1      20.627   7.412   4.411  1.00  0.00    -0.285 N 
ATOM      3  H4  UNL     1      20.334   6.968   5.282  1.00  0.00     0.188 HD
HETATM    4  N5  UNL     1      21.686   8.178   4.249  1.00  0.00    -0.296 N 
ATOM      5  H5  UNL     1      22.344   8.415   4.991  1.00  0.00     0.187 HD
HETATM    6  C6  UNL     1      21.788   8.615   2.954  1.00  0.00     0.087 A 
HETATM    7  C7  UNL     1      22.847   9.450   2.500  1.00  0.00     0.080 C 
HETATM    8  C16 UNL     1      20.720   8.075   2.294  1.00  0.00     0.014 A 
HETATM    9  C17 UNL     1      20.290   8.171   0.899  1.00  0.00     0.055 C 
ENDROOT
BRANCH   1  10
HETATM   10  N3  UNL     1      18.930   6.654   3.022  1.00  0.00    -0.369 N 
ATOM     11  H3  UNL     1      18.761   6.298   2.081  1.00  0.00     0.161 HD
BRANCH  10  12
HETATM   12  C4  UNL     1      17.947   6.382   4.049  1.00  0.00     0.187 C 
BRANCH  12  13
HETATM   13  C3  UNL     1      18.236   5.060   4.714  1.00  0.00     0.086 A 
HETATM   14  N2  UNL     1      17.381   4.229   5.303  1.00  0.00    -0.295 N 
HETATM   15  N1  UNL     1      17.802   3.153   5.813  1.00  0.00    -0.287 N 
ATOM     16  H2  UNL     1      16.388   4.460   5.343  1.00  0.00     0.187 HD
HETATM   17  C2  UNL     1      19.097   2.857   5.756  1.00  0.00     0.128 A 
ATOM     18  H1  UNL     1      17.150   2.513   6.267  1.00  0.00     0.188 HD
HETATM   19  S2  UNL     1      19.711   4.219   4.920  1.00  0.00    -0.048 SA
BRANCH  17  20
HETATM   20  S1  UNL     1      19.944   1.398   6.400  1.00  0.00    -0.108 SA
HETATM   21  C1  UNL     1      20.303   1.703   8.131  1.00  0.00     0.097 C 
ENDBRANCH  17  20
ENDBRANCH  12  13
ENDBRANCH  10  12
ENDBRANCH   1  10
BRANCH   7  22
HETATM   22  O1  UNL     1      23.726   9.737   3.445  1.00  0.00    -0.362 OA
ATOM     23  H1  UNL     1      23.940  10.661   3.489  1.00  0.00     0.217 HD
ENDBRANCH   7  22
BRANCH   7  24
HETATM   24  C8  UNL     1      23.205  10.071   1.245  1.00  0.00     0.012 C 
HETATM   25  C9  UNL     1      24.576  10.578   1.041  1.00  0.00     0.021 C 
HETATM   26  C10 UNL     1      24.676  10.673  -0.497  1.00  0.00    -0.009 C 
HETATM   27  C11 UNL     1      23.872  11.912  -0.914  1.00  0.00     0.010 C 
HETATM   28  C14 UNL     1      23.566   9.851  -1.021  1.00  0.00    -0.005 C 
HETATM   29  C12 UNL     1      22.649  11.008  -0.844  1.00  0.00    -0.009 C 
HETATM   30  C13 UNL     1      22.150  10.937   0.604  1.00  0.00     0.021 C 
HETATM   31  C15 UNL     1      23.225   8.958   0.116  1.00  0.00     0.021 C 
ENDBRANCH   7  24
TORSDOF 6
ENDMDL
MODEL 5
REMARK VINA RESULT: -7.165273892      1.468      2.099
REMARK  6 active torsions:
REMARK  status: ('A' for Active; 'I' for Inactive)
REMARK    1  A    between atoms: S1_2  and  C2_3 
REMARK    2  A    between atoms: C3_8  and  C4_9 
REMARK    3  A    between atoms: C4_9  and  N3_10 
REMARK    4  A    between atoms: N3_10  and  C5_12 
REMARK    5  A    between atoms: C7_18  and  O1_19 
REMARK    6  A    between atoms: C7_18  and  C8_21 
ROOT
HETATM    1  C5  UNL     1      20.020   7.320   3.196  1.00  0.00     0.124 A 
HETATM    2  N4  UNL     1      20.686   7.450   4.340  1.00  0.00    -0.285 N 
ATOM      3  H4  UNL     1      20.434   7.024   5.232  1.00  0.00     0.188 HD
HETATM    4  N5  UNL     1      21.728   8.224   4.118  1.00  0.00    -0.296 N 
ATOM      5  H5  UNL     1      22.411   8.489   4.828  1.00  0.00     0.187 HD
HETATM    6  C6  UNL     1      21.774   8.629   2.809  1.00  0.00     0.087 A 
HETATM    7  C7  UNL     1      22.804   9.465   2.293  1.00  0.00     0.080 C 
HETATM    8  C16 UNL     1      20.690   8.058   2.205  1.00  0.00     0.014 A 
HETATM    9  C17 UNL     1      20.205   8.112   0.826  1.00  0.00     0.055 C 
ENDROOT
BRANCH   1  10
HETATM   10  N3  UNL     1      18.949   6.633   3.037  1.00  0.00    -0.369 N 
ATOM     11  H3  UNL     1      18.759   6.235   2.118  1.00  0.00     0.161 HD
BRANCH  10  12
HETATM   12  C4  UNL     1      17.997   6.397   4.102  1.00  0.00     0.187 C 
BRANCH  12  13
HETATM   13  C3  UNL     1      18.259   5.062   4.752  1.00  0.00     0.086 A 
HETATM   14  N2  UNL     1      17.383   4.230   5.308  1.00  0.00    -0.295 N 
HETATM   15  N1  UNL     1      17.783   3.142   5.810  1.00  0.00    -0.287 N 
ATOM     16  H2  UNL     1      16.392   4.469   5.329  1.00  0.00     0.187 HD
HETATM   17  C2  UNL     1      19.076   2.834   5.778  1.00  0.00     0.128 A 
ATOM     18  H1  UNL     1      17.115   2.501   6.239  1.00  0.00     0.188 HD
HETATM   19  S2  UNL     1      19.721   4.204   4.978  1.00  0.00    -0.048 SA
BRANCH  17  20
HETATM   20  S1  UNL     1      19.896   1.358   6.417  1.00  0.00    -0.108 SA
HETATM   21  C1  UNL     1      20.315   1.674   8.132  1.00  0.00     0.097 C 
ENDBRANCH  17  20
ENDBRANCH  12  13
ENDBRANCH  10  12
ENDBRANCH   1  10
BRANCH   7  22
HETATM   22  O1  UNL     1      23.714   9.788   3.197  1.00  0.00    -0.362 OA
ATOM     23  H1  UNL     1      24.406   9.141   3.279  1.00  0.00     0.217 HD
ENDBRANCH   7  22
BRANCH   7  24
HETATM   24  C8  UNL     1      23.105  10.058   1.010  1.00  0.00     0.012 C 
HETATM   25  C9  UNL     1      22.275  11.166   0.500  1.00  0.00     0.021 C 
HETATM   26  C10 UNL     1      23.188  11.809  -0.567  1.00  0.00    -0.009 C 
HETATM   27  C11 UNL     1      23.163  10.878  -1.786  1.00  0.00     0.010 C 
HETATM   28  C14 UNL     1      24.548  11.306  -0.285  1.00  0.00    -0.005 C 
HETATM   29  C12 UNL     1      24.232  10.076  -1.059  1.00  0.00    -0.009 C 
HETATM   30  C13 UNL     1      23.564   9.112  -0.071  1.00  0.00     0.021 C 
HETATM   31  C15 UNL     1      24.469  10.859   1.130  1.00  0.00     0.021 C 
ENDBRANCH   7  24
TORSDOF 6
ENDMDL
