MODEL 1
REMARK VINA RESULT: -8.694585397      0.000      0.000
REMARK  4 active torsions:
REMARK  status: ('A' for Active; 'I' for Inactive)
REMARK    1  A    between atoms: C6_8  and  N2_9 
REMARK    2  A    between atoms: N2_9  and  C7_11 
REMARK    3  A    between atoms: N3_15  and  C11_16 
REMARK    4  A    between atoms: N5_24  and  C17_25 
ROOT
HETATM    1  C1  UNL     1      22.175   8.512   4.727  1.00  0.00     0.018 A 
HETATM    2  C2  UNL     1      22.669   9.649   4.121  1.00  0.00     0.090 A 
HETATM    3  N1  UNL     1      22.671   9.777   2.788  1.00  0.00    -0.350 N 
ATOM      4  H1  UNL     1      23.041  10.625   2.359  1.00  0.00     0.166 HD
HETATM    5  C3  UNL     1      22.188   8.792   2.014  1.00  0.00     0.136 A 
HETATM    6  C4  UNL     1      21.689   7.645   2.588  1.00  0.00     0.055 A 
HETATM    7  C5  UNL     1      21.674   7.485   3.956  1.00  0.00     0.020 A 
HETATM    8  C6  UNL     1      21.276   6.832   1.534  1.00  0.00     0.130 A 
HETATM    9  N4  UNL     1      21.541   7.518   0.405  1.00  0.00    -0.281 N 
ATOM     10  H4  UNL     1      21.345   7.174  -0.534  1.00  0.00     0.189 HD
HETATM   11  N5  UNL     1      22.084   8.686   0.665  1.00  0.00    -0.269 N 
ENDROOT
BRANCH   8  12
HETATM   12  N2  UNL     1      20.689   5.546   1.701  1.00  0.00    -0.368 N 
ATOM     13  H2  UNL     1      21.026   4.768   1.134  1.00  0.00     0.161 HD
BRANCH  12  14
HETATM   14  C7  UNL     1      19.627   5.314   2.653  1.00  0.00     0.111 C 
HETATM   15  C8  UNL     1      18.748   6.499   2.760  1.00  0.00     0.028 C 
HETATM   16  C9  UNL     1      18.069   6.650   4.097  1.00  0.00     0.032 C 
HETATM   17  C10 UNL     1      17.875   5.220   4.616  1.00  0.00     0.273 C 
HETATM   18  N3  UNL     1      19.204   4.786   5.016  1.00  0.00     0.095 N 
HETATM   19  C16 UNL     1      20.135   4.768   3.950  1.00  0.00     0.297 C 
BRANCH  18  20
HETATM   20  C11 UNL     1      19.045   3.502   5.644  1.00  0.00     0.223 C 
HETATM   21  C12 UNL     1      20.306   2.742   5.852  1.00  0.00     0.036 C 
HETATM   22  C13 UNL     1      19.855   1.604   6.771  1.00  0.00     0.002 C 
HETATM   23  C14 UNL     1      18.597   2.085   7.452  1.00  0.00     0.002 C 
HETATM   24  C15 UNL     1      18.414   3.543   7.004  1.00  0.00     0.036 C 
ENDBRANCH  18  20
ENDBRANCH  12  14
ENDBRANCH   8  12
BRANCH  11  25
HETATM   25  C17 UNL     1      22.513   9.719  -0.279  1.00  0.00     0.113 C 
HETATM   26  C18 UNL     1      23.999   9.800  -0.421  1.00  0.00     0.055 C 
HETATM   27  C19 UNL     1      24.525  11.218  -0.204  1.00  0.00     0.234 C 
HETATM   28  N6  UNL     1      23.744  12.183  -0.923  1.00  0.00    -0.075 N 
HETATM   29  C20 UNL     1      22.360  12.219  -0.562  1.00  0.00     0.234 C 
ATOM     30  H62 UNL     1      24.158  13.111  -0.833  1.00  0.00     0.277 HD
ATOM     31  H61 UNL     1      23.845  12.043  -1.928  1.00  0.00     0.277 HD
HETATM   32  C21 UNL     1      21.909  11.013   0.205  1.00  0.00     0.055 C 
ENDBRANCH  11  25
TORSDOF 4
ENDMDL
MODEL 2
REMARK VINA RESULT: -7.662357046      1.654      8.085
REMARK  4 active torsions:
REMARK  status: ('A' for Active; 'I' for Inactive)
REMARK    1  A    between atoms: C6_8  and  N2_9 
REMARK    2  A    between atoms: N2_9  and  C7_11 
REMARK    3  A    between atoms: N3_15  and  C11_16 
REMARK    4  A    between atoms: N5_24  and  C17_25 
ROOT
HETATM    1  C1  UNL     1      22.412   8.475   5.007  1.00  0.00     0.018 A 
HETATM    2  C2  UNL     1      22.004   7.423   5.802  1.00  0.00     0.090 A 
HETATM    3  N1  UNL     1      20.996   6.624   5.427  1.00  0.00    -0.350 N 
ATOM      4  H1  UNL     1      20.709   5.853   6.029  1.00  0.00     0.166 HD
HETATM    5  C3  UNL     1      20.363   6.836   4.263  1.00  0.00     0.136 A 
HETATM    6  C4  UNL     1      20.746   7.877   3.448  1.00  0.00     0.055 A 
HETATM    7  C5  UNL     1      21.778   8.716   3.807  1.00  0.00     0.020 A 
HETATM    8  C6  UNL     1      19.907   7.828   2.337  1.00  0.00     0.130 A 
HETATM    9  N4  UNL     1      19.082   6.783   2.536  1.00  0.00    -0.281 N 
ATOM     10  H4  UNL     1      18.352   6.497   1.884  1.00  0.00     0.189 HD
HETATM   11  N5  UNL     1      19.333   6.177   3.674  1.00  0.00    -0.269 N 
ENDROOT
BRANCH   8  12
HETATM   12  N2  UNL     1      19.979   8.737   1.243  1.00  0.00    -0.368 N 
ATOM     13  H2  UNL     1      19.223   9.407   1.103  1.00  0.00     0.161 HD
BRANCH  12  14
HETATM   14  C7  UNL     1      21.095   8.732   0.324  1.00  0.00     0.111 C 
HETATM   15  C8  UNL     1      21.306   7.382  -0.241  1.00  0.00     0.028 C 
HETATM   16  C9  UNL     1      22.729   7.093  -0.644  1.00  0.00     0.032 C 
HETATM   17  C10 UNL     1      23.314   8.448  -1.063  1.00  0.00     0.273 C 
HETATM   18  N3  UNL     1      23.510   9.170   0.184  1.00  0.00     0.095 N 
HETATM   19  C16 UNL     1      22.309   9.387   0.903  1.00  0.00     0.297 C 
BRANCH  18  20
HETATM   20  C11 UNL     1      24.192  10.391  -0.151  1.00  0.00     0.223 C 
HETATM   21  C12 UNL     1      23.310  11.570  -0.355  1.00  0.00     0.036 C 
HETATM   22  C13 UNL     1      24.312  12.726  -0.399  1.00  0.00     0.002 C 
HETATM   23  C14 UNL     1      25.549  12.239   0.317  1.00  0.00     0.002 C 
HETATM   24  C15 UNL     1      25.190  10.852   0.870  1.00  0.00     0.036 C 
ENDBRANCH  18  20
ENDBRANCH  12  14
ENDBRANCH   8  12
BRANCH  11  25
HETATM   25  C17 UNL     1      18.665   5.009   4.249  1.00  0.00     0.113 C 
HETATM   26  C18 UNL     1      17.595   5.371   5.229  1.00  0.00     0.055 C 
HETATM   27  C19 UNL     1      17.772   4.658   6.569  1.00  0.00     0.234 C 
HETATM   28  N6  UNL     1      18.050   3.263   6.388  1.00  0.00    -0.075 N 
HETATM   29  C20 UNL     1      19.235   2.983   5.636  1.00  0.00     0.234 C 
ATOM     30  H62 UNL     1      18.083   2.788   7.290  1.00  0.00     0.277 HD
ATOM     31  H61 UNL     1      17.246   2.792   5.972  1.00  0.00     0.277 HD
HETATM   32  C21 UNL     1      19.749   4.162   4.866  1.00  0.00     0.055 C 
ENDBRANCH  11  25
TORSDOF 4
ENDMDL
MODEL 3
REMARK VINA RESULT: -7.439928892      1.158      1.811
REMARK  4 active torsions:
REMARK  status: ('A' for Active; 'I' for Inactive)
REMARK    1  A    between atoms: C6_8  and  N2_9 
REMARK    2  A    between atoms: N2_9  and  C7_11 
REMARK    3  A    between atoms: N3_15  and  C11_16 
REMARK    4  A    between atoms: N5_24  and  C17_25 
ROOT
HETATM    1  C1  UNL     1      22.314   7.678   4.837  1.00  0.00     0.018 A 
HETATM    2  C2  UNL     1      22.934   8.910   4.771  1.00  0.00     0.090 A 
HETATM    3  N1  UNL     1      23.097   9.540   3.601  1.00  0.00    -0.350 N 
ATOM      4  H1  UNL     1      23.559  10.450   3.574  1.00  0.00     0.166 HD
HETATM    5  C3  UNL     1      22.656   8.980   2.464  1.00  0.00     0.136 A 
HETATM    6  C4  UNL     1      22.034   7.753   2.496  1.00  0.00     0.055 A 
HETATM    7  C5  UNL     1      21.853   7.080   3.684  1.00  0.00     0.020 A 
HETATM    8  C6  UNL     1      21.702   7.452   1.176  1.00  0.00     0.130 A 
HETATM    9  N4  UNL     1      22.132   8.492   0.435  1.00  0.00    -0.281 N 
ATOM     10  H4  UNL     1      22.027   8.557  -0.577  1.00  0.00     0.189 HD
HETATM   11  N5  UNL     1      22.702   9.413   1.179  1.00  0.00    -0.269 N 
ENDROOT
BRANCH   8  12
HETATM   12  N2  UNL     1      21.033   6.262   0.773  1.00  0.00    -0.368 N 
ATOM     13  H2  UNL     1      21.487   5.638   0.106  1.00  0.00     0.161 HD
BRANCH  12  14
HETATM   14  C7  UNL     1      19.726   5.916   1.284  1.00  0.00     0.111 C 
HETATM   15  C8  UNL     1      18.672   6.712   0.618  1.00  0.00     0.028 C 
HETATM   16  C9  UNL     1      17.441   6.939   1.458  1.00  0.00     0.032 C 
HETATM   17  C10 UNL     1      17.332   5.701   2.357  1.00  0.00     0.273 C 
HETATM   18  N3  UNL     1      18.387   5.865   3.345  1.00  0.00     0.095 N 
HETATM   19  C16 UNL     1      19.685   5.912   2.780  1.00  0.00     0.297 C 
BRANCH  18  20
HETATM   20  C11 UNL     1      18.228   4.798   4.297  1.00  0.00     0.223 C 
HETATM   21  C12 UNL     1      19.496   4.210   4.802  1.00  0.00     0.036 C 
HETATM   22  C13 UNL     1      19.015   3.346   5.970  1.00  0.00     0.002 C 
HETATM   23  C14 UNL     1      17.682   3.913   6.393  1.00  0.00     0.002 C 
HETATM   24  C15 UNL     1      17.477   5.174   5.540  1.00  0.00     0.036 C 
ENDBRANCH  18  20
ENDBRANCH  12  14
ENDBRANCH   8  12
BRANCH  11  25
HETATM   25  C17 UNL     1      23.292  10.685   0.758  1.00  0.00     0.113 C 
HETATM   26  C18 UNL     1      22.370  11.506  -0.086  1.00  0.00     0.055 C 
HETATM   27  C19 UNL     1      23.018  11.938  -1.400  1.00  0.00     0.234 C 
HETATM   28  N6  UNL     1      24.342  12.448  -1.190  1.00  0.00    -0.075 N 
HETATM   29  C20 UNL     1      25.251  11.519  -0.591  1.00  0.00     0.234 C 
ATOM     30  H62 UNL     1      24.726  12.807  -2.064  1.00  0.00     0.277 HD
ATOM     31  H61 UNL     1      24.307  13.310  -0.646  1.00  0.00     0.277 HD
HETATM   32  C21 UNL     1      24.574  10.341   0.042  1.00  0.00     0.055 C 
ENDBRANCH  11  25
TORSDOF 4
ENDMDL
MODEL 4
REMARK VINA RESULT: -7.287503296      1.490      8.195
REMARK  4 active torsions:
REMARK  status: ('A' for Active; 'I' for Inactive)
REMARK    1  A    between atoms: C6_8  and  N2_9 
REMARK    2  A    between atoms: N2_9  and  C7_11 
REMARK    3  A    between atoms: N3_15  and  C11_16 
REMARK    4  A    between atoms: N5_24  and  C17_25 
ROOT
HETATM    1  C1  UNL     1      21.535   8.405   4.976  1.00  0.00     0.018 A 
HETATM    2  C2  UNL     1      21.294   7.445   5.939  1.00  0.00     0.090 A 
HETATM    3  N1  UNL     1      20.515   6.387   5.681  1.00  0.00    -0.350 N 
ATOM      4  H1  UNL     1      20.349   5.690   6.406  1.00  0.00     0.166 HD
HETATM    5  C3  UNL     1      19.951   6.242   4.471  1.00  0.00     0.136 A 
HETATM    6  C4  UNL     1      20.171   7.182   3.490  1.00  0.00     0.055 A 
HETATM    7  C5  UNL     1      20.967   8.281   3.726  1.00  0.00     0.020 A 
HETATM    8  C6  UNL     1      19.458   6.750   2.373  1.00  0.00     0.130 A 
HETATM    9  N4  UNL     1      18.860   5.598   2.733  1.00  0.00    -0.281 N 
ATOM     10  H4  UNL     1      18.265   5.045   2.117  1.00  0.00     0.189 HD
HETATM   11  N5  UNL     1      19.138   5.275   3.976  1.00  0.00    -0.269 N 
ENDROOT
BRANCH   8  12
HETATM   12  N2  UNL     1      19.426   7.443   1.130  1.00  0.00    -0.368 N 
ATOM     13  H2  UNL     1      18.537   7.804   0.785  1.00  0.00     0.161 HD
BRANCH  12  14
HETATM   14  C7  UNL     1      20.622   7.648   0.345  1.00  0.00     0.111 C 
HETATM   15  C8  UNL     1      21.443   6.419   0.306  1.00  0.00     0.028 C 
HETATM   16  C9  UNL     1      22.919   6.663   0.122  1.00  0.00     0.032 C 
HETATM   17  C10 UNL     1      23.015   7.948  -0.710  1.00  0.00     0.273 C 
HETATM   18  N3  UNL     1      22.661   9.015   0.213  1.00  0.00     0.095 N 
HETATM   19  C16 UNL     1      21.348   8.898   0.731  1.00  0.00     0.297 C 
BRANCH  18  20
HETATM   20  C11 UNL     1      22.879  10.253  -0.487  1.00  0.00     0.223 C 
HETATM   21  C12 UNL     1      22.007  11.380  -0.061  1.00  0.00     0.036 C 
HETATM   22  C13 UNL     1      22.661  12.579  -0.752  1.00  0.00     0.002 C 
HETATM   23  C14 UNL     1      24.091  12.181  -1.023  1.00  0.00     0.002 C 
HETATM   24  C15 UNL     1      24.270  10.802  -0.372  1.00  0.00     0.036 C 
ENDBRANCH  18  20
ENDBRANCH  12  14
ENDBRANCH   8  12
BRANCH  11  25
HETATM   25  C17 UNL     1      18.687   4.107   4.734  1.00  0.00     0.113 C 
HETATM   26  C18 UNL     1      17.689   4.448   5.794  1.00  0.00     0.055 C 
HETATM   27  C19 UNL     1      18.095   3.911   7.166  1.00  0.00     0.234 C 
HETATM   28  N6  UNL     1      18.527   2.545   7.087  1.00  0.00    -0.075 N 
HETATM   29  C20 UNL     1      19.652   2.324   6.231  1.00  0.00     0.234 C 
ATOM     30  H62 UNL     1      18.715   2.179   8.021  1.00  0.00     0.277 HD
ATOM     31  H61 UNL     1      17.751   1.943   6.815  1.00  0.00     0.277 HD
HETATM   32  C21 UNL     1      19.929   3.463   5.298  1.00  0.00     0.055 C 
ENDBRANCH  11  25
TORSDOF 4
ENDMDL
MODEL 5
REMARK VINA RESULT: -6.961350674      1.545      8.412
REMARK  4 active torsions:
REMARK  status: ('A' for Active; 'I' for Inactive)
REMARK    1  A    between atoms: C6_8  and  N2_9 
REMARK    2  A    between atoms: N2_9  and  C7_11 
REMARK    3  A    between atoms: N3_15  and  C11_16 
REMARK    4  A    between atoms: N5_24  and  C17_25 
ROOT
HETATM    1  C1  UNL     1      18.837   6.899   0.561  1.00  0.00     0.018 A 
HETATM    2  C2  UNL     1      17.960   5.928   1.001  1.00  0.00     0.090 A 
HETATM    3  N1  UNL     1      18.170   5.276   2.152  1.00  0.00    -0.350 N 
ATOM      4  H1  UNL     1      17.510   4.561   2.458  1.00  0.00     0.166 HD
HETATM    5  C3  UNL     1      19.246   5.560   2.903  1.00  0.00     0.136 A 
HETATM    6  C4  UNL     1      20.139   6.523   2.492  1.00  0.00     0.055 A 
HETATM    7  C5  UNL     1      19.950   7.209   1.313  1.00  0.00     0.020 A 
HETATM    8  C6  UNL     1      21.128   6.578   3.472  1.00  0.00     0.130 A 
HETATM    9  N4  UNL     1      20.785   5.666   4.402  1.00  0.00    -0.281 N 
ATOM     10  H4  UNL     1      21.324   5.478   5.247  1.00  0.00     0.189 HD
HETATM   11  N5  UNL     1      19.669   5.047   4.086  1.00  0.00    -0.269 N 
ENDROOT
BRANCH   8  12
HETATM   12  N2  UNL     1      22.245   7.459   3.430  1.00  0.00    -0.368 N 
ATOM     13  H2  UNL     1      23.114   7.183   3.887  1.00  0.00     0.161 HD
BRANCH  12  14
HETATM   14  C7  UNL     1      22.179   8.737   2.758  1.00  0.00     0.111 C 
HETATM   15  C8  UNL     1      20.928   9.448   3.101  1.00  0.00     0.028 C 
HETATM   16  C9  UNL     1      20.440  10.395   2.034  1.00  0.00     0.032 C 
HETATM   17  C10 UNL     1      21.706  10.898   1.330  1.00  0.00     0.273 C 
HETATM   18  N3  UNL     1      22.157   9.771   0.528  1.00  0.00     0.095 N 
HETATM   19  C16 UNL     1      22.479   8.626   1.296  1.00  0.00     0.297 C 
BRANCH  18  20
HETATM   20  C11 UNL     1      23.260  10.245  -0.263  1.00  0.00     0.223 C 
HETATM   21  C12 UNL     1      23.111  11.628  -0.789  1.00  0.00     0.036 C 
HETATM   22  C13 UNL     1      24.517  11.934  -1.311  1.00  0.00     0.002 C 
HETATM   23  C14 UNL     1      25.451  11.005  -0.575  1.00  0.00     0.002 C 
HETATM   24  C15 UNL     1      24.580  10.265   0.451  1.00  0.00     0.036 C 
ENDBRANCH  18  20
ENDBRANCH  12  14
ENDBRANCH   8  12
BRANCH  11  25
HETATM   25  C17 UNL     1      18.969   3.999   4.828  1.00  0.00     0.113 C 
HETATM   26  C18 UNL     1      17.965   4.539   5.795  1.00  0.00     0.055 C 
HETATM   27  C19 UNL     1      18.165   3.988   7.207  1.00  0.00     0.234 C 
HETATM   28  N6  UNL     1      18.363   2.568   7.192  1.00  0.00    -0.075 N 
HETATM   29  C20 UNL     1      19.497   2.131   6.436  1.00  0.00     0.234 C 
ATOM     30  H62 UNL     1      18.413   2.208   8.145  1.00  0.00     0.277 HD
ATOM     31  H61 UNL     1      17.519   2.096   6.870  1.00  0.00     0.277 HD
HETATM   32  C21 UNL     1      20.036   3.175   5.505  1.00  0.00     0.055 C 
ENDBRANCH  11  25
TORSDOF 4
ENDMDL
