MODEL 1
REMARK VINA RESULT: -6.488213114      0.000      0.000
REMARK  7 active torsions:
REMARK  status: ('A' for Active; 'I' for Inactive)
REMARK    1  A    between atoms: C2_2  and  O1_3 
REMARK    2  A    between atoms: O1_3  and  C3_4 
REMARK    3  A    between atoms: C3_4  and  C4_6 
REMARK    4  A    between atoms: C5_7  and  C6_8 
REMARK    5  A    between atoms: C6_8  and  O4_10 
REMARK    6  A    between atoms: O4_10  and  O5_11 
REMARK    7  A    between atoms: N1_15  and  C9_16 
ROOT
HETATM    1  C4  UNL     1      20.835   7.122   2.375  1.00  0.00     0.099 A 
HETATM    2  C5  UNL     1      21.144   7.759   3.539  1.00  0.00     0.084 A 
HETATM    3  C7  UNL     1      21.892   8.840   3.208  1.00  0.00     0.031 A 
HETATM    4  C8  UNL     1      22.437   9.777   4.235  1.00  0.00     0.070 C 
HETATM    5  N1  UNL     1      22.049   8.878   1.848  1.00  0.00    -0.309 N 
HETATM    6  C19 UNL     1      21.407   7.834   1.346  1.00  0.00     0.140 A 
HETATM    7  N2  UNL     1      21.333   7.487  -0.041  1.00  0.00    -0.081 NA
ENDROOT
BRANCH   5   8
HETATM    8  C9  UNL     1      22.800   9.922   1.251  1.00  0.00     0.004 C 
HETATM    9  C10 UNL     1      22.460  10.210  -0.194  1.00  0.00     0.033 C 
HETATM   10  C11 UNL     1      22.702  11.706  -0.461  1.00  0.00     0.015 C 
HETATM   11  C15 UNL     1      23.294   9.435  -1.184  1.00  0.00     0.015 C 
HETATM   12  C12 UNL     1      24.135  11.995  -0.112  1.00  0.00    -0.013 C 
HETATM   13  C13 UNL     1      24.997  11.297  -1.146  1.00  0.00     0.009 C 
HETATM   14  C18 UNL     1      24.547  11.529   1.250  1.00  0.00     0.015 C 
HETATM   15  C14 UNL     1      24.722   9.831  -1.036  1.00  0.00    -0.013 C 
HETATM   16  C16 UNL     1      25.136   9.419   0.365  1.00  0.00     0.015 C 
HETATM   17  C17 UNL     1      24.251   9.994   1.404  1.00  0.00     0.033 C 
ENDBRANCH   5   8
BRANCH   2  18
HETATM   18  C6  UNL     1      20.749   7.365   4.914  1.00  0.00     0.325 C 
HETATM   19  O3  UNL     1      21.556   7.281   5.847  1.00  0.00    -0.257 OA
BRANCH  18  20
HETATM   20  O4  UNL     1      19.402   7.076   5.156  1.00  0.00    -0.156 OA
BRANCH  20  21
HETATM   21  O5  UNL     1      19.081   5.917   5.739  1.00  0.00    -0.242 OA
ATOM     22  H5  UNL     1      18.194   5.589   5.657  1.00  0.00     0.254 HD
ENDBRANCH  20  21
ENDBRANCH  18  20
ENDBRANCH   2  18
BRANCH   1  23
HETATM   23  C3  UNL     1      20.041   5.906   2.259  1.00  0.00     0.297 C 
HETATM   24  O2  UNL     1      20.116   5.023   3.148  1.00  0.00    -0.259 OA
BRANCH  23  25
HETATM   25  O1  UNL     1      19.207   5.721   1.181  1.00  0.00    -0.318 OA
BRANCH  25  26
HETATM   26  C2  UNL     1      17.833   6.034   1.233  1.00  0.00     0.174 C 
HETATM   27  C1  UNL     1      17.658   7.530   1.015  1.00  0.00     0.034 C 
ENDBRANCH  25  26
ENDBRANCH  23  25
ENDBRANCH   1  23
TORSDOF 7
ENDMDL
MODEL 2
REMARK VINA RESULT: -6.390602825      1.207      2.035
REMARK  7 active torsions:
REMARK  status: ('A' for Active; 'I' for Inactive)
REMARK    1  A    between atoms: C2_2  and  O1_3 
REMARK    2  A    between atoms: O1_3  and  C3_4 
REMARK    3  A    between atoms: C3_4  and  C4_6 
REMARK    4  A    between atoms: C5_7  and  C6_8 
REMARK    5  A    between atoms: C6_8  and  O4_10 
REMARK    6  A    between atoms: O4_10  and  O5_11 
REMARK    7  A    between atoms: N1_15  and  C9_16 
ROOT
HETATM    1  C4  UNL     1      20.035   6.614   1.280  1.00  0.00     0.099 A 
HETATM    2  C5  UNL     1      20.476   6.770   2.560  1.00  0.00     0.084 A 
HETATM    3  C7  UNL     1      21.575   7.561   2.501  1.00  0.00     0.031 A 
HETATM    4  C8  UNL     1      22.352   7.939   3.720  1.00  0.00     0.070 C 
HETATM    5  N1  UNL     1      21.818   7.898   1.196  1.00  0.00    -0.309 N 
HETATM    6  C19 UNL     1      20.882   7.321   0.458  1.00  0.00     0.140 A 
HETATM    7  N2  UNL     1      20.775   7.401  -0.968  1.00  0.00    -0.081 NA
ENDROOT
BRANCH   5   8
HETATM    8  C9  UNL     1      22.924   8.725   0.872  1.00  0.00     0.004 C 
HETATM    9  C10 UNL     1      22.843  10.139   1.402  1.00  0.00     0.033 C 
HETATM   10  C11 UNL     1      24.272  10.636   1.678  1.00  0.00     0.015 C 
HETATM   11  C15 UNL     1      22.202  11.113   0.445  1.00  0.00     0.015 C 
HETATM   12  C12 UNL     1      25.040  10.521   0.391  1.00  0.00    -0.013 C 
HETATM   13  C13 UNL     1      24.473  11.554  -0.563  1.00  0.00     0.009 C 
HETATM   14  C18 UNL     1      24.962   9.173  -0.257  1.00  0.00     0.015 C 
HETATM   15  C14 UNL     1      23.034  11.209  -0.785  1.00  0.00    -0.013 C 
HETATM   16  C16 UNL     1      23.015   9.832  -1.421  1.00  0.00     0.015 C 
HETATM   17  C17 UNL     1      23.460   8.773  -0.485  1.00  0.00     0.033 C 
ENDBRANCH   5   8
BRANCH   2  18
HETATM   18  C6  UNL     1      19.885   6.195   3.793  1.00  0.00     0.325 C 
HETATM   19  O3  UNL     1      18.879   6.664   4.337  1.00  0.00    -0.257 OA
BRANCH  18  20
HETATM   20  O4  UNL     1      20.499   5.074   4.359  1.00  0.00    -0.156 OA
BRANCH  20  21
HETATM   21  O5  UNL     1      19.859   4.397   5.317  1.00  0.00    -0.242 OA
ATOM     22  H5  UNL     1      20.366   3.966   5.995  1.00  0.00     0.254 HD
ENDBRANCH  20  21
ENDBRANCH  18  20
ENDBRANCH   2  18
BRANCH   1  23
HETATM   23  C3  UNL     1      18.873   5.836   0.874  1.00  0.00     0.297 C 
HETATM   24  O2  UNL     1      19.025   4.686   0.395  1.00  0.00    -0.259 OA
BRANCH  23  25
HETATM   25  O1  UNL     1      17.605   6.355   1.013  1.00  0.00    -0.318 OA
BRANCH  25  26
HETATM   26  C2  UNL     1      17.367   7.743   1.073  1.00  0.00     0.174 C 
HETATM   27  C1  UNL     1      15.865   7.985   1.116  1.00  0.00     0.034 C 
ENDBRANCH  25  26
ENDBRANCH  23  25
ENDBRANCH   1  23
TORSDOF 7
ENDMDL
MODEL 3
REMARK VINA RESULT: -6.116053534      1.737      3.581
REMARK  7 active torsions:
REMARK  status: ('A' for Active; 'I' for Inactive)
REMARK    1  A    between atoms: C2_2  and  O1_3 
REMARK    2  A    between atoms: O1_3  and  C3_4 
REMARK    3  A    between atoms: C3_4  and  C4_6 
REMARK    4  A    between atoms: C5_7  and  C6_8 
REMARK    5  A    between atoms: C6_8  and  O4_10 
REMARK    6  A    between atoms: O4_10  and  O5_11 
REMARK    7  A    between atoms: N1_15  and  C9_16 
ROOT
HETATM    1  C4  UNL     1      20.370   6.651   2.909  1.00  0.00     0.099 A 
HETATM    2  C5  UNL     1      19.958   6.570   1.613  1.00  0.00     0.084 A 
HETATM    3  C7  UNL     1      20.844   7.283   0.875  1.00  0.00     0.031 A 
HETATM    4  C8  UNL     1      20.705   7.440  -0.604  1.00  0.00     0.070 C 
HETATM    5  N1  UNL     1      21.802   7.805   1.704  1.00  0.00    -0.309 N 
HETATM    6  C19 UNL     1      21.511   7.420   2.937  1.00  0.00     0.140 A 
HETATM    7  N2  UNL     1      22.250   7.761   4.114  1.00  0.00    -0.081 NA
ENDROOT
BRANCH   5   8
HETATM    8  C9  UNL     1      22.848   8.597   1.165  1.00  0.00     0.004 C 
HETATM    9  C10 UNL     1      22.947   9.996   1.731  1.00  0.00     0.033 C 
HETATM   10  C11 UNL     1      24.423  10.428   1.701  1.00  0.00     0.015 C 
HETATM   11  C15 UNL     1      22.160  11.024   0.958  1.00  0.00     0.015 C 
HETATM   12  C12 UNL     1      24.890  10.323   0.276  1.00  0.00    -0.013 C 
HETATM   13  C13 UNL     1      24.177  11.406  -0.510  1.00  0.00     0.009 C 
HETATM   14  C18 UNL     1      24.613   9.000  -0.369  1.00  0.00     0.015 C 
HETATM   15  C14 UNL     1      22.710  11.125  -0.422  1.00  0.00    -0.013 C 
HETATM   16  C16 UNL     1      22.492   9.770  -1.068  1.00  0.00     0.015 C 
HETATM   17  C17 UNL     1      23.081   8.667  -0.274  1.00  0.00     0.033 C 
ENDBRANCH   5   8
BRANCH   2  18
HETATM   18  C6  UNL     1      18.773   5.848   1.088  1.00  0.00     0.325 C 
HETATM   19  O3  UNL     1      18.858   4.791   0.452  1.00  0.00    -0.257 OA
BRANCH  18  20
HETATM   20  O4  UNL     1      17.508   6.394   1.327  1.00  0.00    -0.156 OA
BRANCH  20  21
HETATM   21  O5  UNL     1      17.317   7.702   1.130  1.00  0.00    -0.242 OA
ATOM     22  H5  UNL     1      16.595   7.986   0.582  1.00  0.00     0.254 HD
ENDBRANCH  20  21
ENDBRANCH  18  20
ENDBRANCH   2  18
BRANCH   1  23
HETATM   23  C3  UNL     1      19.710   6.029   4.048  1.00  0.00     0.297 C 
HETATM   24  O2  UNL     1      18.814   6.651   4.669  1.00  0.00    -0.259 OA
BRANCH  23  25
HETATM   25  O1  UNL     1      20.062   4.760   4.449  1.00  0.00    -0.318 OA
BRANCH  25  26
HETATM   26  C2  UNL     1      19.189   3.940   5.193  1.00  0.00     0.174 C 
HETATM   27  C1  UNL     1      19.998   2.845   5.873  1.00  0.00     0.034 C 
ENDBRANCH  25  26
ENDBRANCH  23  25
ENDBRANCH   1  23
TORSDOF 7
ENDMDL
MODEL 4
REMARK VINA RESULT: -6.086211761      3.657      6.610
REMARK  7 active torsions:
REMARK  status: ('A' for Active; 'I' for Inactive)
REMARK    1  A    between atoms: C2_2  and  O1_3 
REMARK    2  A    between atoms: O1_3  and  C3_4 
REMARK    3  A    between atoms: C3_4  and  C4_6 
REMARK    4  A    between atoms: C5_7  and  C6_8 
REMARK    5  A    between atoms: C6_8  and  O4_10 
REMARK    6  A    between atoms: O4_10  and  O5_11 
REMARK    7  A    between atoms: N1_15  and  C9_16 
ROOT
HETATM    1  C4  UNL     1      22.878   9.031   0.018  1.00  0.00     0.099 A 
HETATM    2  C5  UNL     1      22.244  10.171   0.412  1.00  0.00     0.084 A 
HETATM    3  C7  UNL     1      21.388   9.821   1.403  1.00  0.00     0.031 A 
HETATM    4  C8  UNL     1      20.497  10.814   2.075  1.00  0.00     0.070 C 
HETATM    5  N1  UNL     1      21.487   8.473   1.627  1.00  0.00    -0.309 N 
HETATM    6  C19 UNL     1      22.391   7.997   0.785  1.00  0.00     0.140 A 
HETATM    7  N2  UNL     1      22.788   6.626   0.672  1.00  0.00    -0.081 NA
ENDROOT
BRANCH   5   8
HETATM    8  C9  UNL     1      20.684   7.861   2.623  1.00  0.00     0.004 C 
HETATM    9  C10 UNL     1      21.418   7.469   3.886  1.00  0.00     0.033 C 
HETATM   10  C11 UNL     1      20.438   7.569   5.067  1.00  0.00     0.015 C 
HETATM   11  C15 UNL     1      21.959   6.061   3.865  1.00  0.00     0.015 C 
HETATM   12  C12 UNL     1      19.268   6.679   4.753  1.00  0.00    -0.013 C 
HETATM   13  C13 UNL     1      19.766   5.248   4.812  1.00  0.00     0.009 C 
HETATM   14  C18 UNL     1      18.653   6.919   3.409  1.00  0.00     0.015 C 
HETATM   15  C14 UNL     1      20.824   5.103   3.764  1.00  0.00    -0.013 C 
HETATM   16  C16 UNL     1      20.152   5.376   2.432  1.00  0.00     0.015 C 
HETATM   17  C17 UNL     1      19.745   6.793   2.288  1.00  0.00     0.033 C 
ENDBRANCH   5   8
BRANCH   2  18
HETATM   18  C6  UNL     1      22.438  11.540  -0.125  1.00  0.00     0.325 C 
HETATM   19  O3  UNL     1      23.525  12.128  -0.089  1.00  0.00    -0.257 OA
BRANCH  18  20
HETATM   20  O4  UNL     1      21.337  12.188  -0.694  1.00  0.00    -0.156 OA
BRANCH  20  21
HETATM   21  O5  UNL     1      21.524  13.349  -1.329  1.00  0.00    -0.242 OA
ATOM     22  H5  UNL     1      20.858  14.024  -1.263  1.00  0.00     0.254 HD
ENDBRANCH  20  21
ENDBRANCH  18  20
ENDBRANCH   2  18
BRANCH   1  23
HETATM   23  C3  UNL     1      23.888   8.941  -1.028  1.00  0.00     0.297 C 
HETATM   24  O2  UNL     1      23.548   8.664  -2.204  1.00  0.00    -0.259 OA
BRANCH  23  25
HETATM   25  O1  UNL     1      25.214   9.158  -0.734  1.00  0.00    -0.318 OA
BRANCH  25  26
HETATM   26  C2  UNL     1      25.705  10.434  -0.387  1.00  0.00     0.174 C 
HETATM   27  C1  UNL     1      26.033  10.450   1.099  1.00  0.00     0.034 C 
ENDBRANCH  25  26
ENDBRANCH  23  25
ENDBRANCH   1  23
TORSDOF 7
ENDMDL
MODEL 5
REMARK VINA RESULT: -5.824056535      1.578      3.252
REMARK  7 active torsions:
REMARK  status: ('A' for Active; 'I' for Inactive)
REMARK    1  A    between atoms: C2_2  and  O1_3 
REMARK    2  A    between atoms: O1_3  and  C3_4 
REMARK    3  A    between atoms: C3_4  and  C4_6 
REMARK    4  A    between atoms: C5_7  and  C6_8 
REMARK    5  A    between atoms: C6_8  and  O4_10 
REMARK    6  A    between atoms: O4_10  and  O5_11 
REMARK    7  A    between atoms: N1_15  and  C9_16 
ROOT
HETATM    1  C4  UNL     1      20.546   6.827   2.536  1.00  0.00     0.099 A 
HETATM    2  C5  UNL     1      19.949   6.594   1.333  1.00  0.00     0.084 A 
HETATM    3  C7  UNL     1      20.489   7.471   0.451  1.00  0.00     0.031 A 
HETATM    4  C8  UNL     1      20.062   7.527  -0.979  1.00  0.00     0.070 C 
HETATM    5  N1  UNL     1      21.415   8.245   1.098  1.00  0.00    -0.309 N 
HETATM    6  C19 UNL     1      21.447   7.852   2.362  1.00  0.00     0.140 A 
HETATM    7  N2  UNL     1      22.270   8.413   3.391  1.00  0.00    -0.081 NA
ENDROOT
BRANCH   5   8
HETATM    8  C9  UNL     1      22.122   9.247   0.385  1.00  0.00     0.004 C 
HETATM    9  C10 UNL     1      23.320   8.753  -0.394  1.00  0.00     0.033 C 
HETATM   10  C11 UNL     1      23.495   9.646  -1.634  1.00  0.00     0.015 C 
HETATM   11  C15 UNL     1      24.614   8.800   0.381  1.00  0.00     0.015 C 
HETATM   12  C12 UNL     1      23.637  11.062  -1.148  1.00  0.00    -0.013 C 
HETATM   13  C13 UNL     1      24.973  11.159  -0.439  1.00  0.00     0.009 C 
HETATM   14  C18 UNL     1      22.559  11.503  -0.206  1.00  0.00     0.015 C 
HETATM   15  C14 UNL     1      24.929  10.214   0.721  1.00  0.00    -0.013 C 
HETATM   16  C16 UNL     1      23.811  10.695   1.626  1.00  0.00     0.015 C 
HETATM   17  C17 UNL     1      22.475  10.517   1.013  1.00  0.00     0.033 C 
ENDBRANCH   5   8
BRANCH   2  18
HETATM   18  C6  UNL     1      18.909   5.582   1.025  1.00  0.00     0.325 C 
HETATM   19  O3  UNL     1      19.175   4.458   0.583  1.00  0.00    -0.257 OA
BRANCH  18  20
HETATM   20  O4  UNL     1      17.571   5.922   1.245  1.00  0.00    -0.156 OA
BRANCH  20  21
HETATM   21  O5  UNL     1      17.229   7.213   1.300  1.00  0.00    -0.242 OA
ATOM     22  H5  UNL     1      17.914   7.872   1.319  1.00  0.00     0.254 HD
ENDBRANCH  20  21
ENDBRANCH  18  20
ENDBRANCH   2  18
BRANCH   1  23
HETATM   23  C3  UNL     1      20.268   6.110   3.772  1.00  0.00     0.297 C 
HETATM   24  O2  UNL     1      20.973   5.123   4.096  1.00  0.00    -0.259 OA
BRANCH  23  25
HETATM   25  O1  UNL     1      19.235   6.508   4.590  1.00  0.00    -0.318 OA
BRANCH  25  26
HETATM   26  C2  UNL     1      18.013   5.807   4.649  1.00  0.00     0.174 C 
HETATM   27  C1  UNL     1      18.134   4.688   5.675  1.00  0.00     0.034 C 
ENDBRANCH  25  26
ENDBRANCH  23  25
ENDBRANCH   1  23
TORSDOF 7
ENDMDL
