MODEL 1
REMARK VINA RESULT: -5.723708331      0.000      0.000
REMARK  6 active torsions:
REMARK  status: ('A' for Active; 'I' for Inactive)
REMARK    1  A    between atoms: O1_2  and  C2_3 
REMARK    2  A    between atoms: C2_3  and  C3_5 
REMARK    3  A    between atoms: C7_9  and  N1_10 
REMARK       I    between atoms: N1_10  and  C8_12 
REMARK       I    between atoms: C8_12  and  N2_14 
REMARK    4  A    between atoms: N2_14  and  C9_16 
REMARK    5  A    between atoms: C17_25  and  C18_26 
REMARK    6  A    between atoms: C18_26  and  O6_28 
ROOT
HETATM    1  N1  UNL     1      20.373   8.238   2.970  1.00  0.00    -0.308 N 
ATOM      2  H1  UNL     1      20.298   8.966   3.680  1.00  0.00     0.170 HD
HETATM    3  C8  UNL     1      21.371   8.358   2.006  1.00  0.00     0.322 C 
HETATM    4  O3  UNL     1      21.572   7.520   1.101  1.00  0.00    -0.247 OA
HETATM    5  N2  UNL     1      22.251   9.512   2.021  1.00  0.00    -0.316 N 
ATOM      6  H2  UNL     1      22.124  10.223   2.742  1.00  0.00     0.166 HD
ENDROOT
BRANCH   1   7
HETATM    7  C7  UNL     1      19.459   7.163   3.017  1.00  0.00     0.053 A 
HETATM    8  C6  UNL     1      18.450   7.044   2.093  1.00  0.00     0.030 A 
HETATM    9  C5  UNL     1      17.456   6.104   2.242  1.00  0.00     0.003 A 
HETATM   10  C4  UNL     1      17.478   5.285   3.329  1.00  0.00     0.019 A 
HETATM   11  C3  UNL     1      18.488   5.344   4.332  1.00  0.00     0.058 A 
HETATM   12  C17 UNL     1      19.471   6.295   4.143  1.00  0.00     0.082 A 
BRANCH  11  13
HETATM   13  C2  UNL     1      18.341   4.471   5.468  1.00  0.00     0.294 C 
HETATM   14  O2  UNL     1      17.905   4.698   6.583  1.00  0.00    -0.259 OA
BRANCH  13  15
HETATM   15  O1  UNL     1      18.761   3.130   5.296  1.00  0.00    -0.322 OA
HETATM   16  C1  UNL     1      19.559   2.493   6.268  1.00  0.00     0.213 C 
ENDBRANCH  13  15
ENDBRANCH  11  13
BRANCH  12  17
HETATM   17  C18 UNL     1      20.657   6.304   4.963  1.00  0.00     0.296 C 
HETATM   18  O5  UNL     1      21.315   5.193   5.113  1.00  0.00    -0.259 OA
BRANCH  17  19
HETATM   19  O6  UNL     1      21.261   7.312   5.657  1.00  0.00    -0.322 OA
HETATM   20  C19 UNL     1      22.581   7.780   5.366  1.00  0.00     0.213 C 
ENDBRANCH  17  19
ENDBRANCH  12  17
ENDBRANCH   1   7
BRANCH   5  21
HETATM   21  C9  UNL     1      23.305   9.685   1.041  1.00  0.00     0.224 C 
HETATM   22  C10 UNL     1      24.375  10.547   1.619  1.00  0.00     0.054 C 
HETATM   23  C11 UNL     1      25.592  10.760   0.840  1.00  0.00     0.004 C 
HETATM   24  C12 UNL     1      25.615  10.430  -0.596  1.00  0.00     0.000 C 
HETATM   25  C13 UNL     1      24.875  11.286  -1.546  1.00  0.00     0.000 C 
HETATM   26  C14 UNL     1      24.193  12.487  -1.017  1.00  0.00     0.002 C 
HETATM   27  C15 UNL     1      22.684  12.388  -0.989  1.00  0.00     0.026 C 
HETATM   28  C16 UNL     1      22.148  11.347  -0.089  1.00  0.00     0.170 C 
HETATM   29  O4  UNL     1      22.750  10.136  -0.121  1.00  0.00    -0.367 OA
ENDBRANCH   5  21
TORSDOF 6
ENDMDL
MODEL 2
REMARK VINA RESULT: -5.512988702      1.447      2.145
REMARK  6 active torsions:
REMARK  status: ('A' for Active; 'I' for Inactive)
REMARK    1  A    between atoms: O1_2  and  C2_3 
REMARK    2  A    between atoms: C2_3  and  C3_5 
REMARK    3  A    between atoms: C7_9  and  N1_10 
REMARK       I    between atoms: N1_10  and  C8_12 
REMARK       I    between atoms: C8_12  and  N2_14 
REMARK    4  A    between atoms: N2_14  and  C9_16 
REMARK    5  A    between atoms: C17_25  and  C18_26 
REMARK    6  A    between atoms: C18_26  and  O6_28 
ROOT
HETATM    1  N1  UNL     1      20.856   6.882   0.777  1.00  0.00    -0.308 N 
ATOM      2  H1  UNL     1      21.447   6.214   0.282  1.00  0.00     0.170 HD
HETATM    3  C8  UNL     1      21.220   8.226   0.755  1.00  0.00     0.322 C 
HETATM    4  O3  UNL     1      20.564   9.136   1.305  1.00  0.00    -0.247 OA
HETATM    5  N2  UNL     1      22.428   8.634   0.061  1.00  0.00    -0.316 N 
ATOM      6  H2  UNL     1      22.996   7.924  -0.403  1.00  0.00     0.166 HD
ENDROOT
BRANCH   1   7
HETATM    7  C7  UNL     1      19.713   6.394   1.447  1.00  0.00     0.053 A 
HETATM    8  C6  UNL     1      18.504   6.282   0.806  1.00  0.00     0.030 A 
HETATM    9  C5  UNL     1      17.355   5.980   1.501  1.00  0.00     0.003 A 
HETATM   10  C4  UNL     1      17.427   5.795   2.847  1.00  0.00     0.019 A 
HETATM   11  C3  UNL     1      18.642   5.893   3.587  1.00  0.00     0.058 A 
HETATM   12  C17 UNL     1      19.772   6.190   2.853  1.00  0.00     0.082 A 
BRANCH  11  13
HETATM   13  C2  UNL     1      18.555   5.752   5.018  1.00  0.00     0.294 C 
HETATM   14  O2  UNL     1      19.215   6.270   5.900  1.00  0.00    -0.259 OA
BRANCH  13  15
HETATM   15  O1  UNL     1      17.556   4.877   5.510  1.00  0.00    -0.322 OA
HETATM   16  C1  UNL     1      17.901   3.638   6.087  1.00  0.00     0.213 C 
ENDBRANCH  13  15
ENDBRANCH  11  13
BRANCH  12  17
HETATM   17  C18 UNL     1      21.083   6.098   3.447  1.00  0.00     0.296 C 
HETATM   18  O5  UNL     1      21.465   4.953   3.929  1.00  0.00    -0.259 OA
BRANCH  17  19
HETATM   19  O6  UNL     1      22.061   7.035   3.613  1.00  0.00    -0.322 OA
HETATM   20  C19 UNL     1      22.345   7.653   4.871  1.00  0.00     0.213 C 
ENDBRANCH  17  19
ENDBRANCH  12  17
ENDBRANCH   1   7
BRANCH   5  21
HETATM   21  C9  UNL     1      22.852  10.019   0.008  1.00  0.00     0.224 C 
HETATM   22  C10 UNL     1      23.561  10.265  -1.280  1.00  0.00     0.054 C 
HETATM   23  C11 UNL     1      23.976  11.630  -1.594  1.00  0.00     0.004 C 
HETATM   24  C12 UNL     1      24.009  12.653  -0.533  1.00  0.00     0.000 C 
HETATM   25  C13 UNL     1      25.061  12.587   0.503  1.00  0.00     0.000 C 
HETATM   26  C14 UNL     1      26.086  11.526   0.389  1.00  0.00     0.002 C 
HETATM   27  C15 UNL     1      25.960  10.422   1.416  1.00  0.00     0.026 C 
HETATM   28  C16 UNL     1      24.722   9.623   1.320  1.00  0.00     0.170 C 
HETATM   29  O4  UNL     1      23.566  10.299   1.136  1.00  0.00    -0.367 OA
ENDBRANCH   5  21
TORSDOF 6
ENDMDL
MODEL 3
REMARK VINA RESULT: -5.034093014      1.883      8.266
REMARK  6 active torsions:
REMARK  status: ('A' for Active; 'I' for Inactive)
REMARK    1  A    between atoms: O1_2  and  C2_3 
REMARK    2  A    between atoms: C2_3  and  C3_5 
REMARK    3  A    between atoms: C7_9  and  N1_10 
REMARK       I    between atoms: N1_10  and  C8_12 
REMARK       I    between atoms: C8_12  and  N2_14 
REMARK    4  A    between atoms: N2_14  and  C9_16 
REMARK    5  A    between atoms: C17_25  and  C18_26 
REMARK    6  A    between atoms: C18_26  and  O6_28 
ROOT
HETATM    1  N1  UNL     1      20.324   7.663   2.014  1.00  0.00    -0.308 N 
ATOM      2  H1  UNL     1      19.407   8.108   1.997  1.00  0.00     0.170 HD
HETATM    3  C8  UNL     1      20.587   6.735   3.019  1.00  0.00     0.322 C 
HETATM    4  O3  UNL     1      21.665   6.112   3.129  1.00  0.00    -0.247 OA
HETATM    5  N2  UNL     1      19.573   6.448   4.017  1.00  0.00    -0.316 N 
ATOM      6  H2  UNL     1      18.677   6.933   3.966  1.00  0.00     0.166 HD
ENDROOT
BRANCH   1   7
HETATM    7  C7  UNL     1      21.259   8.021   1.019  1.00  0.00     0.053 A 
HETATM    8  C6  UNL     1      21.463   7.232  -0.086  1.00  0.00     0.030 A 
HETATM    9  C5  UNL     1      22.495   7.484  -0.960  1.00  0.00     0.003 A 
HETATM   10  C4  UNL     1      23.326   8.535  -0.716  1.00  0.00     0.019 A 
HETATM   11  C3  UNL     1      23.183   9.401   0.406  1.00  0.00     0.058 A 
HETATM   12  C17 UNL     1      22.132   9.119   1.255  1.00  0.00     0.082 A 
BRANCH  11  13
HETATM   13  C2  UNL     1      24.184  10.422   0.581  1.00  0.00     0.294 C 
HETATM   14  O2  UNL     1      25.122  10.479   1.356  1.00  0.00    -0.259 OA
BRANCH  13  15
HETATM   15  O1  UNL     1      24.089  11.555  -0.263  1.00  0.00    -0.322 OA
HETATM   16  C1  UNL     1      22.842  11.977  -0.767  1.00  0.00     0.213 C 
ENDBRANCH  13  15
ENDBRANCH  11  13
BRANCH  12  17
HETATM   17  C18 UNL     1      21.753  10.046   2.292  1.00  0.00     0.296 C 
HETATM   18  O5  UNL     1      20.927  11.005   1.995  1.00  0.00    -0.259 OA
BRANCH  17  19
HETATM   19  O6  UNL     1      22.114  10.120   3.607  1.00  0.00    -0.322 OA
HETATM   20  C19 UNL     1      22.837   9.085   4.278  1.00  0.00     0.213 C 
ENDBRANCH  17  19
ENDBRANCH  12  17
ENDBRANCH   1   7
BRANCH   5  21
HETATM   21  C9  UNL     1      19.795   5.491   5.082  1.00  0.00     0.224 C 
HETATM   22  C10 UNL     1      20.092   4.156   4.489  1.00  0.00     0.054 C 
HETATM   23  C11 UNL     1      20.461   3.064   5.385  1.00  0.00     0.004 C 
HETATM   24  C12 UNL     1      20.209   3.181   6.833  1.00  0.00     0.000 C 
HETATM   25  C13 UNL     1      18.821   3.103   7.333  1.00  0.00     0.000 C 
HETATM   26  C14 UNL     1      17.741   2.839   6.357  1.00  0.00     0.002 C 
HETATM   27  C15 UNL     1      16.849   4.028   6.075  1.00  0.00     0.026 C 
HETATM   28  C16 UNL     1      17.526   5.175   5.437  1.00  0.00     0.170 C 
HETATM   29  O4  UNL     1      18.731   5.533   5.935  1.00  0.00    -0.367 OA
ENDBRANCH   5  21
TORSDOF 6
ENDMDL
MODEL 4
REMARK VINA RESULT: -4.835272340      1.977      8.379
REMARK  6 active torsions:
REMARK  status: ('A' for Active; 'I' for Inactive)
REMARK    1  A    between atoms: O1_2  and  C2_3 
REMARK    2  A    between atoms: C2_3  and  C3_5 
REMARK    3  A    between atoms: C7_9  and  N1_10 
REMARK       I    between atoms: N1_10  and  C8_12 
REMARK       I    between atoms: C8_12  and  N2_14 
REMARK    4  A    between atoms: N2_14  and  C9_16 
REMARK    5  A    between atoms: C17_25  and  C18_26 
REMARK    6  A    between atoms: C18_26  and  O6_28 
ROOT
HETATM    1  N1  UNL     1      22.194   6.864   2.246  1.00  0.00    -0.308 N 
ATOM      2  H1  UNL     1      22.973   6.733   2.891  1.00  0.00     0.170 HD
HETATM    3  C8  UNL     1      20.955   6.329   2.591  1.00  0.00     0.322 C 
HETATM    4  O3  UNL     1      19.926   6.445   1.891  1.00  0.00    -0.247 OA
HETATM    5  N2  UNL     1      20.812   5.587   3.829  1.00  0.00    -0.316 N 
ATOM      6  H2  UNL     1      21.626   5.468   4.433  1.00  0.00     0.166 HD
ENDROOT
BRANCH   1   7
HETATM    7  C7  UNL     1      22.430   7.578   1.050  1.00  0.00     0.053 A 
HETATM    8  C6  UNL     1      22.902   6.949  -0.075  1.00  0.00     0.030 A 
HETATM    9  C5  UNL     1      23.302   7.669  -1.178  1.00  0.00     0.003 A 
HETATM   10  C4  UNL     1      23.227   9.028  -1.143  1.00  0.00     0.019 A 
HETATM   11  C3  UNL     1      22.749   9.756  -0.015  1.00  0.00     0.058 A 
HETATM   12  C17 UNL     1      22.352   8.998   1.067  1.00  0.00     0.082 A 
BRANCH  11  13
HETATM   13  C2  UNL     1      22.802  11.194  -0.089  1.00  0.00     0.294 C 
HETATM   14  O2  UNL     1      21.901  12.012  -0.131  1.00  0.00    -0.259 OA
BRANCH  13  15
HETATM   15  O1  UNL     1      24.090  11.780  -0.122  1.00  0.00    -0.322 OA
HETATM   16  C1  UNL     1      25.184  11.155   0.511  1.00  0.00     0.213 C 
ENDBRANCH  13  15
ENDBRANCH  11  13
BRANCH  12  17
HETATM   17  C18 UNL     1      21.649   9.602   2.172  1.00  0.00     0.296 C 
HETATM   18  O5  UNL     1      20.368   9.791   2.062  1.00  0.00    -0.259 OA
BRANCH  17  19
HETATM   19  O6  UNL     1      22.092  10.042   3.386  1.00  0.00    -0.322 OA
HETATM   20  C19 UNL     1      22.592   9.166   4.400  1.00  0.00     0.213 C 
ENDBRANCH  17  19
ENDBRANCH  12  17
ENDBRANCH   1   7
BRANCH   5  21
HETATM   21  C9  UNL     1      19.545   5.011   4.235  1.00  0.00     0.224 C 
HETATM   22  C10 UNL     1      18.974   5.818   5.350  1.00  0.00     0.054 C 
HETATM   23  C11 UNL     1      17.640   5.480   5.840  1.00  0.00     0.004 C 
HETATM   24  C12 UNL     1      17.033   4.183   5.490  1.00  0.00     0.000 C 
HETATM   25  C13 UNL     1      17.558   2.949   6.111  1.00  0.00     0.000 C 
HETATM   26  C14 UNL     1      18.634   3.078   7.118  1.00  0.00     0.002 C 
HETATM   27  C15 UNL     1      19.991   2.604   6.647  1.00  0.00     0.026 C 
HETATM   28  C16 UNL     1      20.565   3.378   5.527  1.00  0.00     0.170 C 
HETATM   29  O4  UNL     1      19.736   3.687   4.505  1.00  0.00    -0.367 OA
ENDBRANCH   5  21
TORSDOF 6
ENDMDL
MODEL 5
REMARK VINA RESULT: -4.503430998      1.602      2.640
REMARK  6 active torsions:
REMARK  status: ('A' for Active; 'I' for Inactive)
REMARK    1  A    between atoms: O1_2  and  C2_3 
REMARK    2  A    between atoms: C2_3  and  C3_5 
REMARK    3  A    between atoms: C7_9  and  N1_10 
REMARK       I    between atoms: N1_10  and  C8_12 
REMARK       I    between atoms: C8_12  and  N2_14 
REMARK    4  A    between atoms: N2_14  and  C9_16 
REMARK    5  A    between atoms: C17_25  and  C18_26 
REMARK    6  A    between atoms: C18_26  and  O6_28 
ROOT
HETATM    1  N1  UNL     1      21.257   7.242   1.899  1.00  0.00    -0.308 N 
ATOM      2  H1  UNL     1      20.873   6.588   1.218  1.00  0.00     0.170 HD
HETATM    3  C8  UNL     1      22.205   8.166   1.466  1.00  0.00     0.322 C 
HETATM    4  O3  UNL     1      22.728   9.028   2.204  1.00  0.00    -0.247 OA
HETATM    5  N2  UNL     1      22.636   8.158   0.080  1.00  0.00    -0.316 N 
ATOM      6  H2  UNL     1      22.235   7.472  -0.560  1.00  0.00     0.166 HD
ENDROOT
BRANCH   1   7
HETATM    7  C7  UNL     1      20.798   7.162   3.233  1.00  0.00     0.053 A 
HETATM    8  C6  UNL     1      21.541   7.663   4.273  1.00  0.00     0.030 A 
HETATM    9  C5  UNL     1      21.183   7.427   5.581  1.00  0.00     0.003 A 
HETATM   10  C4  UNL     1      20.075   6.679   5.838  1.00  0.00     0.019 A 
HETATM   11  C3  UNL     1      19.251   6.124   4.816  1.00  0.00     0.058 A 
HETATM   12  C17 UNL     1      19.640   6.389   3.519  1.00  0.00     0.082 A 
BRANCH  11  13
HETATM   13  C2  UNL     1      18.156   5.286   5.235  1.00  0.00     0.294 C 
HETATM   14  O2  UNL     1      17.065   5.587   5.685  1.00  0.00    -0.259 OA
BRANCH  13  15
HETATM   15  O1  UNL     1      18.347   3.888   5.120  1.00  0.00    -0.322 OA
HETATM   16  C1  UNL     1      18.472   3.080   6.269  1.00  0.00     0.213 C 
ENDBRANCH  13  15
ENDBRANCH  11  13
BRANCH  12  17
HETATM   17  C18 UNL     1      18.773   6.074   2.410  1.00  0.00     0.296 C 
HETATM   18  O5  UNL     1      19.127   5.123   1.598  1.00  0.00    -0.259 OA
BRANCH  17  19
HETATM   19  O6  UNL     1      17.580   6.612   2.022  1.00  0.00    -0.322 OA
HETATM   20  C19 UNL     1      17.473   7.656   1.051  1.00  0.00     0.213 C 
ENDBRANCH  17  19
ENDBRANCH  12  17
ENDBRANCH   1   7
BRANCH   5  21
HETATM   21  C9  UNL     1      23.619   9.098  -0.422  1.00  0.00     0.224 C 
HETATM   22  C10 UNL     1      24.450   9.590   0.713  1.00  0.00     0.054 C 
HETATM   23  C11 UNL     1      25.582  10.465   0.417  1.00  0.00     0.004 C 
HETATM   24  C12 UNL     1      25.686  11.115  -0.902  1.00  0.00     0.000 C 
HETATM   25  C13 UNL     1      24.764  12.219  -1.238  1.00  0.00     0.000 C 
HETATM   26  C14 UNL     1      23.813  12.674  -0.200  1.00  0.00     0.002 C 
HETATM   27  C15 UNL     1      22.372  12.299  -0.466  1.00  0.00     0.026 C 
HETATM   28  C16 UNL     1      22.099  10.848  -0.474  1.00  0.00     0.170 C 
HETATM   29  O4  UNL     1      22.974  10.061  -1.141  1.00  0.00    -0.367 OA
ENDBRANCH   5  21
TORSDOF 6
ENDMDL
