MODEL 1
REMARK VINA RESULT: -6.156899788      0.000      0.000
REMARK  6 active torsions:
REMARK  status: ('A' for Active; 'I' for Inactive)
REMARK    1  A    between atoms: C4_4  and  C5_5 
REMARK    2  A    between atoms: C9_10  and  O2_11 
REMARK    3  A    between atoms: C9_10  and  C10_13 
REMARK    4  A    between atoms: C10_13  and  C11_15 
REMARK    5  A    between atoms: C11_15  and  C12_16 
REMARK    6  A    between atoms: C15_19  and  O4_20 
ROOT
HETATM    1  C5  UNL     1      22.201   9.327   2.459  1.00  0.00     0.005 A 
HETATM    2  C6  UNL     1      22.283   9.869   3.741  1.00  0.00     0.154 A 
HETATM    3  O1  UNL     1      21.671   9.136   4.621  1.00  0.00    -0.326 OA
HETATM    4  C7  UNL     1      21.160   8.100   4.015  1.00  0.00     0.063 A 
HETATM    5  C8  UNL     1      21.454   8.158   2.651  1.00  0.00     0.028 A 
HETATM    6  C9  UNL     1      21.016   7.138   1.730  1.00  0.00     0.174 C 
HETATM    7  C15 UNL     1      20.221   6.044   2.510  1.00  0.00     0.165 C 
HETATM    8  C16 UNL     1      20.799   5.762   3.849  1.00  0.00     0.042 C 
HETATM    9  C17 UNL     1      20.382   7.014   4.645  1.00  0.00     0.068 C 
ENDROOT
BRANCH   6  10
HETATM   10  O2  UNL     1      21.998   6.326   1.168  1.00  0.00    -0.374 OA
ATOM     11  H2  UNL     1      22.048   6.300   0.220  1.00  0.00     0.211 HD
ENDBRANCH   6  10
BRANCH   6  12
HETATM   12  C10 UNL     1      19.939   7.532   0.758  1.00  0.00     0.169 C 
HETATM   13  O3  UNL     1      19.953   7.101  -0.369  1.00  0.00    -0.294 OA
BRANCH  12  14
HETATM   14  C11 UNL     1      18.862   8.445   1.197  1.00  0.00     0.086 C 
BRANCH  14  15
HETATM   15  C12 UNL     1      17.651   7.736   1.711  1.00  0.00    -0.007 A 
HETATM   16  C13 UNL     1      16.956   6.663   0.964  1.00  0.00     0.005 A 
HETATM   17  C14 UNL     1      16.364   8.004   0.936  1.00  0.00     0.005 A 
ENDBRANCH  14  15
ENDBRANCH  12  14
ENDBRANCH   6  12
BRANCH   7  18
HETATM   18  O4  UNL     1      20.150   4.880   1.771  1.00  0.00    -0.392 OA
ATOM     19  H4  UNL     1      19.244   4.630   1.633  1.00  0.00     0.210 HD
ENDBRANCH   7  18
BRANCH   1  20
HETATM   20  C4  UNL     1      22.781   9.898   1.256  1.00  0.00    -0.038 C 
HETATM   21  C3  UNL     1      24.083  10.256   1.360  1.00  0.00    -0.003 C 
HETATM   22  C2  UNL     1      24.942  10.851   0.353  1.00  0.00     0.077 C 
HETATM   23  C1  UNL     1      25.514   9.863  -0.603  1.00  0.00     0.026 C 
HETATM   24  S2  UNL     1      24.283  12.362  -0.433  1.00  0.00    -0.089 SA
HETATM   25  S1  UNL     1      22.152  11.962  -0.369  1.00  0.00    -0.092 SA
HETATM   26  C18 UNL     1      22.211  10.140  -0.040  1.00  0.00     0.125 C 
ENDBRANCH   1  20
TORSDOF 6
ENDMDL
MODEL 2
REMARK VINA RESULT: -4.922436100      1.004      1.538
REMARK  6 active torsions:
REMARK  status: ('A' for Active; 'I' for Inactive)
REMARK    1  A    between atoms: C4_4  and  C5_5 
REMARK    2  A    between atoms: C9_10  and  O2_11 
REMARK    3  A    between atoms: C9_10  and  C10_13 
REMARK    4  A    between atoms: C10_13  and  C11_15 
REMARK    5  A    between atoms: C11_15  and  C12_16 
REMARK    6  A    between atoms: C15_19  and  O4_20 
ROOT
HETATM    1  C5  UNL     1      22.185   9.356   2.826  1.00  0.00     0.005 A 
HETATM    2  C6  UNL     1      22.127   9.759   4.159  1.00  0.00     0.154 A 
HETATM    3  O1  UNL     1      21.484   8.908   4.899  1.00  0.00    -0.326 OA
HETATM    4  C7  UNL     1      21.084   7.921   4.144  1.00  0.00     0.063 A 
HETATM    5  C8  UNL     1      21.491   8.140   2.827  1.00  0.00     0.028 A 
HETATM    6  C9  UNL     1      21.190   7.206   1.769  1.00  0.00     0.174 C 
HETATM    7  C15 UNL     1      20.393   5.999   2.356  1.00  0.00     0.165 C 
HETATM    8  C16 UNL     1      20.869   5.601   3.705  1.00  0.00     0.042 C 
HETATM    9  C17 UNL     1      20.317   6.738   4.585  1.00  0.00     0.068 C 
ENDROOT
BRANCH   6  10
HETATM   10  O2  UNL     1      22.260   6.506   1.218  1.00  0.00    -0.374 OA
ATOM     11  H2  UNL     1      22.107   6.060   0.393  1.00  0.00     0.211 HD
ENDBRANCH   6  10
BRANCH   6  12
HETATM   12  C10 UNL     1      20.180   7.653   0.749  1.00  0.00     0.169 C 
HETATM   13  O3  UNL     1      20.323   7.361  -0.413  1.00  0.00    -0.294 OA
BRANCH  12  14
HETATM   14  C11 UNL     1      19.010   8.446   1.183  1.00  0.00     0.086 C 
BRANCH  14  15
HETATM   15  C12 UNL     1      17.872   7.611   1.676  1.00  0.00    -0.007 A 
HETATM   16  C13 UNL     1      17.263   6.517   0.885  1.00  0.00     0.005 A 
HETATM   17  C14 UNL     1      16.556   7.801   0.928  1.00  0.00     0.005 A 
ENDBRANCH  14  15
ENDBRANCH  12  14
ENDBRANCH   6  12
BRANCH   7  18
HETATM   18  O4  UNL     1      20.450   4.920   1.496  1.00  0.00    -0.392 OA
ATOM     19  H4  UNL     1      21.310   4.517   1.526  1.00  0.00     0.210 HD
ENDBRANCH   7  18
BRANCH   1  20
HETATM   20  C4  UNL     1      22.833  10.079   1.747  1.00  0.00    -0.038 C 
HETATM   21  C3  UNL     1      22.059  10.302   0.658  1.00  0.00    -0.003 C 
HETATM   22  C2  UNL     1      22.405  10.985  -0.576  1.00  0.00     0.077 C 
HETATM   23  C1  UNL     1      22.323  12.468  -0.481  1.00  0.00     0.026 C 
HETATM   24  S2  UNL     1      23.910  10.367  -1.406  1.00  0.00    -0.089 SA
HETATM   25  S1  UNL     1      25.086   9.726   0.299  1.00  0.00    -0.092 SA
HETATM   26  C18 UNL     1      24.162  10.614   1.637  1.00  0.00     0.125 C 
ENDBRANCH   1  20
TORSDOF 6
ENDMDL
MODEL 3
REMARK VINA RESULT: -4.729379437      0.862      1.034
REMARK  6 active torsions:
REMARK  status: ('A' for Active; 'I' for Inactive)
REMARK    1  A    between atoms: C4_4  and  C5_5 
REMARK    2  A    between atoms: C9_10  and  O2_11 
REMARK    3  A    between atoms: C9_10  and  C10_13 
REMARK    4  A    between atoms: C10_13  and  C11_15 
REMARK    5  A    between atoms: C11_15  and  C12_16 
REMARK    6  A    between atoms: C15_19  and  O4_20 
ROOT
HETATM    1  C5  UNL     1      22.223   9.337   2.600  1.00  0.00     0.005 A 
HETATM    2  C6  UNL     1      22.573   9.923   3.816  1.00  0.00     0.154 A 
HETATM    3  O1  UNL     1      22.046   9.301   4.826  1.00  0.00    -0.326 OA
HETATM    4  C7  UNL     1      21.337   8.302   4.376  1.00  0.00     0.063 A 
HETATM    5  C8  UNL     1      21.405   8.267   2.982  1.00  0.00     0.028 A 
HETATM    6  C9  UNL     1      20.717   7.262   2.209  1.00  0.00     0.174 C 
HETATM    7  C15 UNL     1      19.958   6.297   3.174  1.00  0.00     0.165 C 
HETATM    8  C16 UNL     1      20.720   6.013   4.416  1.00  0.00     0.042 C 
HETATM    9  C17 UNL     1      20.570   7.337   5.190  1.00  0.00     0.068 C 
ENDROOT
BRANCH   6  10
HETATM   10  O2  UNL     1      21.504   6.322   1.547  1.00  0.00    -0.374 OA
ATOM     11  H2  UNL     1      21.788   6.538   0.667  1.00  0.00     0.211 HD
ENDBRANCH   6  10
BRANCH   6  12
HETATM   12  C10 UNL     1      19.538   7.728   1.401  1.00  0.00     0.169 C 
HETATM   13  O3  UNL     1      19.020   8.790   1.643  1.00  0.00    -0.294 OA
BRANCH  12  14
HETATM   14  C11 UNL     1      19.025   6.877   0.306  1.00  0.00     0.086 C 
BRANCH  14  15
HETATM   15  C12 UNL     1      17.541   6.944   0.142  1.00  0.00    -0.007 A 
HETATM   16  C13 UNL     1      16.633   7.499   1.171  1.00  0.00     0.005 A 
HETATM   17  C14 UNL     1      16.744   6.040   1.077  1.00  0.00     0.005 A 
ENDBRANCH  14  15
ENDBRANCH  12  14
ENDBRANCH   6  12
BRANCH   7  18
HETATM   18  O4  UNL     1      19.646   5.117   2.529  1.00  0.00    -0.392 OA
ATOM     19  H4  UNL     1      19.742   4.380   3.121  1.00  0.00     0.210 HD
ENDBRANCH   7  18
BRANCH   1  20
HETATM   20  C4  UNL     1      22.648   9.787   1.287  1.00  0.00    -0.038 C 
HETATM   21  C3  UNL     1      23.989   9.859   1.111  1.00  0.00    -0.003 C 
HETATM   22  C2  UNL     1      24.727  10.270  -0.070  1.00  0.00     0.077 C 
HETATM   23  C1  UNL     1      24.868   9.196  -1.091  1.00  0.00     0.026 C 
HETATM   24  S2  UNL     1      24.252  11.896  -0.752  1.00  0.00    -0.089 SA
HETATM   25  S1  UNL     1      22.146  11.957  -0.241  1.00  0.00    -0.092 SA
HETATM   26  C18 UNL     1      21.887  10.160   0.128  1.00  0.00     0.125 C 
ENDBRANCH   1  20
TORSDOF 6
ENDMDL
MODEL 4
REMARK VINA RESULT: -4.086960266      1.916      4.249
REMARK  6 active torsions:
REMARK  status: ('A' for Active; 'I' for Inactive)
REMARK    1  A    between atoms: C4_4  and  C5_5 
REMARK    2  A    between atoms: C9_10  and  O2_11 
REMARK    3  A    between atoms: C9_10  and  C10_13 
REMARK    4  A    between atoms: C10_13  and  C11_15 
REMARK    5  A    between atoms: C11_15  and  C12_16 
REMARK    6  A    between atoms: C15_19  and  O4_20 
ROOT
HETATM    1  C5  UNL     1      20.717   7.326  -0.030  1.00  0.00     0.005 A 
HETATM    2  C6  UNL     1      20.147   6.965  -1.249  1.00  0.00     0.154 A 
HETATM    3  O1  UNL     1      19.011   6.355  -1.095  1.00  0.00    -0.326 OA
HETATM    4  C7  UNL     1      18.755   6.270   0.182  1.00  0.00     0.063 A 
HETATM    5  C8  UNL     1      19.789   6.861   0.910  1.00  0.00     0.028 A 
HETATM    6  C9  UNL     1      19.774   6.916   2.352  1.00  0.00     0.174 C 
HETATM    7  C15 UNL     1      18.467   6.246   2.881  1.00  0.00     0.165 C 
HETATM    8  C16 UNL     1      17.289   6.536   2.026  1.00  0.00     0.042 C 
HETATM    9  C17 UNL     1      17.563   5.650   0.796  1.00  0.00     0.068 C 
ENDROOT
BRANCH   6  10
HETATM   10  O2  UNL     1      19.620   8.171   2.937  1.00  0.00    -0.374 OA
ATOM     11  H2  UNL     1      18.861   8.298   3.494  1.00  0.00     0.211 HD
ENDBRANCH   6  10
BRANCH   6  12
HETATM   12  C10 UNL     1      20.767   6.042   3.066  1.00  0.00     0.169 C 
HETATM   13  O3  UNL     1      20.422   4.977   3.517  1.00  0.00    -0.294 OA
BRANCH  12  14
HETATM   14  C11 UNL     1      22.167   6.496   3.205  1.00  0.00     0.086 C 
BRANCH  14  15
HETATM   15  C12 UNL     1      22.526   6.908   4.596  1.00  0.00    -0.007 A 
HETATM   16  C13 UNL     1      21.589   7.602   5.508  1.00  0.00     0.005 A 
HETATM   17  C14 UNL     1      22.603   8.414   4.827  1.00  0.00     0.005 A 
ENDBRANCH  14  15
ENDBRANCH  12  14
ENDBRANCH   6  12
BRANCH   7  18
HETATM   18  O4  UNL     1      18.217   6.637   4.181  1.00  0.00    -0.392 OA
ATOM     19  H4  UNL     1      19.030   6.833   4.631  1.00  0.00     0.210 HD
ENDBRANCH   7  18
BRANCH   1  20
HETATM   20  C4  UNL     1      21.979   8.022   0.145  1.00  0.00    -0.038 C 
HETATM   21  C3  UNL     1      21.873   9.313   0.543  1.00  0.00    -0.003 C 
HETATM   22  C2  UNL     1      22.933  10.271   0.801  1.00  0.00     0.077 C 
HETATM   23  C1  UNL     1      23.549  10.132   2.148  1.00  0.00     0.026 C 
HETATM   24  S2  UNL     1      24.135  10.480  -0.558  1.00  0.00    -0.089 SA
HETATM   25  S1  UNL     1      24.131   8.490  -1.419  1.00  0.00    -0.092 SA
HETATM   26  C18 UNL     1      23.333   7.573  -0.021  1.00  0.00     0.125 C 
ENDBRANCH   1  20
TORSDOF 6
ENDMDL
MODEL 5
REMARK VINA RESULT: -3.932181650      3.714      5.775
REMARK  6 active torsions:
REMARK  status: ('A' for Active; 'I' for Inactive)
REMARK    1  A    between atoms: C4_4  and  C5_5 
REMARK    2  A    between atoms: C9_10  and  O2_11 
REMARK    3  A    between atoms: C9_10  and  C10_13 
REMARK    4  A    between atoms: C10_13  and  C11_15 
REMARK    5  A    between atoms: C11_15  and  C12_16 
REMARK    6  A    between atoms: C15_19  and  O4_20 
ROOT
HETATM    1  C5  UNL     1      21.266   6.819   4.630  1.00  0.00     0.005 A 
HETATM    2  C6  UNL     1      22.258   7.110   5.564  1.00  0.00     0.154 A 
HETATM    3  O1  UNL     1      23.026   8.081   5.172  1.00  0.00    -0.326 OA
HETATM    4  C7  UNL     1      22.619   8.487   4.001  1.00  0.00     0.063 A 
HETATM    5  C8  UNL     1      21.514   7.734   3.599  1.00  0.00     0.028 A 
HETATM    6  C9  UNL     1      20.849   7.964   2.340  1.00  0.00     0.174 C 
HETATM    7  C15 UNL     1      21.554   9.138   1.590  1.00  0.00     0.165 C 
HETATM    8  C16 UNL     1      21.996  10.219   2.506  1.00  0.00     0.042 C 
HETATM    9  C17 UNL     1      23.213   9.573   3.196  1.00  0.00     0.068 C 
ENDROOT
BRANCH   6  10
HETATM   10  O2  UNL     1      19.560   8.490   2.391  1.00  0.00    -0.374 OA
ATOM     11  H2  UNL     1      19.012   8.365   1.625  1.00  0.00     0.211 HD
ENDBRANCH   6  10
BRANCH   6  12
HETATM   12  C10 UNL     1      21.020   6.904   1.288  1.00  0.00     0.169 C 
HETATM   13  O3  UNL     1      21.963   6.944   0.536  1.00  0.00    -0.294 OA
BRANCH  12  14
HETATM   14  C11 UNL     1      20.028   5.812   1.188  1.00  0.00     0.086 C 
BRANCH  14  15
HETATM   15  C12 UNL     1      18.847   6.154   0.338  1.00  0.00    -0.007 A 
HETATM   16  C13 UNL     1      17.912   7.259   0.650  1.00  0.00     0.005 A 
HETATM   17  C14 UNL     1      17.488   5.894   0.981  1.00  0.00     0.005 A 
ENDBRANCH  14  15
ENDBRANCH  12  14
ENDBRANCH   6  12
BRANCH   7  18
HETATM   18  O4  UNL     1      20.725   9.654   0.614  1.00  0.00    -0.392 OA
ATOM     19  H4  UNL     1      20.741   9.103  -0.160  1.00  0.00     0.210 HD
ENDBRANCH   7  18
BRANCH   1  20
HETATM   20  C4  UNL     1      20.246   5.794   4.765  1.00  0.00    -0.038 C 
HETATM   21  C3  UNL     1      19.158   6.157   5.485  1.00  0.00    -0.003 C 
HETATM   22  C2  UNL     1      17.978   5.372   5.803  1.00  0.00     0.077 C 
HETATM   23  C1  UNL     1      16.973   5.333   4.707  1.00  0.00     0.026 C 
HETATM   24  S2  UNL     1      18.314   3.751   6.575  1.00  0.00    -0.089 SA
HETATM   25  S1  UNL     1      20.213   3.245   5.659  1.00  0.00    -0.092 SA
HETATM   26  C18 UNL     1      20.186   4.453   4.254  1.00  0.00     0.125 C 
ENDBRANCH   1  20
TORSDOF 6
ENDMDL
