MODEL 1
REMARK VINA RESULT: -8.344822264      0.000      0.000
REMARK  6 active torsions:
REMARK  status: ('A' for Active; 'I' for Inactive)
REMARK    1  A    between atoms: C4_4  and  C5_5 
REMARK    2  A    between atoms: C5_5  and  C6_6 
REMARK    3  A    between atoms: C6_6  and  C7_7 
REMARK    4  A    between atoms: C7_7  and  C8_8 
REMARK    5  A    between atoms: C8_8  and  C9_9 
REMARK    6  A    between atoms: C9_9  and  N1_10 
ROOT
HETATM    1  N1  UNL     1      26.034  30.080   6.343  1.00  0.00    -0.292 N 
HETATM    2  N2  UNL     1      26.007  30.105   5.041  1.00  0.00    -0.308 N 
ATOM      3  H2  UNL     1      26.498  29.432   4.453  1.00  0.00     0.186 HD
HETATM    4  C10 UNL     1      25.262  31.114   4.556  1.00  0.00     0.122 A 
HETATM    5  C11 UNL     1      24.775  31.786   5.627  1.00  0.00     0.020 A 
HETATM    6  C12 UNL     1      23.998  32.846   6.110  1.00  0.00    -0.012 A 
HETATM    7  C13 UNL     1      23.300  33.789   5.411  1.00  0.00     0.013 A 
HETATM    8  C14 UNL     1      22.582  34.771   6.079  1.00  0.00     0.001 A 
HETATM    9  C15 UNL     1      22.593  34.771   7.471  1.00  0.00     0.001 A 
HETATM   10  C16 UNL     1      23.299  33.817   8.178  1.00  0.00     0.012 A 
HETATM   11  C17 UNL     1      24.016  32.836   7.493  1.00  0.00    -0.023 A 
HETATM   12  C18 UNL     1      24.797  31.778   7.910  1.00  0.00     0.044 A 
HETATM   13  C19 UNL     1      25.283  31.106   6.812  1.00  0.00     0.064 A 
ENDROOT
BRANCH   1  14
HETATM   14  C9  UNL     1      26.724  29.150   7.240  1.00  0.00     0.149 C 
BRANCH  14  15
HETATM   15  C8  UNL     1      25.882  27.908   7.311  1.00  0.00     0.022 C 
BRANCH  15  16
HETATM   16  C7  UNL     1      24.681  28.050   8.178  1.00  0.00     0.002 C 
BRANCH  16  17
HETATM   17  C6  UNL     1      23.383  28.132   7.452  1.00  0.00     0.005 C 
BRANCH  17  18
HETATM   18  C5  UNL     1      22.344  28.812   8.295  1.00  0.00     0.038 C 
BRANCH  18  19
HETATM   19  C4  UNL     1      21.624  29.864   7.502  1.00  0.00    -0.058 A 
HETATM   20  C3  UNL     1      20.891  30.866   8.104  1.00  0.00     0.007 A 
HETATM   21  C2  UNL     1      20.230  31.830   7.376  1.00  0.00     0.001 A 
HETATM   22  C1  UNL     1      20.275  31.830   6.004  1.00  0.00     0.000 A 
HETATM   23  C21 UNL     1      21.002  30.835   5.383  1.00  0.00     0.001 A 
HETATM   24  C20 UNL     1      21.666  29.868   6.125  1.00  0.00     0.007 A 
ENDBRANCH  18  19
ENDBRANCH  17  18
ENDBRANCH  16  17
ENDBRANCH  15  16
ENDBRANCH  14  15
ENDBRANCH   1  14
TORSDOF 6
ENDMDL
MODEL 2
REMARK VINA RESULT: -8.254542706      4.181      7.854
REMARK  6 active torsions:
REMARK  status: ('A' for Active; 'I' for Inactive)
REMARK    1  A    between atoms: C4_4  and  C5_5 
REMARK    2  A    between atoms: C5_5  and  C6_6 
REMARK    3  A    between atoms: C6_6  and  C7_7 
REMARK    4  A    between atoms: C7_7  and  C8_8 
REMARK    5  A    between atoms: C8_8  and  C9_9 
REMARK    6  A    between atoms: C9_9  and  N1_10 
ROOT
HETATM    1  N1  UNL     1      28.450  27.680   9.215  1.00  0.00    -0.292 N 
HETATM    2  N2  UNL     1      29.502  28.093   9.862  1.00  0.00    -0.308 N 
ATOM      3  H2  UNL     1      29.860  29.046   9.809  1.00  0.00     0.186 HD
HETATM    4  C10 UNL     1      30.064  27.126  10.609  1.00  0.00     0.122 A 
HETATM    5  C11 UNL     1      29.317  26.010  10.426  1.00  0.00     0.020 A 
HETATM    6  C12 UNL     1      29.110  24.659  10.727  1.00  0.00    -0.012 A 
HETATM    7  C13 UNL     1      29.833  23.838  11.544  1.00  0.00     0.013 A 
HETATM    8  C14 UNL     1      29.463  22.512  11.715  1.00  0.00     0.001 A 
HETATM    9  C15 UNL     1      28.343  22.041  11.035  1.00  0.00     0.001 A 
HETATM   10  C16 UNL     1      27.611  22.872  10.207  1.00  0.00     0.012 A 
HETATM   11  C17 UNL     1      27.995  24.203  10.046  1.00  0.00    -0.023 A 
HETATM   12  C18 UNL     1      27.479  25.248   9.307  1.00  0.00     0.044 A 
HETATM   13  C19 UNL     1      28.248  26.371   9.504  1.00  0.00     0.064 A 
ENDROOT
BRANCH   1  14
HETATM   14  C9  UNL     1      27.570  28.418   8.307  1.00  0.00     0.149 C 
BRANCH  14  15
HETATM   15  C8  UNL     1      27.126  29.654   9.038  1.00  0.00     0.022 C 
BRANCH  15  16
HETATM   16  C7  UNL     1      27.301  30.906   8.255  1.00  0.00     0.002 C 
BRANCH  16  17
HETATM   17  C6  UNL     1      26.129  31.825   8.262  1.00  0.00     0.005 C 
BRANCH  17  18
HETATM   18  C5  UNL     1      25.068  31.341   7.317  1.00  0.00     0.038 C 
BRANCH  18  19
HETATM   19  C4  UNL     1      24.248  32.491   6.809  1.00  0.00    -0.058 A 
HETATM   20  C3  UNL     1      23.704  33.437   7.654  1.00  0.00     0.007 A 
HETATM   21  C2  UNL     1      22.951  34.492   7.187  1.00  0.00     0.001 A 
HETATM   22  C1  UNL     1      22.710  34.644   5.844  1.00  0.00     0.000 A 
HETATM   23  C21 UNL     1      23.245  33.709   4.983  1.00  0.00     0.001 A 
HETATM   24  C20 UNL     1      24.003  32.649   5.462  1.00  0.00     0.007 A 
ENDBRANCH  18  19
ENDBRANCH  17  18
ENDBRANCH  16  17
ENDBRANCH  15  16
ENDBRANCH  14  15
ENDBRANCH   1  14
TORSDOF 6
ENDMDL
MODEL 3
REMARK VINA RESULT: -8.207067602      1.281      2.328
REMARK  6 active torsions:
REMARK  status: ('A' for Active; 'I' for Inactive)
REMARK    1  A    between atoms: C4_4  and  C5_5 
REMARK    2  A    between atoms: C5_5  and  C6_6 
REMARK    3  A    between atoms: C6_6  and  C7_7 
REMARK    4  A    between atoms: C7_7  and  C8_8 
REMARK    5  A    between atoms: C8_8  and  C9_9 
REMARK    6  A    between atoms: C9_9  and  N1_10 
ROOT
HETATM    1  N1  UNL     1      25.717  31.198   7.625  1.00  0.00    -0.292 N 
HETATM    2  N2  UNL     1      25.571  31.986   8.652  1.00  0.00    -0.308 N 
ATOM      3  H2  UNL     1      26.118  31.907   9.508  1.00  0.00     0.186 HD
HETATM    4  C10 UNL     1      24.618  32.915   8.461  1.00  0.00     0.122 A 
HETATM    5  C11 UNL     1      24.116  32.707   7.218  1.00  0.00     0.020 A 
HETATM    6  C12 UNL     1      23.210  33.095   6.224  1.00  0.00    -0.012 A 
HETATM    7  C13 UNL     1      22.297  34.109   6.241  1.00  0.00     0.013 A 
HETATM    8  C14 UNL     1      21.478  34.338   5.144  1.00  0.00     0.001 A 
HETATM    9  C15 UNL     1      21.612  33.510   4.032  1.00  0.00     0.001 A 
HETATM   10  C16 UNL     1      22.537  32.484   4.015  1.00  0.00     0.012 A 
HETATM   11  C17 UNL     1      23.352  32.267   5.125  1.00  0.00    -0.023 A 
HETATM   12  C18 UNL     1      24.343  31.346   5.399  1.00  0.00     0.044 A 
HETATM   13  C19 UNL     1      24.840  31.571   6.662  1.00  0.00     0.064 A 
ENDROOT
BRANCH   1  14
HETATM   14  C9  UNL     1      26.638  30.074   7.443  1.00  0.00     0.149 C 
BRANCH  14  15
HETATM   15  C8  UNL     1      26.052  28.905   8.183  1.00  0.00     0.022 C 
BRANCH  15  16
HETATM   16  C7  UNL     1      25.004  28.179   7.416  1.00  0.00     0.002 C 
BRANCH  16  17
HETATM   17  C6  UNL     1      23.612  28.373   7.908  1.00  0.00     0.005 C 
BRANCH  17  18
HETATM   18  C5  UNL     1      22.624  28.203   6.790  1.00  0.00     0.038 C 
BRANCH  18  19
HETATM   19  C4  UNL     1      21.618  29.317   6.798  1.00  0.00    -0.058 A 
HETATM   20  C3  UNL     1      20.753  29.534   5.745  1.00  0.00     0.007 A 
HETATM   21  C2  UNL     1      19.831  30.557   5.752  1.00  0.00     0.001 A 
HETATM   22  C1  UNL     1      19.737  31.412   6.822  1.00  0.00     0.000 A 
HETATM   23  C21 UNL     1      20.593  31.212   7.885  1.00  0.00     0.001 A 
HETATM   24  C20 UNL     1      21.520  30.178   7.869  1.00  0.00     0.007 A 
ENDBRANCH  18  19
ENDBRANCH  17  18
ENDBRANCH  16  17
ENDBRANCH  15  16
ENDBRANCH  14  15
ENDBRANCH   1  14
TORSDOF 6
ENDMDL
MODEL 4
REMARK VINA RESULT: -8.206225015      4.164      7.899
REMARK  6 active torsions:
REMARK  status: ('A' for Active; 'I' for Inactive)
REMARK    1  A    between atoms: C4_4  and  C5_5 
REMARK    2  A    between atoms: C5_5  and  C6_6 
REMARK    3  A    between atoms: C6_6  and  C7_7 
REMARK    4  A    between atoms: C7_7  and  C8_8 
REMARK    5  A    between atoms: C8_8  and  C9_9 
REMARK    6  A    between atoms: C9_9  and  N1_10 
ROOT
HETATM    1  N1  UNL     1      28.433  27.680   9.190  1.00  0.00    -0.292 N 
HETATM    2  N2  UNL     1      29.486  28.098   9.832  1.00  0.00    -0.308 N 
ATOM      3  H2  UNL     1      29.842  29.052   9.773  1.00  0.00     0.186 HD
HETATM    4  C10 UNL     1      30.054  27.137  10.581  1.00  0.00     0.122 A 
HETATM    5  C11 UNL     1      29.309  26.018  10.406  1.00  0.00     0.020 A 
HETATM    6  C12 UNL     1      29.106  24.667  10.714  1.00  0.00    -0.012 A 
HETATM    7  C13 UNL     1      29.834  23.852  11.532  1.00  0.00     0.013 A 
HETATM    8  C14 UNL     1      29.469  22.525  11.710  1.00  0.00     0.001 A 
HETATM    9  C15 UNL     1      28.348  22.049  11.036  1.00  0.00     0.001 A 
HETATM   10  C16 UNL     1      27.610  22.874  10.208  1.00  0.00     0.012 A 
HETATM   11  C17 UNL     1      27.990  24.205  10.039  1.00  0.00    -0.023 A 
HETATM   12  C18 UNL     1      27.469  25.245   9.297  1.00  0.00     0.044 A 
HETATM   13  C19 UNL     1      28.236  26.372   9.486  1.00  0.00     0.064 A 
ENDROOT
BRANCH   1  14
HETATM   14  C9  UNL     1      27.548  28.412   8.282  1.00  0.00     0.149 C 
BRANCH  14  15
HETATM   15  C8  UNL     1      27.117  29.657   9.004  1.00  0.00     0.022 C 
BRANCH  15  16
HETATM   16  C7  UNL     1      27.437  30.912   8.271  1.00  0.00     0.002 C 
BRANCH  16  17
HETATM   17  C6  UNL     1      26.419  31.336   7.270  1.00  0.00     0.005 C 
BRANCH  17  18
HETATM   18  C5  UNL     1      25.044  31.321   7.870  1.00  0.00     0.038 C 
BRANCH  18  19
HETATM   19  C4  UNL     1      24.243  32.496   7.389  1.00  0.00    -0.058 A 
HETATM   20  C3  UNL     1      23.969  32.702   6.052  1.00  0.00     0.007 A 
HETATM   21  C2  UNL     1      23.235  33.781   5.611  1.00  0.00     0.001 A 
HETATM   22  C1  UNL     1      22.742  34.705   6.498  1.00  0.00     0.000 A 
HETATM   23  C21 UNL     1      23.004  34.517   7.839  1.00  0.00     0.001 A 
HETATM   24  C20 UNL     1      23.745  33.427   8.275  1.00  0.00     0.007 A 
ENDBRANCH  18  19
ENDBRANCH  17  18
ENDBRANCH  16  17
ENDBRANCH  15  16
ENDBRANCH  14  15
ENDBRANCH   1  14
TORSDOF 6
ENDMDL
MODEL 5
REMARK VINA RESULT: -8.150970168      3.890      7.623
REMARK  6 active torsions:
REMARK  status: ('A' for Active; 'I' for Inactive)
REMARK    1  A    between atoms: C4_4  and  C5_5 
REMARK    2  A    between atoms: C5_5  and  C6_6 
REMARK    3  A    between atoms: C6_6  and  C7_7 
REMARK    4  A    between atoms: C7_7  and  C8_8 
REMARK    5  A    between atoms: C8_8  and  C9_9 
REMARK    6  A    between atoms: C9_9  and  N1_10 
ROOT
HETATM    1  N1  UNL     1      27.180  27.845   9.417  1.00  0.00    -0.292 N 
HETATM    2  N2  UNL     1      28.194  28.495   9.912  1.00  0.00    -0.308 N 
ATOM      3  H2  UNL     1      28.324  29.501   9.814  1.00  0.00     0.186 HD
HETATM    4  C10 UNL     1      29.053  27.694  10.569  1.00  0.00     0.122 A 
HETATM    5  C11 UNL     1      28.551  26.438  10.487  1.00  0.00     0.020 A 
HETATM    6  C12 UNL     1      28.689  25.082  10.809  1.00  0.00    -0.012 A 
HETATM    7  C13 UNL     1      29.679  24.461  11.513  1.00  0.00     0.013 A 
HETATM    8  C14 UNL     1      29.637  23.091  11.728  1.00  0.00     0.001 A 
HETATM    9  C15 UNL     1      28.565  22.369  11.209  1.00  0.00     0.001 A 
HETATM   10  C16 UNL     1      27.562  22.998  10.496  1.00  0.00     0.012 A 
HETATM   11  C17 UNL     1      27.618  24.376  10.288  1.00  0.00    -0.023 A 
HETATM   12  C18 UNL     1      26.789  25.263   9.634  1.00  0.00     0.044 A 
HETATM   13  C19 UNL     1      27.312  26.533   9.726  1.00  0.00     0.064 A 
ENDROOT
BRANCH   1  14
HETATM   14  C9  UNL     1      26.043  28.350   8.644  1.00  0.00     0.149 C 
BRANCH  14  15
HETATM   15  C8  UNL     1      26.473  28.379   7.205  1.00  0.00     0.022 C 
BRANCH  15  16
HETATM   16  C7  UNL     1      25.606  29.225   6.341  1.00  0.00     0.002 C 
BRANCH  16  17
HETATM   17  C6  UNL     1      25.966  30.670   6.305  1.00  0.00     0.005 C 
BRANCH  17  18
HETATM   18  C5  UNL     1      24.977  31.444   5.484  1.00  0.00     0.038 C 
BRANCH  18  19
HETATM   19  C4  UNL     1      24.298  32.490   6.320  1.00  0.00    -0.058 A 
HETATM   20  C3  UNL     1      23.564  33.517   5.761  1.00  0.00     0.007 A 
HETATM   21  C2  UNL     1      22.942  34.477   6.529  1.00  0.00     0.001 A 
HETATM   22  C1  UNL     1      23.031  34.448   7.898  1.00  0.00     0.000 A 
HETATM   23  C21 UNL     1      23.761  33.430   8.477  1.00  0.00     0.001 A 
HETATM   24  C20 UNL     1      24.384  32.466   7.695  1.00  0.00     0.007 A 
ENDBRANCH  18  19
ENDBRANCH  17  18
ENDBRANCH  16  17
ENDBRANCH  15  16
ENDBRANCH  14  15
ENDBRANCH   1  14
TORSDOF 6
ENDMDL
