MODEL 1
REMARK VINA RESULT: -10.542957972      0.000      0.000
REMARK  5 active torsions:
REMARK  status: ('A' for Active; 'I' for Inactive)
REMARK    1  A    between atoms: C6_6  and  C7_7 
REMARK    2  A    between atoms: C7_7  and  C8_8 
REMARK    3  A    between atoms: C8_8  and  C9_9 
REMARK    4  A    between atoms: C9_9  and  O1_10 
REMARK    5  A    between atoms: O1_10  and  C10_11 
ROOT
HETATM    1  C8  UNL     1      26.561  28.982   8.681  1.00  0.00     0.031 C 
ENDROOT
BRANCH   1   2
HETATM    2  C7  UNL     1      27.141  30.075   7.837  1.00  0.00     0.041 C 
BRANCH   2   3
HETATM    3  C6  UNL     1      26.159  30.963   7.220  1.00  0.00    -0.057 A 
HETATM    4  C5  UNL     1      25.444  31.806   8.047  1.00  0.00     0.019 A 
HETATM    5  C4  UNL     1      24.491  32.688   7.587  1.00  0.00    -0.025 A 
HETATM    6  C3  UNL     1      23.780  33.529   8.423  1.00  0.00     0.012 A 
HETATM    7  C20 UNL     1      24.233  32.738   6.231  1.00  0.00    -0.026 A 
HETATM    8  C2  UNL     1      22.826  34.412   7.963  1.00  0.00     0.001 A 
HETATM    9  C1  UNL     1      22.581  34.446   6.592  1.00  0.00     0.001 A 
HETATM   10  C21 UNL     1      23.279  33.617   5.746  1.00  0.00     0.012 A 
HETATM   11  C19 UNL     1      24.948  31.894   5.402  1.00  0.00     0.013 A 
HETATM   12  C18 UNL     1      25.899  31.015   5.863  1.00  0.00     0.008 A 
ENDBRANCH   2   3
ENDBRANCH   1   2
BRANCH   1  13
HETATM   13  C9  UNL     1      26.406  27.758   7.799  1.00  0.00     0.176 C 
BRANCH  13  14
HETATM   14  O1  UNL     1      27.529  26.900   7.949  1.00  0.00    -0.351 OA
BRANCH  14  15
HETATM   15  C10 UNL     1      27.732  26.144   9.084  1.00  0.00     0.069 A 
HETATM   16  C11 UNL     1      26.735  25.283   9.479  1.00  0.00     0.039 A 
HETATM   17  C12 UNL     1      26.937  24.521  10.621  1.00  0.00     0.033 A 
HETATM   18  C13 UNL     1      28.099  24.599  11.368  1.00  0.00     0.042 A 
HETATM   19  N1  UNL     1      28.548  23.991  12.490  1.00  0.00    -0.365 N 
HETATM   20  C16 UNL     1      29.069  25.479  10.930  1.00  0.00    -0.005 A 
HETATM   21  C14 UNL     1      29.780  24.443  12.803  1.00  0.00     0.089 A 
ATOM     22  H1  UNL     1      28.030  23.291  13.023  1.00  0.00     0.165 HD
HETATM   23  C15 UNL     1      30.105  25.366  11.835  1.00  0.00     0.030 A 
HETATM   24  C17 UNL     1      28.903  26.254   9.798  1.00  0.00     0.050 A 
ENDBRANCH  14  15
ENDBRANCH  13  14
ENDBRANCH   1  13
TORSDOF 5
ENDMDL
MODEL 2
REMARK VINA RESULT: -10.521355676      4.201      6.375
REMARK  5 active torsions:
REMARK  status: ('A' for Active; 'I' for Inactive)
REMARK    1  A    between atoms: C6_6  and  C7_7 
REMARK    2  A    between atoms: C7_7  and  C8_8 
REMARK    3  A    between atoms: C8_8  and  C9_9 
REMARK    4  A    between atoms: C9_9  and  O1_10 
REMARK    5  A    between atoms: O1_10  and  C10_11 
ROOT
HETATM    1  C8  UNL     1      26.143  28.897   8.229  1.00  0.00     0.031 C 
ENDROOT
BRANCH   1   2
HETATM    2  C7  UNL     1      26.789  29.817   7.239  1.00  0.00     0.041 C 
BRANCH   2   3
HETATM    3  C6  UNL     1      25.891  30.792   6.628  1.00  0.00    -0.057 A 
HETATM    4  C5  UNL     1      25.226  31.668   7.464  1.00  0.00     0.019 A 
HETATM    5  C4  UNL     1      24.353  32.632   7.009  1.00  0.00    -0.025 A 
HETATM    6  C3  UNL     1      23.692  33.504   7.854  1.00  0.00     0.012 A 
HETATM    7  C20 UNL     1      24.126  32.735   5.651  1.00  0.00    -0.026 A 
HETATM    8  C2  UNL     1      22.818  34.469   7.400  1.00  0.00     0.001 A 
HETATM    9  C1  UNL     1      22.604  34.556   6.027  1.00  0.00     0.001 A 
HETATM   10  C21 UNL     1      23.253  33.696   5.172  1.00  0.00     0.012 A 
HETATM   11  C19 UNL     1      24.792  31.859   4.813  1.00  0.00     0.013 A 
HETATM   12  C18 UNL     1      25.663  30.898   5.268  1.00  0.00     0.008 A 
ENDBRANCH   2   3
ENDBRANCH   1   2
BRANCH   1  13
HETATM   13  C9  UNL     1      25.023  28.169   7.513  1.00  0.00     0.176 C 
BRANCH  13  14
HETATM   14  O1  UNL     1      23.871  28.105   8.341  1.00  0.00    -0.351 OA
BRANCH  14  15
HETATM   15  C10 UNL     1      22.624  28.498   7.900  1.00  0.00     0.069 A 
HETATM   16  C11 UNL     1      21.526  27.810   8.359  1.00  0.00     0.039 A 
HETATM   17  C12 UNL     1      20.270  28.203   7.918  1.00  0.00     0.033 A 
HETATM   18  C13 UNL     1      20.090  29.256   7.039  1.00  0.00     0.042 A 
HETATM   19  N1  UNL     1      19.013  29.836   6.462  1.00  0.00    -0.365 N 
HETATM   20  C16 UNL     1      21.224  29.915   6.607  1.00  0.00    -0.005 A 
HETATM   21  C14 UNL     1      19.403  30.853   5.666  1.00  0.00     0.089 A 
ATOM     22  H1  UNL     1      18.045  29.547   6.607  1.00  0.00     0.165 HD
HETATM   23  C15 UNL     1      20.775  30.903   5.755  1.00  0.00     0.030 A 
HETATM   24  C17 UNL     1      22.490  29.551   7.025  1.00  0.00     0.050 A 
ENDBRANCH  14  15
ENDBRANCH  13  14
ENDBRANCH   1  13
TORSDOF 5
ENDMDL
MODEL 3
REMARK VINA RESULT: -10.514192660      0.947      1.353
REMARK  5 active torsions:
REMARK  status: ('A' for Active; 'I' for Inactive)
REMARK    1  A    between atoms: C6_6  and  C7_7 
REMARK    2  A    between atoms: C7_7  and  C8_8 
REMARK    3  A    between atoms: C8_8  and  C9_9 
REMARK    4  A    between atoms: C9_9  and  O1_10 
REMARK    5  A    between atoms: O1_10  and  C10_11 
ROOT
HETATM    1  C8  UNL     1      27.691  29.354   7.946  1.00  0.00     0.031 C 
ENDROOT
BRANCH   1   2
HETATM    2  C7  UNL     1      27.135  30.605   8.552  1.00  0.00     0.041 C 
BRANCH   2   3
HETATM    3  C6  UNL     1      26.155  31.306   7.727  1.00  0.00    -0.057 A 
HETATM    4  C5  UNL     1      25.293  32.183   8.355  1.00  0.00     0.019 A 
HETATM    5  C4  UNL     1      24.326  32.902   7.687  1.00  0.00    -0.025 A 
HETATM    6  C3  UNL     1      23.467  33.778   8.325  1.00  0.00     0.012 A 
HETATM    7  C20 UNL     1      24.207  32.744   6.320  1.00  0.00    -0.026 A 
HETATM    8  C2  UNL     1      22.499  34.497   7.657  1.00  0.00     0.001 A 
HETATM    9  C1  UNL     1      22.396  34.324   6.279  1.00  0.00     0.001 A 
HETATM   10  C21 UNL     1      23.242  33.456   5.629  1.00  0.00     0.012 A 
HETATM   11  C19 UNL     1      25.070  31.867   5.690  1.00  0.00     0.013 A 
HETATM   12  C18 UNL     1      26.034  31.150   6.359  1.00  0.00     0.008 A 
ENDBRANCH   2   3
ENDBRANCH   1   2
BRANCH   1  13
HETATM   13  C9  UNL     1      26.900  28.186   8.501  1.00  0.00     0.176 C 
BRANCH  13  14
HETATM   14  O1  UNL     1      27.648  26.985   8.381  1.00  0.00    -0.351 OA
BRANCH  14  15
HETATM   15  C10 UNL     1      27.920  26.175   9.464  1.00  0.00     0.069 A 
HETATM   16  C11 UNL     1      28.161  26.773  10.678  1.00  0.00     0.039 A 
HETATM   17  C12 UNL     1      28.436  25.961  11.770  1.00  0.00     0.033 A 
HETATM   18  C13 UNL     1      28.473  24.582  11.676  1.00  0.00     0.042 A 
HETATM   19  N1  UNL     1      28.707  23.577  12.551  1.00  0.00    -0.365 N 
HETATM   20  C16 UNL     1      28.224  24.030  10.435  1.00  0.00    -0.005 A 
HETATM   21  C14 UNL     1      28.621  22.385  11.925  1.00  0.00     0.089 A 
ATOM     22  H1  UNL     1      28.919  23.702  13.541  1.00  0.00     0.165 HD
HETATM   23  C15 UNL     1      28.321  22.664  10.612  1.00  0.00     0.030 A 
HETATM   24  C17 UNL     1      27.948  24.807   9.326  1.00  0.00     0.050 A 
ENDBRANCH  14  15
ENDBRANCH  13  14
ENDBRANCH   1  13
TORSDOF 5
ENDMDL
MODEL 4
REMARK VINA RESULT: -10.478822370      0.954      1.019
REMARK  5 active torsions:
REMARK  status: ('A' for Active; 'I' for Inactive)
REMARK    1  A    between atoms: C6_6  and  C7_7 
REMARK    2  A    between atoms: C7_7  and  C8_8 
REMARK    3  A    between atoms: C8_8  and  C9_9 
REMARK    4  A    between atoms: C9_9  and  O1_10 
REMARK    5  A    between atoms: O1_10  and  C10_11 
ROOT
HETATM    1  C8  UNL     1      27.638  29.376   7.945  1.00  0.00     0.031 C 
ENDROOT
BRANCH   1   2
HETATM    2  C7  UNL     1      27.161  30.684   8.497  1.00  0.00     0.041 C 
BRANCH   2   3
HETATM    3  C6  UNL     1      26.156  31.364   7.685  1.00  0.00    -0.057 A 
HETATM    4  C5  UNL     1      25.292  32.233   8.323  1.00  0.00     0.019 A 
HETATM    5  C4  UNL     1      24.303  32.933   7.668  1.00  0.00    -0.025 A 
HETATM    6  C3  UNL     1      23.443  33.800   8.316  1.00  0.00     0.012 A 
HETATM    7  C20 UNL     1      24.162  32.765   6.305  1.00  0.00    -0.026 A 
HETATM    8  C2  UNL     1      22.453  34.502   7.661  1.00  0.00     0.001 A 
HETATM    9  C1  UNL     1      22.328  34.317   6.286  1.00  0.00     0.001 A 
HETATM   10  C21 UNL     1      23.175  33.458   5.626  1.00  0.00     0.012 A 
HETATM   11  C19 UNL     1      25.027  31.896   5.665  1.00  0.00     0.013 A 
HETATM   12  C18 UNL     1      26.013  31.198   6.320  1.00  0.00     0.008 A 
ENDBRANCH   2   3
ENDBRANCH   1   2
BRANCH   1  13
HETATM   13  C9  UNL     1      26.873  28.275   8.652  1.00  0.00     0.176 C 
BRANCH  13  14
HETATM   14  O1  UNL     1      27.577  27.856   9.813  1.00  0.00    -0.351 OA
BRANCH  14  15
HETATM   15  C10 UNL     1      27.700  26.527  10.161  1.00  0.00     0.069 A 
HETATM   16  C11 UNL     1      26.661  25.678   9.860  1.00  0.00     0.039 A 
HETATM   17  C12 UNL     1      26.782  24.340  10.209  1.00  0.00     0.033 A 
HETATM   18  C13 UNL     1      27.904  23.838  10.843  1.00  0.00     0.042 A 
HETATM   19  N1  UNL     1      28.278  22.615  11.284  1.00  0.00    -0.365 N 
HETATM   20  C16 UNL     1      28.920  24.731  11.123  1.00  0.00    -0.005 A 
HETATM   21  C14 UNL     1      29.503  22.677  11.844  1.00  0.00     0.089 A 
ATOM     22  H1  UNL     1      27.714  21.768  11.205  1.00  0.00     0.165 HD
HETATM   23  C15 UNL     1      29.903  23.989  11.744  1.00  0.00     0.030 A 
HETATM   24  C17 UNL     1      28.834  26.070  10.791  1.00  0.00     0.050 A 
ENDBRANCH  14  15
ENDBRANCH  13  14
ENDBRANCH   1  13
TORSDOF 5
ENDMDL
MODEL 5
REMARK VINA RESULT: -10.360760451      0.965      1.811
REMARK  5 active torsions:
REMARK  status: ('A' for Active; 'I' for Inactive)
REMARK    1  A    between atoms: C6_6  and  C7_7 
REMARK    2  A    between atoms: C7_7  and  C8_8 
REMARK    3  A    between atoms: C8_8  and  C9_9 
REMARK    4  A    between atoms: C9_9  and  O1_10 
REMARK    5  A    between atoms: O1_10  and  C10_11 
ROOT
HETATM    1  C8  UNL     1      27.157  29.714   7.594  1.00  0.00     0.031 C 
ENDROOT
BRANCH   1   2
HETATM    2  C7  UNL     1      26.975  30.908   8.479  1.00  0.00     0.041 C 
BRANCH   2   3
HETATM    3  C6  UNL     1      25.859  31.776   8.119  1.00  0.00    -0.057 A 
HETATM    4  C5  UNL     1      25.455  31.793   6.798  1.00  0.00     0.019 A 
HETATM    5  C4  UNL     1      24.416  32.568   6.334  1.00  0.00    -0.025 A 
HETATM    6  C3  UNL     1      24.019  32.578   5.010  1.00  0.00     0.012 A 
HETATM    7  C20 UNL     1      23.737  33.373   7.228  1.00  0.00    -0.026 A 
HETATM    8  C2  UNL     1      22.979  33.354   4.545  1.00  0.00     0.001 A 
HETATM    9  C1  UNL     1      22.308  34.158   5.463  1.00  0.00     0.001 A 
HETATM   10  C21 UNL     1      22.689  34.161   6.784  1.00  0.00     0.012 A 
HETATM   11  C19 UNL     1      24.140  33.357   8.551  1.00  0.00     0.013 A 
HETATM   12  C18 UNL     1      25.177  32.582   9.012  1.00  0.00     0.008 A 
ENDBRANCH   2   3
ENDBRANCH   1   2
BRANCH   1  13
HETATM   13  C9  UNL     1      26.832  28.482   8.416  1.00  0.00     0.176 C 
BRANCH  13  14
HETATM   14  O1  UNL     1      27.970  27.638   8.507  1.00  0.00    -0.351 OA
BRANCH  14  15
HETATM   15  C10 UNL     1      27.977  26.490   9.271  1.00  0.00     0.069 A 
HETATM   16  C11 UNL     1      26.771  25.899   9.567  1.00  0.00     0.039 A 
HETATM   17  C12 UNL     1      26.774  24.744  10.336  1.00  0.00     0.033 A 
HETATM   18  C13 UNL     1      27.941  24.173  10.810  1.00  0.00     0.042 A 
HETATM   19  N1  UNL     1      28.229  23.083  11.558  1.00  0.00    -0.365 N 
HETATM   20  C16 UNL     1      29.126  24.804  10.486  1.00  0.00    -0.005 A 
HETATM   21  C14 UNL     1      29.562  22.979  11.736  1.00  0.00     0.089 A 
ATOM     22  H1  UNL     1      27.538  22.433  11.934  1.00  0.00     0.165 HD
HETATM   23  C15 UNL     1      30.120  24.046  11.071  1.00  0.00     0.030 A 
HETATM   24  C17 UNL     1      29.161  25.956   9.723  1.00  0.00     0.050 A 
ENDBRANCH  14  15
ENDBRANCH  13  14
ENDBRANCH   1  13
TORSDOF 5
ENDMDL
