MODEL 1
REMARK VINA RESULT: -9.716970098      0.000      0.000
REMARK  5 active torsions:
REMARK  status: ('A' for Active; 'I' for Inactive)
REMARK    1  A    between atoms: C4_4  and  C5_5 
REMARK    2  A    between atoms: C5_5  and  C6_6 
REMARK    3  A    between atoms: C6_6  and  C7_7 
REMARK    4  A    between atoms: C7_7  and  C8_8 
REMARK    5  A    between atoms: C7_7  and  C12_13 
ROOT
HETATM    1  C7  UNL     1      24.279  29.736   6.658  1.00  0.00     0.078 C 
ENDROOT
BRANCH   1   2
HETATM    2  C6  UNL     1      23.199  29.118   7.514  1.00  0.00     0.021 C 
BRANCH   2   3
HETATM    3  C5  UNL     1      22.284  28.221   6.757  1.00  0.00     0.039 C 
BRANCH   3   4
HETATM    4  C4  UNL     1      20.919  28.857   6.795  1.00  0.00    -0.058 A 
HETATM    5  C3  UNL     1      20.553  29.826   5.878  1.00  0.00     0.007 A 
HETATM    6  C2  UNL     1      19.306  30.418   5.899  1.00  0.00     0.001 A 
HETATM    7  C1  UNL     1      18.386  30.046   6.855  1.00  0.00     0.000 A 
HETATM    8  C21 UNL     1      18.737  29.082   7.776  1.00  0.00     0.001 A 
HETATM    9  C20 UNL     1      19.991  28.491   7.747  1.00  0.00     0.007 A 
ENDBRANCH   3   4
ENDBRANCH   2   3
ENDBRANCH   1   2
BRANCH   1  10
HETATM   10  C8  UNL     1      25.589  29.637   7.351  1.00  0.00     0.061 A 
HETATM   11  C9  UNL     1      26.739  30.303   6.986  1.00  0.00     0.035 A 
HETATM   12  C10 UNL     1      27.725  29.946   7.873  1.00  0.00     0.027 A 
HETATM   13  C11 UNL     1      27.141  29.067   8.755  1.00  0.00     0.142 A 
HETATM   14  O1  UNL     1      25.890  28.921   8.403  1.00  0.00    -0.326 OA
ENDBRANCH   1  10
BRANCH   1  15
HETATM   15  C12 UNL     1      23.966  31.068   6.144  1.00  0.00    -0.020 A 
HETATM   16  C13 UNL     1      23.965  31.444   4.821  1.00  0.00     0.097 A 
HETATM   17  N1  UNL     1      23.623  32.745   4.771  1.00  0.00    -0.365 N 
HETATM   18  C14 UNL     1      23.400  33.245   5.980  1.00  0.00     0.042 A 
ATOM     19  H1  UNL     1      23.546  33.282   3.908  1.00  0.00     0.165 HD
HETATM   20  C15 UNL     1      23.034  34.509   6.388  1.00  0.00     0.030 A 
HETATM   21  C19 UNL     1      23.613  32.191   6.875  1.00  0.00    -0.001 A 
HETATM   22  C16 UNL     1      22.872  34.742   7.729  1.00  0.00     0.002 A 
HETATM   23  C17 UNL     1      23.077  33.719   8.624  1.00  0.00     0.001 A 
HETATM   24  C18 UNL     1      23.440  32.468   8.202  1.00  0.00     0.014 A 
ENDBRANCH   1  15
TORSDOF 5
ENDMDL
MODEL 2
REMARK VINA RESULT: -9.660325016      1.826      4.624
REMARK  5 active torsions:
REMARK  status: ('A' for Active; 'I' for Inactive)
REMARK    1  A    between atoms: C4_4  and  C5_5 
REMARK    2  A    between atoms: C5_5  and  C6_6 
REMARK    3  A    between atoms: C6_6  and  C7_7 
REMARK    4  A    between atoms: C7_7  and  C8_8 
REMARK    5  A    between atoms: C7_7  and  C12_13 
ROOT
HETATM    1  C7  UNL     1      23.856  29.521   7.330  1.00  0.00     0.078 C 
ENDROOT
BRANCH   1   2
HETATM    2  C6  UNL     1      24.061  30.191   5.992  1.00  0.00     0.021 C 
BRANCH   2   3
HETATM    3  C5  UNL     1      24.994  31.349   6.047  1.00  0.00     0.039 C 
BRANCH   3   4
HETATM    4  C4  UNL     1      24.187  32.541   6.492  1.00  0.00    -0.058 A 
HETATM    5  C3  UNL     1      23.524  33.340   5.578  1.00  0.00     0.007 A 
HETATM    6  C2  UNL     1      22.780  34.435   5.970  1.00  0.00     0.001 A 
HETATM    7  C1  UNL     1      22.685  34.757   7.307  1.00  0.00     0.000 A 
HETATM    8  C21 UNL     1      23.341  33.968   8.229  1.00  0.00     0.001 A 
HETATM    9  C20 UNL     1      24.085  32.870   7.827  1.00  0.00     0.007 A 
ENDBRANCH   3   4
ENDBRANCH   2   3
ENDBRANCH   1   2
BRANCH   1  10
HETATM   10  C8  UNL     1      24.920  28.509   7.555  1.00  0.00     0.061 A 
HETATM   11  C9  UNL     1      25.470  27.697   6.587  1.00  0.00     0.035 A 
HETATM   12  C10 UNL     1      26.415  26.908   7.195  1.00  0.00     0.027 A 
HETATM   13  C11 UNL     1      26.411  27.266   8.522  1.00  0.00     0.142 A 
HETATM   14  O1  UNL     1      25.518  28.207   8.679  1.00  0.00    -0.326 OA
ENDBRANCH   1  10
BRANCH   1  15
HETATM   15  C12 UNL     1      22.499  29.034   7.570  1.00  0.00    -0.020 A 
HETATM   16  C13 UNL     1      22.158  27.891   8.254  1.00  0.00     0.097 A 
HETATM   17  N1  UNL     1      20.816  27.803   8.252  1.00  0.00    -0.365 N 
HETATM   18  C14 UNL     1      20.253  28.819   7.609  1.00  0.00     0.042 A 
ATOM     19  H1  UNL     1      20.292  27.046   8.692  1.00  0.00     0.165 HD
HETATM   20  C15 UNL     1      18.932  29.123   7.368  1.00  0.00     0.030 A 
HETATM   21  C19 UNL     1      21.311  29.620   7.162  1.00  0.00    -0.001 A 
HETATM   22  C16 UNL     1      18.641  30.261   6.661  1.00  0.00     0.002 A 
HETATM   23  C17 UNL     1      19.667  31.061   6.215  1.00  0.00     0.001 A 
HETATM   24  C18 UNL     1      20.975  30.744   6.462  1.00  0.00     0.014 A 
ENDBRANCH   1  15
TORSDOF 5
ENDMDL
MODEL 3
REMARK VINA RESULT: -9.249502750      1.022      1.703
REMARK  5 active torsions:
REMARK  status: ('A' for Active; 'I' for Inactive)
REMARK    1  A    between atoms: C4_4  and  C5_5 
REMARK    2  A    between atoms: C5_5  and  C6_6 
REMARK    3  A    between atoms: C6_6  and  C7_7 
REMARK    4  A    between atoms: C7_7  and  C8_8 
REMARK    5  A    between atoms: C7_7  and  C12_13 
ROOT
HETATM    1  C7  UNL     1      24.245  30.004   7.216  1.00  0.00     0.078 C 
ENDROOT
BRANCH   1   2
HETATM    2  C6  UNL     1      23.182  29.085   7.771  1.00  0.00     0.021 C 
BRANCH   2   3
HETATM    3  C5  UNL     1      22.399  28.381   6.719  1.00  0.00     0.039 C 
BRANCH   3   4
HETATM    4  C4  UNL     1      20.995  28.923   6.783  1.00  0.00    -0.058 A 
HETATM    5  C3  UNL     1      20.547  29.863   5.873  1.00  0.00     0.007 A 
HETATM    6  C2  UNL     1      19.263  30.370   5.918  1.00  0.00     0.001 A 
HETATM    7  C1  UNL     1      18.390  29.939   6.892  1.00  0.00     0.000 A 
HETATM    8  C21 UNL     1      18.823  29.002   7.807  1.00  0.00     0.001 A 
HETATM    9  C20 UNL     1      20.113  28.497   7.754  1.00  0.00     0.007 A 
ENDBRANCH   3   4
ENDBRANCH   2   3
ENDBRANCH   1   2
BRANCH   1  10
HETATM   10  C8  UNL     1      25.584  29.570   7.689  1.00  0.00     0.061 A 
HETATM   11  C9  UNL     1      26.790  30.048   7.223  1.00  0.00     0.035 A 
HETATM   12  C10 UNL     1      27.786  29.400   7.911  1.00  0.00     0.027 A 
HETATM   13  C11 UNL     1      27.152  28.542   8.778  1.00  0.00     0.142 A 
HETATM   14  O1  UNL     1      25.864  28.682   8.607  1.00  0.00    -0.326 OA
ENDBRANCH   1  10
BRANCH   1  15
HETATM   15  C12 UNL     1      23.973  31.429   7.391  1.00  0.00    -0.020 A 
HETATM   16  C13 UNL     1      24.154  32.150   8.548  1.00  0.00     0.097 A 
HETATM   17  N1  UNL     1      23.792  33.421   8.293  1.00  0.00    -0.365 N 
HETATM   18  C14 UNL     1      23.385  33.579   7.040  1.00  0.00     0.042 A 
ATOM     19  H1  UNL     1      23.825  34.173   8.982  1.00  0.00     0.165 HD
HETATM   20  C15 UNL     1      22.933  34.690   6.364  1.00  0.00     0.030 A 
HETATM   21  C19 UNL     1      23.491  32.317   6.443  1.00  0.00    -0.001 A 
HETATM   22  C16 UNL     1      22.573  34.553   5.048  1.00  0.00     0.002 A 
HETATM   23  C17 UNL     1      22.672  33.323   4.443  1.00  0.00     0.001 A 
HETATM   24  C18 UNL     1      23.122  32.228   5.130  1.00  0.00     0.014 A 
ENDBRANCH   1  15
TORSDOF 5
ENDMDL
MODEL 4
REMARK VINA RESULT: -9.182201703      2.787      6.268
REMARK  5 active torsions:
REMARK  status: ('A' for Active; 'I' for Inactive)
REMARK    1  A    between atoms: C4_4  and  C5_5 
REMARK    2  A    between atoms: C5_5  and  C6_6 
REMARK    3  A    between atoms: C6_6  and  C7_7 
REMARK    4  A    between atoms: C7_7  and  C8_8 
REMARK    5  A    between atoms: C7_7  and  C12_13 
ROOT
HETATM    1  C7  UNL     1      21.488  32.311   5.342  1.00  0.00     0.078 C 
ENDROOT
BRANCH   1   2
HETATM    2  C6  UNL     1      21.302  33.637   6.040  1.00  0.00     0.021 C 
BRANCH   2   3
HETATM    3  C5  UNL     1      22.557  34.430   6.150  1.00  0.00     0.039 C 
BRANCH   3   4
HETATM    4  C4  UNL     1      23.545  33.579   6.904  1.00  0.00    -0.058 A 
HETATM    5  C3  UNL     1      23.645  33.645   8.282  1.00  0.00     0.007 A 
HETATM    6  C2  UNL     1      24.546  32.872   8.988  1.00  0.00     0.001 A 
HETATM    7  C1  UNL     1      25.379  32.005   8.316  1.00  0.00     0.000 A 
HETATM    8  C21 UNL     1      25.290  31.928   6.941  1.00  0.00     0.001 A 
HETATM    9  C20 UNL     1      24.383  32.707   6.241  1.00  0.00     0.007 A 
ENDBRANCH   3   4
ENDBRANCH   2   3
ENDBRANCH   1   2
BRANCH   1  10
HETATM   10  C8  UNL     1      21.353  32.490   3.874  1.00  0.00     0.061 A 
HETATM   11  C9  UNL     1      21.025  33.668   3.239  1.00  0.00     0.035 A 
HETATM   12  C10 UNL     1      21.002  33.419   1.888  1.00  0.00     0.027 A 
HETATM   13  C11 UNL     1      21.318  32.089   1.743  1.00  0.00     0.142 A 
HETATM   14  O1  UNL     1      21.514  31.592   2.937  1.00  0.00    -0.326 OA
ENDBRANCH   1  10
BRANCH   1  15
HETATM   15  C12 UNL     1      20.695  31.213   5.893  1.00  0.00    -0.020 A 
HETATM   16  C13 UNL     1      19.350  31.007   5.694  1.00  0.00     0.097 A 
HETATM   17  N1  UNL     1      19.007  29.893   6.367  1.00  0.00    -0.365 N 
HETATM   18  C14 UNL     1      20.044  29.355   6.995  1.00  0.00     0.042 A 
ATOM     19  H1  UNL     1      18.063  29.509   6.391  1.00  0.00     0.165 HD
HETATM   20  C15 UNL     1      20.146  28.233   7.787  1.00  0.00     0.030 A 
HETATM   21  C19 UNL     1      21.137  30.182   6.707  1.00  0.00    -0.001 A 
HETATM   22  C16 UNL     1      21.370  27.913   8.315  1.00  0.00     0.002 A 
HETATM   23  C17 UNL     1      22.455  28.712   8.042  1.00  0.00     0.001 A 
HETATM   24  C18 UNL     1      22.337  29.825   7.254  1.00  0.00     0.014 A 
ENDBRANCH   1  15
TORSDOF 5
ENDMDL
MODEL 5
REMARK VINA RESULT: -9.165387176      1.773      4.389
REMARK  5 active torsions:
REMARK  status: ('A' for Active; 'I' for Inactive)
REMARK    1  A    between atoms: C4_4  and  C5_5 
REMARK    2  A    between atoms: C5_5  and  C6_6 
REMARK    3  A    between atoms: C6_6  and  C7_7 
REMARK    4  A    between atoms: C7_7  and  C8_8 
REMARK    5  A    between atoms: C7_7  and  C12_13 
ROOT
HETATM    1  C7  UNL     1      24.137  30.539   6.869  1.00  0.00     0.078 C 
ENDROOT
BRANCH   1   2
HETATM    2  C6  UNL     1      24.468  30.494   5.396  1.00  0.00     0.021 C 
BRANCH   2   3
HETATM    3  C5  UNL     1      24.883  31.812   4.842  1.00  0.00     0.039 C 
BRANCH   3   4
HETATM    4  C4  UNL     1      23.670  32.704   4.884  1.00  0.00    -0.058 A 
HETATM    5  C3  UNL     1      23.501  33.638   5.890  1.00  0.00     0.007 A 
HETATM    6  C2  UNL     1      22.395  34.463   5.943  1.00  0.00     0.001 A 
HETATM    7  C1  UNL     1      21.421  34.367   4.973  1.00  0.00     0.000 A 
HETATM    8  C21 UNL     1      21.577  33.441   3.963  1.00  0.00     0.001 A 
HETATM    9  C20 UNL     1      22.690  32.617   3.917  1.00  0.00     0.007 A 
ENDBRANCH   3   4
ENDBRANCH   2   3
ENDBRANCH   1   2
BRANCH   1  10
HETATM   10  C8  UNL     1      25.373  30.350   7.670  1.00  0.00     0.061 A 
HETATM   11  C9  UNL     1      26.040  31.341   8.357  1.00  0.00     0.035 A 
HETATM   12  C10 UNL     1      27.127  30.764   8.966  1.00  0.00     0.027 A 
HETATM   13  C11 UNL     1      27.088  29.432   8.628  1.00  0.00     0.142 A 
HETATM   14  O1  UNL     1      26.041  29.244   7.868  1.00  0.00    -0.326 OA
ENDBRANCH   1  10
BRANCH   1  15
HETATM   15  C12 UNL     1      23.020  29.686   7.271  1.00  0.00    -0.020 A 
HETATM   16  C13 UNL     1      23.119  28.448   7.861  1.00  0.00     0.097 A 
HETATM   17  N1  UNL     1      21.868  28.000   8.072  1.00  0.00    -0.365 N 
HETATM   18  C14 UNL     1      20.953  28.867   7.657  1.00  0.00     0.042 A 
ATOM     19  H1  UNL     1      21.649  27.100   8.500  1.00  0.00     0.165 HD
HETATM   20  C15 UNL     1      19.577  28.818   7.678  1.00  0.00     0.030 A 
HETATM   21  C19 UNL     1      21.666  29.955   7.140  1.00  0.00    -0.001 A 
HETATM   22  C16 UNL     1      18.877  29.881   7.169  1.00  0.00     0.002 A 
HETATM   23  C17 UNL     1      19.560  30.959   6.658  1.00  0.00     0.001 A 
HETATM   24  C18 UNL     1      20.928  30.992   6.644  1.00  0.00     0.014 A 
ENDBRANCH   1  15
TORSDOF 5
ENDMDL
