MODEL 1
REMARK VINA RESULT: -9.903636444      0.000      0.000
REMARK  5 active torsions:
REMARK  status: ('A' for Active; 'I' for Inactive)
REMARK    1  A    between atoms: C9_11  and  C10_12 
REMARK    2  A    between atoms: C10_12  and  C11_13 
REMARK    3  A    between atoms: C11_13  and  C12_14 
REMARK    4  A    between atoms: C12_14  and  C13_15 
REMARK    5  A    between atoms: C13_15  and  C14_16 
ROOT
HETATM    1  C1  UNL     1      28.705  22.235  11.649  1.00  0.00     0.002 A 
HETATM    2  C2  UNL     1      27.990  22.111  10.480  1.00  0.00     0.001 A 
HETATM    3  C3  UNL     1      27.574  23.230   9.770  1.00  0.00     0.014 A 
HETATM    4  C4  UNL     1      27.874  24.489  10.232  1.00  0.00     0.003 A 
HETATM    5  C5  UNL     1      28.589  24.617  11.402  1.00  0.00     0.043 A 
HETATM    6  C6  UNL     1      29.008  23.499  12.117  1.00  0.00     0.030 A 
HETATM    7  N1  UNL     1      28.741  25.932  11.619  1.00  0.00    -0.355 N 
ATOM      8  H1  UNL     1      29.233  26.337  12.415  1.00  0.00     0.166 HD
HETATM    9  C7  UNL     1      28.154  26.639  10.638  1.00  0.00     0.044 A 
HETATM   10  C8  UNL     1      28.018  27.999  10.382  1.00  0.00     0.037 A 
HETATM   11  C9  UNL     1      27.360  28.511   9.290  1.00  0.00    -0.056 A 
HETATM   12  C19 UNL     1      26.811  27.563   8.413  1.00  0.00     0.008 A 
HETATM   13  C20 UNL     1      26.916  26.207   8.619  1.00  0.00     0.015 A 
HETATM   14  C21 UNL     1      27.593  25.742   9.741  1.00  0.00     0.003 A 
ENDROOT
BRANCH  11  15
HETATM   15  C10 UNL     1      27.209  29.964   8.999  1.00  0.00     0.038 C 
BRANCH  15  16
HETATM   16  C11 UNL     1      27.318  30.316   7.565  1.00  0.00     0.005 C 
BRANCH  16  17
HETATM   17  C12 UNL     1      26.214  31.077   6.949  1.00  0.00     0.005 C 
BRANCH  17  18
HETATM   18  C13 UNL     1      25.170  31.587   7.896  1.00  0.00     0.038 C 
BRANCH  18  19
HETATM   19  C14 UNL     1      24.328  32.579   7.196  1.00  0.00    -0.056 A 
HETATM   20  C15 UNL     1      23.690  33.610   7.856  1.00  0.00     0.024 A 
HETATM   21  C16 UNL     1      22.907  34.534   7.208  1.00  0.00     0.088 A 
HETATM   22  N2  UNL     1      22.750  34.436   5.888  1.00  0.00    -0.375 N 
HETATM   23  C17 UNL     1      23.341  33.458   5.184  1.00  0.00     0.088 A 
ATOM     24  H2  UNL     1      22.168  35.119   5.403  1.00  0.00     0.164 HD
HETATM   25  C18 UNL     1      24.142  32.510   5.833  1.00  0.00     0.024 A 
ENDBRANCH  18  19
ENDBRANCH  17  18
ENDBRANCH  16  17
ENDBRANCH  15  16
ENDBRANCH  11  15
TORSDOF 5
ENDMDL
MODEL 2
REMARK VINA RESULT: -9.792219113      1.562      2.897
REMARK  5 active torsions:
REMARK  status: ('A' for Active; 'I' for Inactive)
REMARK    1  A    between atoms: C9_11  and  C10_12 
REMARK    2  A    between atoms: C10_12  and  C11_13 
REMARK    3  A    between atoms: C11_13  and  C12_14 
REMARK    4  A    between atoms: C12_14  and  C13_15 
REMARK    5  A    between atoms: C13_15  and  C14_16 
ROOT
HETATM    1  C1  UNL     1      28.789  25.116  10.862  1.00  0.00     0.002 A 
HETATM    2  C2  UNL     1      27.684  24.680  10.167  1.00  0.00     0.001 A 
HETATM    3  C3  UNL     1      26.864  25.572   9.488  1.00  0.00     0.014 A 
HETATM    4  C4  UNL     1      27.149  26.917   9.502  1.00  0.00     0.003 A 
HETATM    5  C5  UNL     1      28.254  27.357  10.196  1.00  0.00     0.043 A 
HETATM    6  C6  UNL     1      29.079  26.466  10.878  1.00  0.00     0.030 A 
HETATM    7  N1  UNL     1      28.297  28.689  10.047  1.00  0.00    -0.355 N 
ATOM      8  H1  UNL     1      29.010  29.297  10.450  1.00  0.00     0.166 HD
HETATM    9  C7  UNL     1      27.269  29.109   9.289  1.00  0.00     0.044 A 
HETATM   10  C8  UNL     1      26.854  30.357   8.839  1.00  0.00     0.037 A 
HETATM   11  C9  UNL     1      25.743  30.558   8.055  1.00  0.00    -0.056 A 
HETATM   12  C19 UNL     1      25.021  29.403   7.718  1.00  0.00     0.008 A 
HETATM   13  C20 UNL     1      25.388  28.145   8.137  1.00  0.00     0.015 A 
HETATM   14  C21 UNL     1      26.521  27.997   8.930  1.00  0.00     0.003 A 
ENDROOT
BRANCH  11  15
HETATM   15  C10 UNL     1      25.287  31.886   7.560  1.00  0.00     0.038 C 
BRANCH  15  16
HETATM   16  C11 UNL     1      24.909  32.841   8.627  1.00  0.00     0.005 C 
BRANCH  16  17
HETATM   17  C12 UNL     1      23.496  33.254   8.723  1.00  0.00     0.005 C 
BRANCH  17  18
HETATM   18  C13 UNL     1      23.070  34.337   7.778  1.00  0.00     0.038 C 
BRANCH  18  19
HETATM   19  C14 UNL     1      22.494  33.719   6.565  1.00  0.00    -0.056 A 
HETATM   20  C15 UNL     1      21.439  32.831   6.615  1.00  0.00     0.024 A 
HETATM   21  C16 UNL     1      20.900  32.255   5.489  1.00  0.00     0.088 A 
HETATM   22  N2  UNL     1      21.414  32.561   4.298  1.00  0.00    -0.375 N 
HETATM   23  C17 UNL     1      22.441  33.418   4.178  1.00  0.00     0.088 A 
ATOM     24  H2  UNL     1      21.018  32.135   3.459  1.00  0.00     0.164 HD
HETATM   25  C18 UNL     1      22.998  34.011   5.317  1.00  0.00     0.024 A 
ENDBRANCH  18  19
ENDBRANCH  17  18
ENDBRANCH  16  17
ENDBRANCH  15  16
ENDBRANCH  11  15
TORSDOF 5
ENDMDL
MODEL 3
REMARK VINA RESULT: -9.784669274      1.581      2.767
REMARK  5 active torsions:
REMARK  status: ('A' for Active; 'I' for Inactive)
REMARK    1  A    between atoms: C9_11  and  C10_12 
REMARK    2  A    between atoms: C10_12  and  C11_13 
REMARK    3  A    between atoms: C11_13  and  C12_14 
REMARK    4  A    between atoms: C12_14  and  C13_15 
REMARK    5  A    between atoms: C13_15  and  C14_16 
ROOT
HETATM    1  C1  UNL     1      28.271  25.227  11.435  1.00  0.00     0.002 A 
HETATM    2  C2  UNL     1      27.314  24.683  10.610  1.00  0.00     0.001 A 
HETATM    3  C3  UNL     1      26.745  25.426   9.583  1.00  0.00     0.014 A 
HETATM    4  C4  UNL     1      27.136  26.727   9.376  1.00  0.00     0.003 A 
HETATM    5  C5  UNL     1      28.094  27.274  10.201  1.00  0.00     0.043 A 
HETATM    6  C6  UNL     1      28.666  26.534  11.231  1.00  0.00     0.030 A 
HETATM    7  N1  UNL     1      28.285  28.535   9.785  1.00  0.00    -0.355 N 
ATOM      8  H1  UNL     1      28.941  29.193  10.206  1.00  0.00     0.166 HD
HETATM    9  C7  UNL     1      27.491  28.808   8.735  1.00  0.00     0.044 A 
HETATM   10  C8  UNL     1      27.296  29.934   7.944  1.00  0.00     0.037 A 
HETATM   11  C9  UNL     1      26.409  29.991   6.897  1.00  0.00    -0.056 A 
HETATM   12  C19 UNL     1      25.681  28.815   6.653  1.00  0.00     0.008 A 
HETATM   13  C20 UNL     1      25.836  27.674   7.406  1.00  0.00     0.015 A 
HETATM   14  C21 UNL     1      26.747  27.671   8.455  1.00  0.00     0.003 A 
ENDROOT
BRANCH  11  15
HETATM   15  C10 UNL     1      26.191  31.187   6.037  1.00  0.00     0.038 C 
BRANCH  15  16
HETATM   16  C11 UNL     1      25.509  30.904   4.754  1.00  0.00     0.005 C 
BRANCH  16  17
HETATM   17  C12 UNL     1      24.260  31.630   4.454  1.00  0.00     0.005 C 
BRANCH  17  18
HETATM   18  C13 UNL     1      23.104  31.337   5.363  1.00  0.00     0.038 C 
BRANCH  18  19
HETATM   19  C14 UNL     1      23.050  32.367   6.421  1.00  0.00    -0.056 A 
HETATM   20  C15 UNL     1      23.001  33.718   6.141  1.00  0.00     0.024 A 
HETATM   21  C16 UNL     1      22.950  34.678   7.123  1.00  0.00     0.088 A 
HETATM   22  N2  UNL     1      22.949  34.297   8.400  1.00  0.00    -0.375 N 
HETATM   23  C17 UNL     1      22.997  33.000   8.743  1.00  0.00     0.088 A 
ATOM     24  H2  UNL     1      22.913  35.007   9.132  1.00  0.00     0.164 HD
HETATM   25  C18 UNL     1      23.048  32.012   7.752  1.00  0.00     0.024 A 
ENDBRANCH  18  19
ENDBRANCH  17  18
ENDBRANCH  16  17
ENDBRANCH  15  16
ENDBRANCH  11  15
TORSDOF 5
ENDMDL
MODEL 4
REMARK VINA RESULT: -9.752223812      2.410      3.539
REMARK  5 active torsions:
REMARK  status: ('A' for Active; 'I' for Inactive)
REMARK    1  A    between atoms: C9_11  and  C10_12 
REMARK    2  A    between atoms: C10_12  and  C11_13 
REMARK    3  A    between atoms: C11_13  and  C12_14 
REMARK    4  A    between atoms: C12_14  and  C13_15 
REMARK    5  A    between atoms: C13_15  and  C14_16 
ROOT
HETATM    1  C1  UNL     1      28.219  25.472  11.341  1.00  0.00     0.002 A 
HETATM    2  C2  UNL     1      27.373  24.876  10.434  1.00  0.00     0.001 A 
HETATM    3  C3  UNL     1      26.805  25.604   9.396  1.00  0.00     0.014 A 
HETATM    4  C4  UNL     1      27.083  26.943   9.261  1.00  0.00     0.003 A 
HETATM    5  C5  UNL     1      27.929  27.543  10.168  1.00  0.00     0.043 A 
HETATM    6  C6  UNL     1      28.502  26.817  11.209  1.00  0.00     0.030 A 
HETATM    7  N1  UNL     1      28.027  28.831   9.809  1.00  0.00    -0.355 N 
ATOM      8  H1  UNL     1      28.589  29.530  10.296  1.00  0.00     0.166 HD
HETATM    9  C7  UNL     1      27.280  29.072   8.717  1.00  0.00     0.044 A 
HETATM   10  C8  UNL     1      27.031  30.206   7.954  1.00  0.00     0.037 A 
HETATM   11  C9  UNL     1      26.212  30.223   6.851  1.00  0.00    -0.056 A 
HETATM   12  C19 UNL     1      25.616  28.997   6.519  1.00  0.00     0.008 A 
HETATM   13  C20 UNL     1      25.829  27.845   7.241  1.00  0.00     0.015 A 
HETATM   14  C21 UNL     1      26.667  27.883   8.349  1.00  0.00     0.003 A 
ENDROOT
BRANCH  11  15
HETATM   15  C10 UNL     1      25.937  31.428   6.020  1.00  0.00     0.038 C 
BRANCH  15  16
HETATM   16  C11 UNL     1      25.269  31.144   4.730  1.00  0.00     0.005 C 
BRANCH  16  17
HETATM   17  C12 UNL     1      23.961  31.775   4.470  1.00  0.00     0.005 C 
BRANCH  17  18
HETATM   18  C13 UNL     1      23.182  32.179   5.686  1.00  0.00     0.038 C 
BRANCH  18  19
HETATM   19  C14 UNL     1      21.994  31.309   5.809  1.00  0.00    -0.056 A 
HETATM   20  C15 UNL     1      20.741  31.701   5.384  1.00  0.00     0.024 A 
HETATM   21  C16 UNL     1      19.634  30.894   5.496  1.00  0.00     0.088 A 
HETATM   22  N2  UNL     1      19.768  29.683   6.038  1.00  0.00    -0.375 N 
HETATM   23  C17 UNL     1      20.959  29.240   6.472  1.00  0.00     0.088 A 
ATOM     24  H2  UNL     1      18.949  29.082   6.124  1.00  0.00     0.164 HD
HETATM   25  C18 UNL     1      22.094  30.052   6.363  1.00  0.00     0.024 A 
ENDBRANCH  18  19
ENDBRANCH  17  18
ENDBRANCH  16  17
ENDBRANCH  15  16
ENDBRANCH  11  15
TORSDOF 5
ENDMDL
MODEL 5
REMARK VINA RESULT: -9.735875273      1.951      2.436
REMARK  5 active torsions:
REMARK  status: ('A' for Active; 'I' for Inactive)
REMARK    1  A    between atoms: C9_11  and  C10_12 
REMARK    2  A    between atoms: C10_12  and  C11_13 
REMARK    3  A    between atoms: C11_13  and  C12_14 
REMARK    4  A    between atoms: C12_14  and  C13_15 
REMARK    5  A    between atoms: C13_15  and  C14_16 
ROOT
HETATM    1  C1  UNL     1      28.933  22.391  11.759  1.00  0.00     0.002 A 
HETATM    2  C2  UNL     1      28.155  22.205  10.639  1.00  0.00     0.001 A 
HETATM    3  C3  UNL     1      27.666  23.286   9.917  1.00  0.00     0.014 A 
HETATM    4  C4  UNL     1      27.956  24.569  10.316  1.00  0.00     0.003 A 
HETATM    5  C5  UNL     1      28.734  24.758  11.437  1.00  0.00     0.043 A 
HETATM    6  C6  UNL     1      29.227  23.678  12.164  1.00  0.00     0.030 A 
HETATM    7  N1  UNL     1      28.859  26.084  11.599  1.00  0.00    -0.355 N 
ATOM      8  H1  UNL     1      29.385  26.531  12.350  1.00  0.00     0.166 HD
HETATM    9  C7  UNL     1      28.195  26.739  10.630  1.00  0.00     0.044 A 
HETATM   10  C8  UNL     1      28.005  28.084  10.337  1.00  0.00     0.037 A 
HETATM   11  C9  UNL     1      27.269  28.539   9.269  1.00  0.00    -0.056 A 
HETATM   12  C19 UNL     1      26.698  27.545   8.459  1.00  0.00     0.008 A 
HETATM   13  C20 UNL     1      26.855  26.200   8.705  1.00  0.00     0.015 A 
HETATM   14  C21 UNL     1      27.610  25.795   9.800  1.00  0.00     0.003 A 
ENDROOT
BRANCH  11  15
HETATM   15  C10 UNL     1      27.059  29.975   8.937  1.00  0.00     0.038 C 
BRANCH  15  16
HETATM   16  C11 UNL     1      27.262  30.311   7.510  1.00  0.00     0.005 C 
BRANCH  16  17
HETATM   17  C12 UNL     1      26.136  30.910   6.768  1.00  0.00     0.005 C 
BRANCH  17  18
HETATM   18  C13 UNL     1      25.276  29.949   6.005  1.00  0.00     0.038 C 
BRANCH  18  19
HETATM   19  C14 UNL     1      24.012  29.742   6.741  1.00  0.00    -0.056 A 
HETATM   20  C15 UNL     1      23.496  28.486   6.992  1.00  0.00     0.024 A 
HETATM   21  C16 UNL     1      22.321  28.291   7.677  1.00  0.00     0.088 A 
HETATM   22  N2  UNL     1      21.646  29.352   8.119  1.00  0.00    -0.375 N 
HETATM   23  C17 UNL     1      22.091  30.601   7.909  1.00  0.00     0.088 A 
ATOM     24  H2  UNL     1      20.772  29.211   8.627  1.00  0.00     0.164 HD
HETATM   25  C18 UNL     1      23.287  30.813   7.213  1.00  0.00     0.024 A 
ENDBRANCH  18  19
ENDBRANCH  17  18
ENDBRANCH  16  17
ENDBRANCH  15  16
ENDBRANCH  11  15
TORSDOF 5
ENDMDL
