MODEL 1
REMARK VINA RESULT: -5.828294315      0.000      0.000
REMARK  13 active torsions:
REMARK  status: ('A' for Active; 'I' for Inactive)
REMARK    1  A    between atoms: N1_1  and  C1_4 
REMARK    2  A    between atoms: C2_7  and  N3_8 
REMARK    3  A    between atoms: N5_15  and  C5_16 
REMARK    4  A    between atoms: C6_17  and  C7_18 
REMARK    5  A    between atoms: C7_18  and  O1_19 
REMARK    6  A    between atoms: C8_22  and  N6_23 
REMARK    7  A    between atoms: C9_24  and  N7_25 
REMARK    8  A    between atoms: C10_30  and  N9_31 
REMARK    9  A    between atoms: N10_34  and  C11_35 
REMARK   10  A    between atoms: C11_35  and  O3_36 
REMARK   11  A    between atoms: O3_36  and  N11_37 
REMARK   12  A    between atoms: C12_40  and  O4_41 
REMARK   13  A    between atoms: C12_40  and  O5_43 
ROOT
HETATM    1  C5  UNL     1      23.575  -2.233  10.433  1.00  0.00     0.094 C 
HETATM    2  C6  UNL     1      24.857  -2.068  11.119  1.00  0.00     0.200 C 
HETATM    3  O2  UNL     1      24.530  -1.067  12.073  1.00  0.00    -0.345 OA
HETATM    4  C8  UNL     1      23.201  -1.429  12.472  1.00  0.00     0.332 C 
HETATM    5  C12 UNL     1      22.602  -1.244  11.074  1.00  0.00     0.251 C 
ENDROOT
BRANCH   1   6
HETATM    6  N5  UNL     1      23.432  -2.630   9.116  1.00  0.00    -0.291 N 
HETATM    7  C4  UNL     1      23.049  -3.875   8.670  1.00  0.00     0.190 A 
HETATM    8  N4  UNL     1      22.997  -3.961   7.356  1.00  0.00    -0.346 N 
HETATM    9  C3  UNL     1      23.349  -2.757   6.887  1.00  0.00     0.123 A 
ATOM     10  H4  UNL     1      22.740  -4.781   6.807  1.00  0.00     0.167 HD
HETATM   11  C2  UNL     1      23.467  -2.272   5.582  1.00  0.00     0.145 A 
HETATM   12  C13 UNL     1      23.617  -1.935   7.961  1.00  0.00     0.159 A 
HETATM   13  N2  UNL     1      23.848  -0.996   5.431  1.00  0.00    -0.175 N 
HETATM   14  C1  UNL     1      24.106  -0.207   6.489  1.00  0.00     0.679 A 
ATOM     15  H2  UNL     1      23.944  -0.613   4.490  1.00  0.00     0.186 HD
HETATM   16  N12 UNL     1      23.996  -0.659   7.751  1.00  0.00    -0.174 N 
ATOM     17  H12 UNL     1      24.197  -0.044   8.539  1.00  0.00     0.186 HD
BRANCH  11  18
HETATM   18  N3  UNL     1      23.203  -3.088   4.621  1.00  0.00    -0.383 N 
ATOM     19  H32 UNL     1      23.889  -3.165   3.870  1.00  0.00     0.157 HD
ATOM     20  H31 UNL     1      22.362  -3.663   4.551  1.00  0.00     0.157 HD
ENDBRANCH  11  18
BRANCH  14  21
HETATM   21  N1  UNL     1      24.469   1.014   6.306  1.00  0.00    -0.234 N 
ATOM     22  H12 UNL     1      25.393   1.191   5.909  1.00  0.00     0.174 HD
ATOM     23  H11 UNL     1      23.838   1.775   6.555  1.00  0.00     0.174 HD
ENDBRANCH  14  21
ENDBRANCH   1   6
BRANCH   2  24
HETATM   24  C7  UNL     1      26.097  -1.809  10.374  1.00  0.00     0.202 C 
BRANCH  24  25
HETATM   25  O1  UNL     1      26.158  -0.479  10.035  1.00  0.00    -0.398 OA
ATOM     26  H1  UNL     1      27.034  -0.269   9.733  1.00  0.00     0.209 HD
ENDBRANCH  24  25
ENDBRANCH   2  24
BRANCH   5  27
HETATM   27  O4  UNL     1      21.356  -1.785  10.899  1.00  0.00    -0.357 OA
ATOM     28  H4  UNL     1      21.115  -1.588  10.002  1.00  0.00     0.213 HD
ENDBRANCH   5  27
BRANCH   5  29
HETATM   29  O5  UNL     1      22.734   0.056  10.797  1.00  0.00    -0.357 OA
ATOM     30  H5  UNL     1      23.267   0.593  11.372  1.00  0.00     0.213 HD
ENDBRANCH   5  29
BRANCH   4  31
HETATM   31  N6  UNL     1      22.821  -0.530  13.483  1.00  0.00    -0.069 N 
HETATM   32  C9  UNL     1      23.142   0.765  13.694  1.00  0.00     0.710 A 
HETATM   33  N8  UNL     1      22.572   1.239  14.816  1.00  0.00    -0.020 N 
HETATM   34  C10 UNL     1      21.885   0.218  15.307  1.00  0.00     0.710 A 
ATOM     35  H8  UNL     1      22.651   2.179  15.205  1.00  0.00     0.203 HD
HETATM   36  N10 UNL     1      22.033  -0.870  14.491  1.00  0.00    -0.078 N 
BRANCH  32  37
HETATM   37  N7  UNL     1      23.869   1.486  12.950  1.00  0.00    -0.233 N 
ATOM     38  H72 UNL     1      24.178   1.178  12.028  1.00  0.00     0.174 HD
ATOM     39  H71 UNL     1      24.229   2.414  13.176  1.00  0.00     0.174 HD
ENDBRANCH  32  37
BRANCH  34  40
HETATM   40  N9  UNL     1      21.190   0.283  16.400  1.00  0.00    -0.233 N 
ATOM     41  H92 UNL     1      20.843   1.127  16.856  1.00  0.00     0.174 HD
ATOM     42  H91 UNL     1      20.909  -0.537  16.937  1.00  0.00     0.174 HD
ENDBRANCH  34  40
BRANCH  36  43
HETATM   43  C11 UNL     1      21.351  -2.101  14.868  1.00  0.00     0.369 C 
BRANCH  43  44
HETATM   44  O3  UNL     1      21.785  -2.633  16.078  1.00  0.00    -0.265 OA
BRANCH  44  45
HETATM   45  N11 UNL     1      22.978  -3.213  16.022  1.00  0.00    -0.309 N 
ATOM     46 2H11 UNL     1      23.682  -2.937  15.337  1.00  0.00     0.184 HD
ATOM     47 1H11 UNL     1      23.121  -3.947  16.717  1.00  0.00     0.184 HD
ENDBRANCH  44  45
ENDBRANCH  43  44
ENDBRANCH  36  43
ENDBRANCH   4  31
TORSDOF 13
ENDMDL
MODEL 2
REMARK VINA RESULT: -5.472828046      4.219      6.989
REMARK  13 active torsions:
REMARK  status: ('A' for Active; 'I' for Inactive)
REMARK    1  A    between atoms: N1_1  and  C1_4 
REMARK    2  A    between atoms: C2_7  and  N3_8 
REMARK    3  A    between atoms: N5_15  and  C5_16 
REMARK    4  A    between atoms: C6_17  and  C7_18 
REMARK    5  A    between atoms: C7_18  and  O1_19 
REMARK    6  A    between atoms: C8_22  and  N6_23 
REMARK    7  A    between atoms: C9_24  and  N7_25 
REMARK    8  A    between atoms: C10_30  and  N9_31 
REMARK    9  A    between atoms: N10_34  and  C11_35 
REMARK   10  A    between atoms: C11_35  and  O3_36 
REMARK   11  A    between atoms: O3_36  and  N11_37 
REMARK   12  A    between atoms: C12_40  and  O4_41 
REMARK   13  A    between atoms: C12_40  and  O5_43 
ROOT
HETATM    1  C5  UNL     1      20.399  -4.130  13.920  1.00  0.00     0.094 C 
HETATM    2  C6  UNL     1      21.405  -4.639  12.988  1.00  0.00     0.200 C 
HETATM    3  O2  UNL     1      21.887  -3.431  12.417  1.00  0.00    -0.345 OA
HETATM    4  C8  UNL     1      21.897  -2.532  13.534  1.00  0.00     0.332 C 
HETATM    5  C12 UNL     1      20.385  -2.609  13.763  1.00  0.00     0.251 C 
ENDROOT
BRANCH   1   6
HETATM    6  N5  UNL     1      19.269  -4.822  14.315  1.00  0.00    -0.291 N 
HETATM    7  C4  UNL     1      19.122  -5.568  15.463  1.00  0.00     0.190 A 
HETATM    8  N4  UNL     1      17.929  -6.114  15.577  1.00  0.00    -0.346 N 
HETATM    9  C3  UNL     1      17.240  -5.739  14.492  1.00  0.00     0.123 A 
ATOM     10  H4  UNL     1      17.596  -6.703  16.339  1.00  0.00     0.167 HD
HETATM   11  C2  UNL     1      15.932  -6.017  14.085  1.00  0.00     0.145 A 
HETATM   12  C13 UNL     1      18.056  -4.946  13.712  1.00  0.00     0.159 A 
HETATM   13  N2  UNL     1      15.522  -5.487  12.924  1.00  0.00    -0.175 N 
HETATM   14  C1  UNL     1      16.330  -4.716  12.176  1.00  0.00     0.679 A 
ATOM     15  H2  UNL     1      14.573  -5.673  12.600  1.00  0.00     0.186 HD
HETATM   16  N12 UNL     1      17.591  -4.438  12.554  1.00  0.00    -0.174 N 
ATOM     17  H12 UNL     1      18.187  -3.851  11.971  1.00  0.00     0.186 HD
BRANCH  11  18
HETATM   18  N3  UNL     1      15.219  -6.764  14.855  1.00  0.00    -0.383 N 
ATOM     19  H32 UNL     1      14.406  -7.221  14.442  1.00  0.00     0.157 HD
ATOM     20  H31 UNL     1      15.403  -6.934  15.844  1.00  0.00     0.157 HD
ENDBRANCH  11  18
BRANCH  14  21
HETATM   21  N1  UNL     1      15.902  -4.223  11.067  1.00  0.00    -0.234 N 
ATOM     22  H12 UNL     1      15.137  -3.549  11.099  1.00  0.00     0.174 HD
ATOM     23  H11 UNL     1      16.327  -4.510  10.185  1.00  0.00     0.174 HD
ENDBRANCH  14  21
ENDBRANCH   1   6
BRANCH   2  24
HETATM   24  C7  UNL     1      21.080  -5.683  12.005  1.00  0.00     0.202 C 
BRANCH  24  25
HETATM   25  O1  UNL     1      20.270  -5.157  11.029  1.00  0.00    -0.398 OA
ATOM     26  H1  UNL     1      20.522  -5.510  10.184  1.00  0.00     0.209 HD
ENDBRANCH  24  25
ENDBRANCH   2  24
BRANCH   5  27
HETATM   27  O4  UNL     1      19.953  -2.117  14.966  1.00  0.00    -0.357 OA
ATOM     28  H4  UNL     1      19.004  -2.114  14.916  1.00  0.00     0.213 HD
ENDBRANCH   5  27
BRANCH   5  29
HETATM   29  O5  UNL     1      19.829  -2.083  12.668  1.00  0.00    -0.357 OA
ATOM     30  H5  UNL     1      19.496  -1.195  12.708  1.00  0.00     0.213 HD
ENDBRANCH   5  29
BRANCH   4  31
HETATM   31  N6  UNL     1      22.440  -1.320  13.076  1.00  0.00    -0.069 N 
HETATM   32  C9  UNL     1      22.651  -0.851  11.827  1.00  0.00     0.710 A 
HETATM   33  N8  UNL     1      23.230   0.363  11.846  1.00  0.00    -0.020 N 
HETATM   34  C10 UNL     1      23.378   0.650  13.131  1.00  0.00     0.710 A 
ATOM     35  H8  UNL     1      23.497   0.938  11.046  1.00  0.00     0.203 HD
HETATM   36  N10 UNL     1      22.893  -0.379  13.890  1.00  0.00    -0.078 N 
BRANCH  32  37
HETATM   37  N7  UNL     1      22.346  -1.435  10.747  1.00  0.00    -0.233 N 
ATOM     38  H72 UNL     1      22.364  -2.451  10.655  1.00  0.00     0.174 HD
ATOM     39  H71 UNL     1      22.071  -0.985   9.874  1.00  0.00     0.174 HD
ENDBRANCH  32  37
BRANCH  34  40
HETATM   40  N9  UNL     1      23.909   1.752  13.561  1.00  0.00    -0.233 N 
ATOM     41  H92 UNL     1      23.469   2.451  14.160  1.00  0.00     0.174 HD
ATOM     42  H91 UNL     1      24.859   2.045  13.334  1.00  0.00     0.174 HD
ENDBRANCH  34  40
BRANCH  36  43
HETATM   43  C11 UNL     1      22.971  -0.251  15.339  1.00  0.00     0.369 C 
BRANCH  43  44
HETATM   44  O3  UNL     1      24.061  -0.908  15.901  1.00  0.00    -0.265 OA
BRANCH  44  45
HETATM   45  N11 UNL     1      23.743  -1.777  16.853  1.00  0.00    -0.309 N 
ATOM     46 2H11 UNL     1      23.603  -1.490  17.822  1.00  0.00     0.184 HD
ATOM     47 1H11 UNL     1      23.655  -2.740  16.529  1.00  0.00     0.184 HD
ENDBRANCH  44  45
ENDBRANCH  43  44
ENDBRANCH  36  43
ENDBRANCH   4  31
TORSDOF 13
ENDMDL
MODEL 3
REMARK VINA RESULT: -5.415674615      2.232      3.801
REMARK  13 active torsions:
REMARK  status: ('A' for Active; 'I' for Inactive)
REMARK    1  A    between atoms: N1_1  and  C1_4 
REMARK    2  A    between atoms: C2_7  and  N3_8 
REMARK    3  A    between atoms: N5_15  and  C5_16 
REMARK    4  A    between atoms: C6_17  and  C7_18 
REMARK    5  A    between atoms: C7_18  and  O1_19 
REMARK    6  A    between atoms: C8_22  and  N6_23 
REMARK    7  A    between atoms: C9_24  and  N7_25 
REMARK    8  A    between atoms: C10_30  and  N9_31 
REMARK    9  A    between atoms: N10_34  and  C11_35 
REMARK   10  A    between atoms: C11_35  and  O3_36 
REMARK   11  A    between atoms: O3_36  and  N11_37 
REMARK   12  A    between atoms: C12_40  and  O4_41 
REMARK   13  A    between atoms: C12_40  and  O5_43 
ROOT
HETATM    1  C5  UNL     1      23.651  -1.144   9.911  1.00  0.00     0.094 C 
HETATM    2  C6  UNL     1      22.772  -2.311   9.834  1.00  0.00     0.200 C 
HETATM    3  O2  UNL     1      22.886  -2.827  11.154  1.00  0.00    -0.345 OA
HETATM    4  C8  UNL     1      22.935  -1.640  11.957  1.00  0.00     0.332 C 
HETATM    5  C12 UNL     1      24.230  -1.122  11.326  1.00  0.00     0.251 C 
ENDROOT
BRANCH   1   6
HETATM    6  N5  UNL     1      24.346  -0.609   8.842  1.00  0.00    -0.291 N 
HETATM    7  C4  UNL     1      23.903   0.368   7.980  1.00  0.00     0.190 A 
HETATM    8  N4  UNL     1      24.786   0.681   7.054  1.00  0.00    -0.346 N 
HETATM    9  C3  UNL     1      25.857  -0.090   7.280  1.00  0.00     0.123 A 
ATOM     10  H4  UNL     1      24.676   1.374   6.313  1.00  0.00     0.167 HD
HETATM   11  C2  UNL     1      27.084  -0.186   6.619  1.00  0.00     0.145 A 
HETATM   12  C13 UNL     1      25.594  -0.885   8.377  1.00  0.00     0.159 A 
HETATM   13  N2  UNL     1      27.972  -1.071   7.092  1.00  0.00    -0.175 N 
HETATM   14  C1  UNL     1      27.700  -1.839   8.162  1.00  0.00     0.679 A 
ATOM     15  H2  UNL     1      28.876  -1.165   6.629  1.00  0.00     0.186 HD
HETATM   16  N12 UNL     1      26.525  -1.758   8.810  1.00  0.00    -0.174 N 
ATOM     17  H12 UNL     1      26.339  -2.351   9.619  1.00  0.00     0.186 HD
BRANCH  11  18
HETATM   18  N3  UNL     1      27.269   0.583   5.602  1.00  0.00    -0.383 N 
ATOM     19  H32 UNL     1      28.108   1.164   5.601  1.00  0.00     0.157 HD
ATOM     20  H31 UNL     1      26.644   0.658   4.799  1.00  0.00     0.157 HD
ENDBRANCH  11  18
BRANCH  14  21
HETATM   21  N1  UNL     1      28.577  -2.679   8.589  1.00  0.00    -0.234 N 
ATOM     22  H12 UNL     1      29.558  -2.513   8.361  1.00  0.00     0.174 HD
ATOM     23  H11 UNL     1      28.284  -3.484   9.141  1.00  0.00     0.174 HD
ENDBRANCH  14  21
ENDBRANCH   1   6
BRANCH   2  24
HETATM   24  C7  UNL     1      22.929  -3.320   8.776  1.00  0.00     0.202 C 
BRANCH  24  25
HETATM   25  O1  UNL     1      22.205  -2.941   7.672  1.00  0.00    -0.398 OA
ATOM     26  H1  UNL     1      22.798  -2.687   6.976  1.00  0.00     0.209 HD
ENDBRANCH  24  25
ENDBRANCH   2  24
BRANCH   5  27
HETATM   27  O4  UNL     1      24.518   0.192  11.587  1.00  0.00    -0.357 OA
ATOM     28  H4  UNL     1      24.387   0.302  12.522  1.00  0.00     0.213 HD
ENDBRANCH   5  27
BRANCH   5  29
HETATM   29  O5  UNL     1      25.169  -2.015  11.648  1.00  0.00    -0.357 OA
ATOM     30  H5  UNL     1      25.130  -2.429  12.502  1.00  0.00     0.213 HD
ENDBRANCH   5  29
BRANCH   4  31
HETATM   31  N6  UNL     1      22.968  -2.058  13.298  1.00  0.00    -0.069 N 
HETATM   32  C9  UNL     1      23.013  -3.292  13.849  1.00  0.00     0.710 A 
HETATM   33  N8  UNL     1      23.001  -3.234  15.193  1.00  0.00    -0.020 N 
HETATM   34  C10 UNL     1      22.949  -1.941  15.477  1.00  0.00     0.710 A 
ATOM     35  H8  UNL     1      23.026  -4.014  15.849  1.00  0.00     0.203 HD
HETATM   36  N10 UNL     1      22.930  -1.216  14.318  1.00  0.00    -0.078 N 
BRANCH  32  37
HETATM   37  N7  UNL     1      23.075  -4.389  13.222  1.00  0.00    -0.233 N 
ATOM     38  H72 UNL     1      22.243  -4.863  12.870  1.00  0.00     0.174 HD
ATOM     39  H71 UNL     1      23.923  -4.916  13.013  1.00  0.00     0.174 HD
ENDBRANCH  32  37
BRANCH  34  40
HETATM   40  N9  UNL     1      22.921  -1.476  16.687  1.00  0.00    -0.233 N 
ATOM     41  H92 UNL     1      23.630  -1.604  17.410  1.00  0.00     0.174 HD
ATOM     42  H91 UNL     1      22.155  -0.912  17.055  1.00  0.00     0.174 HD
ENDBRANCH  34  40
BRANCH  36  43
HETATM   43  C11 UNL     1      22.871   0.236  14.424  1.00  0.00     0.369 C 
BRANCH  43  44
HETATM   44  O3  UNL     1      24.121   0.845  14.480  1.00  0.00    -0.265 OA
BRANCH  44  45
HETATM   45  N11 UNL     1      24.217   1.960  13.764  1.00  0.00    -0.309 N 
ATOM     46 2H11 UNL     1      23.722   2.080  12.880  1.00  0.00     0.184 HD
ATOM     47 1H11 UNL     1      24.823   2.671  14.175  1.00  0.00     0.184 HD
ENDBRANCH  44  45
ENDBRANCH  43  44
ENDBRANCH  36  43
ENDBRANCH   4  31
TORSDOF 13
ENDMDL
MODEL 4
REMARK VINA RESULT: -5.385790281      1.568      2.985
REMARK  13 active torsions:
REMARK  status: ('A' for Active; 'I' for Inactive)
REMARK    1  A    between atoms: N1_1  and  C1_4 
REMARK    2  A    between atoms: C2_7  and  N3_8 
REMARK    3  A    between atoms: N5_15  and  C5_16 
REMARK    4  A    between atoms: C6_17  and  C7_18 
REMARK    5  A    between atoms: C7_18  and  O1_19 
REMARK    6  A    between atoms: C8_22  and  N6_23 
REMARK    7  A    between atoms: C9_24  and  N7_25 
REMARK    8  A    between atoms: C10_30  and  N9_31 
REMARK    9  A    between atoms: N10_34  and  C11_35 
REMARK   10  A    between atoms: C11_35  and  O3_36 
REMARK   11  A    between atoms: O3_36  and  N11_37 
REMARK   12  A    between atoms: C12_40  and  O4_41 
REMARK   13  A    between atoms: C12_40  and  O5_43 
ROOT
HETATM    1  C5  UNL     1      23.476  -2.672  10.612  1.00  0.00     0.094 C 
HETATM    2  C6  UNL     1      24.800  -2.324  11.130  1.00  0.00     0.200 C 
HETATM    3  O2  UNL     1      24.487  -1.216  11.963  1.00  0.00    -0.345 OA
HETATM    4  C8  UNL     1      23.234  -1.601  12.546  1.00  0.00     0.332 C 
HETATM    5  C12 UNL     1      22.493  -1.663  11.208  1.00  0.00     0.251 C 
ENDROOT
BRANCH   1   6
HETATM    6  N5  UNL     1      23.241  -3.267   9.387  1.00  0.00    -0.291 N 
HETATM    7  C4  UNL     1      23.053  -2.625   8.184  1.00  0.00     0.190 A 
HETATM    8  N4  UNL     1      22.851  -3.454   7.180  1.00  0.00    -0.346 N 
HETATM    9  C3  UNL     1      22.901  -4.688   7.697  1.00  0.00     0.123 A 
ATOM     10  H4  UNL     1      22.689  -3.205   6.204  1.00  0.00     0.167 HD
HETATM   11  C2  UNL     1      22.758  -5.945   7.104  1.00  0.00     0.145 A 
HETATM   12  C13 UNL     1      23.140  -4.582   9.051  1.00  0.00     0.159 A 
HETATM   13  N2  UNL     1      22.861  -7.018   7.901  1.00  0.00    -0.175 N 
HETATM   14  C1  UNL     1      23.094  -6.897   9.219  1.00  0.00     0.679 A 
ATOM     15  H2  UNL     1      22.760  -7.949   7.497  1.00  0.00     0.186 HD
HETATM   16  N12 UNL     1      23.235  -5.695   9.805  1.00  0.00    -0.174 N 
ATOM     17  H12 UNL     1      23.411  -5.625  10.807  1.00  0.00     0.186 HD
BRANCH  11  18
HETATM   18  N3  UNL     1      22.536  -5.979   5.836  1.00  0.00    -0.383 N 
ATOM     19  H32 UNL     1      22.045  -6.794   5.468  1.00  0.00     0.157 HD
ATOM     20  H31 UNL     1      22.812  -5.257   5.170  1.00  0.00     0.157 HD
ENDBRANCH  11  18
BRANCH  14  21
HETATM   21  N1  UNL     1      23.187  -7.950   9.954  1.00  0.00    -0.234 N 
ATOM     22  H12 UNL     1      22.485  -8.099  10.679  1.00  0.00     0.174 HD
ATOM     23  H11 UNL     1      23.950  -8.610   9.803  1.00  0.00     0.174 HD
ENDBRANCH  14  21
ENDBRANCH   1   6
BRANCH   2  24
HETATM   24  C7  UNL     1      25.940  -2.098  10.229  1.00  0.00     0.202 C 
BRANCH  24  25
HETATM   25  O1  UNL     1      26.676  -1.030  10.681  1.00  0.00    -0.398 OA
ATOM     26  H1  UNL     1      27.090  -0.596   9.945  1.00  0.00     0.209 HD
ENDBRANCH  24  25
ENDBRANCH   2  24
BRANCH   5  27
HETATM   27  O4  UNL     1      21.283  -2.304  11.243  1.00  0.00    -0.357 OA
ATOM     28  H4  UNL     1      20.639  -1.649  11.001  1.00  0.00     0.213 HD
ENDBRANCH   5  27
BRANCH   5  29
HETATM   29  O5  UNL     1      22.495  -0.413  10.738  1.00  0.00    -0.357 OA
ATOM     30  H5  UNL     1      22.150   0.281  11.288  1.00  0.00     0.213 HD
ENDBRANCH   5  29
BRANCH   4  31
HETATM   31  N6  UNL     1      22.882  -0.589  13.455  1.00  0.00    -0.069 N 
HETATM   32  C9  UNL     1      23.190   0.726  13.493  1.00  0.00     0.710 A 
HETATM   33  N8  UNL     1      22.659   1.328  14.572  1.00  0.00    -0.020 N 
HETATM   34  C10 UNL     1      22.010   0.367  15.213  1.00  0.00     0.710 A 
ATOM     35  H8  UNL     1      22.739   2.309  14.840  1.00  0.00     0.203 HD
HETATM   36  N10 UNL     1      22.142  -0.811  14.530  1.00  0.00    -0.078 N 
BRANCH  32  37
HETATM   37  N7  UNL     1      23.874   1.358  12.637  1.00  0.00    -0.233 N 
ATOM     38  H72 UNL     1      24.876   1.203  12.518  1.00  0.00     0.174 HD
ATOM     39  H71 UNL     1      23.529   2.076  11.999  1.00  0.00     0.174 HD
ENDBRANCH  32  37
BRANCH  34  40
HETATM   40  N9  UNL     1      21.359   0.558  16.318  1.00  0.00    -0.233 N 
ATOM     41  H92 UNL     1      20.788  -0.123  16.819  1.00  0.00     0.174 HD
ATOM     42  H91 UNL     1      21.354   1.445  16.821  1.00  0.00     0.174 HD
ENDBRANCH  34  40
BRANCH  36  43
HETATM   43  C11 UNL     1      21.495  -1.994  15.083  1.00  0.00     0.369 C 
BRANCH  43  44
HETATM   44  O3  UNL     1      22.051  -2.425  16.284  1.00  0.00    -0.265 OA
BRANCH  44  45
HETATM   45  N11 UNL     1      23.193  -3.089  16.150  1.00  0.00    -0.309 N 
ATOM     46 2H11 UNL     1      24.022  -2.661  15.737  1.00  0.00     0.184 HD
ATOM     47 1H11 UNL     1      23.162  -4.049  16.493  1.00  0.00     0.184 HD
ENDBRANCH  44  45
ENDBRANCH  43  44
ENDBRANCH  36  43
ENDBRANCH   4  31
TORSDOF 13
ENDMDL
MODEL 5
REMARK VINA RESULT: -5.147080440      4.384      7.236
REMARK  13 active torsions:
REMARK  status: ('A' for Active; 'I' for Inactive)
REMARK    1  A    between atoms: N1_1  and  C1_4 
REMARK    2  A    between atoms: C2_7  and  N3_8 
REMARK    3  A    between atoms: N5_15  and  C5_16 
REMARK    4  A    between atoms: C6_17  and  C7_18 
REMARK    5  A    between atoms: C7_18  and  O1_19 
REMARK    6  A    between atoms: C8_22  and  N6_23 
REMARK    7  A    between atoms: C9_24  and  N7_25 
REMARK    8  A    between atoms: C10_30  and  N9_31 
REMARK    9  A    between atoms: N10_34  and  C11_35 
REMARK   10  A    between atoms: C11_35  and  O3_36 
REMARK   11  A    between atoms: O3_36  and  N11_37 
REMARK   12  A    between atoms: C12_40  and  O4_41 
REMARK   13  A    between atoms: C12_40  and  O5_43 
ROOT
HETATM    1  C5  UNL     1      20.962  -2.908  11.800  1.00  0.00     0.094 C 
HETATM    2  C6  UNL     1      21.302  -4.279  12.181  1.00  0.00     0.200 C 
HETATM    3  O2  UNL     1      20.025  -4.787  12.544  1.00  0.00    -0.345 OA
HETATM    4  C8  UNL     1      19.156  -4.185  11.576  1.00  0.00     0.332 C 
HETATM    5  C12 UNL     1      19.457  -2.751  12.020  1.00  0.00     0.251 C 
ENDROOT
BRANCH   1   6
HETATM    6  N5  UNL     1      21.820  -1.827  11.899  1.00  0.00    -0.291 N 
HETATM    7  C4  UNL     1      22.603  -1.305  10.894  1.00  0.00     0.190 A 
HETATM    8  N4  UNL     1      23.319  -0.270  11.281  1.00  0.00    -0.346 N 
HETATM    9  C3  UNL     1      23.026  -0.072  12.573  1.00  0.00     0.123 A 
ATOM     10  H4  UNL     1      23.967   0.273  10.711  1.00  0.00     0.167 HD
HETATM   11  C2  UNL     1      23.482   0.878  13.490  1.00  0.00     0.145 A 
HETATM   12  C13 UNL     1      22.106  -1.024  12.959  1.00  0.00     0.159 A 
HETATM   13  N2  UNL     1      22.993   0.818  14.736  1.00  0.00    -0.175 N 
HETATM   14  C1  UNL     1      22.097  -0.117  15.097  1.00  0.00     0.679 A 
ATOM     15  H2  UNL     1      23.309   1.497  15.428  1.00  0.00     0.186 HD
HETATM   16  N12 UNL     1      21.647  -1.038  14.226  1.00  0.00    -0.174 N 
ATOM     17  H12 UNL     1      20.967  -1.739  14.521  1.00  0.00     0.186 HD
BRANCH  11  18
HETATM   18  N3  UNL     1      24.341   1.741  13.069  1.00  0.00    -0.383 N 
ATOM     19  H32 UNL     1      24.688   2.424  13.743  1.00  0.00     0.157 HD
ATOM     20  H31 UNL     1      24.701   1.798  12.116  1.00  0.00     0.157 HD
ENDBRANCH  11  18
BRANCH  14  21
HETATM   21  N1  UNL     1      21.649  -0.146  16.303  1.00  0.00    -0.234 N 
ATOM     22  H12 UNL     1      22.245   0.210  17.050  1.00  0.00     0.174 HD
ATOM     23  H11 UNL     1      20.718  -0.517  16.491  1.00  0.00     0.174 HD
ENDBRANCH  14  21
ENDBRANCH   1   6
BRANCH   2  24
HETATM   24  C7  UNL     1      22.364  -4.562  13.157  1.00  0.00     0.202 C 
BRANCH  24  25
HETATM   25  O1  UNL     1      21.881  -4.369  14.428  1.00  0.00    -0.398 OA
ATOM     26  H1  UNL     1      20.966  -4.116  14.384  1.00  0.00     0.209 HD
ENDBRANCH  24  25
ENDBRANCH   2  24
BRANCH   5  27
HETATM   27  O4  UNL     1      19.057  -1.775  11.146  1.00  0.00    -0.357 OA
ATOM     28  H4  UNL     1      18.970  -2.206  10.303  1.00  0.00     0.213 HD
ENDBRANCH   5  27
BRANCH   5  29
HETATM   29  O5  UNL     1      18.999  -2.658  13.271  1.00  0.00    -0.357 OA
ATOM     30  H5  UNL     1      18.110  -2.939  13.452  1.00  0.00     0.213 HD
ENDBRANCH   5  29
BRANCH   4  31
HETATM   31  N6  UNL     1      17.869  -4.697  11.812  1.00  0.00    -0.069 N 
HETATM   32  C9  UNL     1      17.320  -5.266  12.908  1.00  0.00     0.710 A 
HETATM   33  N8  UNL     1      16.050  -5.647  12.683  1.00  0.00    -0.020 N 
HETATM   34  C10 UNL     1      15.809  -5.307  11.426  1.00  0.00     0.710 A 
ATOM     35  H8  UNL     1      15.411  -6.100  13.338  1.00  0.00     0.203 HD
HETATM   36  N10 UNL     1      16.922  -4.722  10.887  1.00  0.00    -0.078 N 
BRANCH  32  37
HETATM   37  N7  UNL     1      17.884  -5.427  14.029  1.00  0.00    -0.233 N 
ATOM     38  H72 UNL     1      18.285  -4.648  14.552  1.00  0.00     0.174 HD
ATOM     39  H71 UNL     1      18.014  -6.313  14.517  1.00  0.00     0.174 HD
ENDBRANCH  32  37
BRANCH  34  40
HETATM   40  N9  UNL     1      14.674  -5.515  10.834  1.00  0.00    -0.233 N 
ATOM     41  H92 UNL     1      14.533  -5.825   9.872  1.00  0.00     0.174 HD
ATOM     42  H91 UNL     1      13.771  -5.386  11.288  1.00  0.00     0.174 HD
ENDBRANCH  34  40
BRANCH  36  43
HETATM   43  C11 UNL     1      16.854  -4.278   9.501  1.00  0.00     0.369 C 
BRANCH  43  44
HETATM   44  O3  UNL     1      17.177  -2.936   9.327  1.00  0.00    -0.265 OA
BRANCH  44  45
HETATM   45  N11 UNL     1      16.312  -2.091   9.874  1.00  0.00    -0.309 N 
ATOM     46 2H11 UNL     1      15.395  -1.914   9.464  1.00  0.00     0.184 HD
ATOM     47 1H11 UNL     1      16.646  -1.644  10.729  1.00  0.00     0.184 HD
ENDBRANCH  44  45
ENDBRANCH  43  44
ENDBRANCH  36  43
ENDBRANCH   4  31
TORSDOF 13
ENDMDL
