MODEL 1
REMARK VINA RESULT: -7.231209950      0.000      0.000
REMARK  13 active torsions:
REMARK  status: ('A' for Active; 'I' for Inactive)
REMARK    1  A    between atoms: N1_1  and  N2_4 
REMARK    2  A    between atoms: N2_4  and  O1_5 
REMARK    3  A    between atoms: O1_5  and  C1_6 
REMARK    4  A    between atoms: C1_6  and  O2_7 
REMARK    5  A    between atoms: C1_6  and  C2_9 
REMARK    6  A    between atoms: N3_10  and  O3_11 
REMARK    7  A    between atoms: C3_13  and  N4_14 
REMARK       I    between atoms: N4_14  and  C4_16 
REMARK    8  A    between atoms: C5_19  and  O5_20 
REMARK    9  A    between atoms: C7_23  and  O6_24 
REMARK   10  A    between atoms: C7_23  and  C8_26 
REMARK       I    between atoms: C8_26  and  N6_28 
REMARK   11  A    between atoms: N6_28  and  C9_30 
REMARK   12  A    between atoms: C12_35  and  O10_36 
REMARK   13  A    between atoms: C13_38  and  O11_39 
ROOT
HETATM    1  C2  UNL     1      22.481  -1.680  14.795  1.00  0.00     0.189 C 
HETATM    2  N3  UNL     1      23.627  -1.310  14.032  1.00  0.00    -0.161 NA
HETATM    3  C3  UNL     1      23.751  -1.928  12.741  1.00  0.00     0.216 C 
HETATM    4  C5  UNL     1      22.880  -3.112  12.507  1.00  0.00     0.160 C 
HETATM    5  C6  UNL     1      22.848  -3.928  13.776  1.00  0.00     0.085 C 
HETATM    6  C7  UNL     1      22.358  -3.156  14.954  1.00  0.00     0.163 C 
ENDROOT
BRANCH   6   7
HETATM    7  O6  UNL     1      23.171  -3.522  16.052  1.00  0.00    -0.378 OA
ATOM      8  H6  UNL     1      23.839  -2.852  16.140  1.00  0.00     0.211 HD
ENDBRANCH   6   7
BRANCH   6   9
HETATM    9  C8  UNL     1      20.999  -3.612  15.277  1.00  0.00     0.260 C 
HETATM   10  O7  UNL     1      20.833  -4.238  16.356  1.00  0.00    -0.270 OA
HETATM   11  N6  UNL     1      19.860  -3.403  14.468  1.00  0.00    -0.302 N 
ATOM     12  H6  UNL     1      19.967  -2.899  13.588  1.00  0.00     0.171 HD
BRANCH  11  13
HETATM   13  C9  UNL     1      18.571  -3.872  14.836  1.00  0.00     0.190 A 
HETATM   14  O8  UNL     1      17.792  -3.130  15.627  1.00  0.00    -0.255 OA
HETATM   15  C10 UNL     1      16.619  -3.575  15.952  1.00  0.00     0.292 A 
HETATM   16  O9  UNL     1      15.822  -2.920  16.705  1.00  0.00    -0.260 OA
HETATM   17  C11 UNL     1      16.138  -4.789  15.513  1.00  0.00     0.122 A 
HETATM   18  C12 UNL     1      16.926  -5.573  14.693  1.00  0.00     0.109 A 
HETATM   19  C13 UNL     1      18.150  -5.096  14.361  1.00  0.00     0.151 A 
BRANCH  18  20
HETATM   20  O10 UNL     1      16.457  -6.796  14.241  1.00  0.00    -0.358 OA
ATOM     21  H10 UNL     1      16.647  -7.082  13.355  1.00  0.00     0.217 HD
ENDBRANCH  18  20
BRANCH  19  22
HETATM   22  O11 UNL     1      19.006  -5.844  13.529  1.00  0.00    -0.355 OA
ATOM     23  H11 UNL     1      18.830  -6.767  13.390  1.00  0.00     0.218 HD
ENDBRANCH  19  22
ENDBRANCH  11  13
ENDBRANCH   6   9
BRANCH   1  24
HETATM   24  C1  UNL     1      22.618  -0.995  16.144  1.00  0.00     0.306 C 
BRANCH  24  25
HETATM   25  O1  UNL     1      22.098   0.274  16.182  1.00  0.00    -0.233 OA
BRANCH  25  26
HETATM   26  N2  UNL     1      21.072   0.359  17.051  1.00  0.00     0.016 NA
BRANCH  26  27
HETATM   27  N1  UNL     1      21.577   0.688  18.303  1.00  0.00    -0.323 N 
ATOM     28  H12 UNL     1      22.481   1.128  18.470  1.00  0.00     0.174 HD
ATOM     29  H11 UNL     1      20.895   0.415  19.012  1.00  0.00     0.174 HD
ENDBRANCH  26  27
ENDBRANCH  25  26
ENDBRANCH  24  25
BRANCH  24  30
HETATM   30  O2  UNL     1      23.939  -0.988  16.583  1.00  0.00    -0.368 OA
ATOM     31  H2  UNL     1      24.056  -1.622  17.281  1.00  0.00     0.212 HD
ENDBRANCH  24  30
ENDBRANCH   1  24
BRANCH   2  32
HETATM   32  O3  UNL     1      23.752   0.035  13.897  1.00  0.00    -0.310 OA
ATOM     33  H3  UNL     1      24.143   0.444  14.661  1.00  0.00     0.237 HD
ENDBRANCH   2  32
BRANCH   4  34
HETATM   34  O5  UNL     1      23.499  -3.899  11.516  1.00  0.00    -0.392 OA
ATOM     35  H5  UNL     1      23.454  -4.803  11.804  1.00  0.00     0.210 HD
ENDBRANCH   4  34
BRANCH   3  36
HETATM   36  N4  UNL     1      23.524  -0.936  11.716  1.00  0.00    -0.324 N 
HETATM   37  C4  UNL     1      24.546  -0.545  10.810  1.00  0.00     0.330 C 
HETATM   38  N5  UNL     1      24.299   0.433   9.810  1.00  0.00    -0.040 NA
HETATM   39  O4  UNL     1      25.681  -1.077  10.900  1.00  0.00    -0.251 OA
ATOM     40  H4  UNL     1      22.603  -0.503  11.640  1.00  0.00     0.165 HD
ENDBRANCH   3  36
TORSDOF 13
ENDMDL
MODEL 2
REMARK VINA RESULT: -7.201842330      0.497      1.700
REMARK  13 active torsions:
REMARK  status: ('A' for Active; 'I' for Inactive)
REMARK    1  A    between atoms: N1_1  and  N2_4 
REMARK    2  A    between atoms: N2_4  and  O1_5 
REMARK    3  A    between atoms: O1_5  and  C1_6 
REMARK    4  A    between atoms: C1_6  and  O2_7 
REMARK    5  A    between atoms: C1_6  and  C2_9 
REMARK    6  A    between atoms: N3_10  and  O3_11 
REMARK    7  A    between atoms: C3_13  and  N4_14 
REMARK       I    between atoms: N4_14  and  C4_16 
REMARK    8  A    between atoms: C5_19  and  O5_20 
REMARK    9  A    between atoms: C7_23  and  O6_24 
REMARK   10  A    between atoms: C7_23  and  C8_26 
REMARK       I    between atoms: C8_26  and  N6_28 
REMARK   11  A    between atoms: N6_28  and  C9_30 
REMARK   12  A    between atoms: C12_35  and  O10_36 
REMARK   13  A    between atoms: C13_38  and  O11_39 
ROOT
HETATM    1  C2  UNL     1      22.437  -1.703  14.760  1.00  0.00     0.189 C 
HETATM    2  N3  UNL     1      23.603  -1.337  14.024  1.00  0.00    -0.161 NA
HETATM    3  C3  UNL     1      23.747  -1.943  12.731  1.00  0.00     0.216 C 
HETATM    4  C5  UNL     1      22.870  -3.116  12.467  1.00  0.00     0.160 C 
HETATM    5  C6  UNL     1      22.804  -3.944  13.727  1.00  0.00     0.085 C 
HETATM    6  C7  UNL     1      22.297  -3.179  14.903  1.00  0.00     0.163 C 
ENDROOT
BRANCH   6   7
HETATM    7  O6  UNL     1      23.084  -3.564  16.014  1.00  0.00    -0.378 OA
ATOM      8  H6  UNL     1      23.291  -4.484  15.901  1.00  0.00     0.211 HD
ENDBRANCH   6   7
BRANCH   6   9
HETATM    9  C8  UNL     1      20.927  -3.625  15.193  1.00  0.00     0.260 C 
HETATM   10  O7  UNL     1      20.721  -4.205  16.290  1.00  0.00    -0.270 OA
HETATM   11  N6  UNL     1      19.819  -3.454  14.333  1.00  0.00    -0.302 N 
ATOM     12  H6  UNL     1      19.959  -2.986  13.437  1.00  0.00     0.171 HD
BRANCH  11  13
HETATM   13  C9  UNL     1      18.518  -3.910  14.672  1.00  0.00     0.190 A 
HETATM   14  O8  UNL     1      18.187  -5.189  14.480  1.00  0.00    -0.255 OA
HETATM   15  C10 UNL     1      16.995  -5.585  14.795  1.00  0.00     0.292 A 
HETATM   16  O9  UNL     1      16.610  -6.793  14.638  1.00  0.00    -0.260 OA
HETATM   17  C11 UNL     1      16.047  -4.737  15.324  1.00  0.00     0.122 A 
HETATM   18  C12 UNL     1      16.366  -3.410  15.532  1.00  0.00     0.109 A 
HETATM   19  C13 UNL     1      17.616  -3.009  15.198  1.00  0.00     0.151 A 
BRANCH  18  20
HETATM   20  O10 UNL     1      15.425  -2.544  16.065  1.00  0.00    -0.358 OA
ATOM     21  H10 UNL     1      15.515  -1.606  15.940  1.00  0.00     0.217 HD
ENDBRANCH  18  20
BRANCH  19  22
HETATM   22  O11 UNL     1      18.009  -1.669  15.384  1.00  0.00    -0.355 OA
ATOM     23  H11 UNL     1      17.347  -0.988  15.398  1.00  0.00     0.218 HD
ENDBRANCH  19  22
ENDBRANCH  11  13
ENDBRANCH   6   9
BRANCH   1  24
HETATM   24  C1  UNL     1      22.553  -1.032  16.118  1.00  0.00     0.306 C 
BRANCH  24  25
HETATM   25  O1  UNL     1      22.052   0.244  16.156  1.00  0.00    -0.233 OA
BRANCH  25  26
HETATM   26  N2  UNL     1      21.038   0.350  17.038  1.00  0.00     0.016 NA
BRANCH  26  27
HETATM   27  N1  UNL     1      21.563   0.684  18.280  1.00  0.00    -0.323 N 
ATOM     28  H12 UNL     1      21.994   0.025  18.928  1.00  0.00     0.174 HD
ATOM     29  H11 UNL     1      21.444   1.687  18.425  1.00  0.00     0.174 HD
ENDBRANCH  26  27
ENDBRANCH  25  26
ENDBRANCH  24  25
BRANCH  24  30
HETATM   30  O2  UNL     1      23.862  -1.049  16.588  1.00  0.00    -0.368 OA
ATOM     31  H2  UNL     1      24.018  -1.837  17.097  1.00  0.00     0.212 HD
ENDBRANCH  24  30
ENDBRANCH   1  24
BRANCH   2  32
HETATM   32  O3  UNL     1      23.743   0.009  13.906  1.00  0.00    -0.310 OA
ATOM     33  H3  UNL     1      23.974   0.276  13.024  1.00  0.00     0.237 HD
ENDBRANCH   2  32
BRANCH   4  34
HETATM   34  O5  UNL     1      23.501  -3.899  11.481  1.00  0.00    -0.392 OA
ATOM     35  H5  UNL     1      23.670  -4.753  11.863  1.00  0.00     0.210 HD
ENDBRANCH   4  34
BRANCH   3  36
HETATM   36  N4  UNL     1      23.551  -0.939  11.711  1.00  0.00    -0.324 N 
HETATM   37  C4  UNL     1      24.587  -0.568  10.813  1.00  0.00     0.330 C 
HETATM   38  N5  UNL     1      24.370   0.421   9.818  1.00  0.00    -0.040 NA
HETATM   39  O4  UNL     1      25.708  -1.130  10.906  1.00  0.00    -0.251 OA
ATOM     40  H4  UNL     1      22.642  -0.483  11.633  1.00  0.00     0.165 HD
ENDBRANCH   3  36
TORSDOF 13
ENDMDL
MODEL 3
REMARK VINA RESULT: -7.016258167      1.439      1.606
REMARK  13 active torsions:
REMARK  status: ('A' for Active; 'I' for Inactive)
REMARK    1  A    between atoms: N1_1  and  N2_4 
REMARK    2  A    between atoms: N2_4  and  O1_5 
REMARK    3  A    between atoms: O1_5  and  C1_6 
REMARK    4  A    between atoms: C1_6  and  O2_7 
REMARK    5  A    between atoms: C1_6  and  C2_9 
REMARK    6  A    between atoms: N3_10  and  O3_11 
REMARK    7  A    between atoms: C3_13  and  N4_14 
REMARK       I    between atoms: N4_14  and  C4_16 
REMARK    8  A    between atoms: C5_19  and  O5_20 
REMARK    9  A    between atoms: C7_23  and  O6_24 
REMARK   10  A    between atoms: C7_23  and  C8_26 
REMARK       I    between atoms: C8_26  and  N6_28 
REMARK   11  A    between atoms: N6_28  and  C9_30 
REMARK   12  A    between atoms: C12_35  and  O10_36 
REMARK   13  A    between atoms: C13_38  and  O11_39 
ROOT
HETATM    1  C2  UNL     1      22.463  -0.566  13.541  1.00  0.00     0.189 C 
HETATM    2  N3  UNL     1      23.408  -0.173  12.548  1.00  0.00    -0.161 NA
HETATM    3  C3  UNL     1      23.291  -0.827  11.274  1.00  0.00     0.216 C 
HETATM    4  C5  UNL     1      22.448  -2.053  11.254  1.00  0.00     0.160 C 
HETATM    5  C6  UNL     1      22.718  -2.828  12.520  1.00  0.00     0.085 C 
HETATM    6  C7  UNL     1      22.446  -2.039  13.757  1.00  0.00     0.163 C 
ENDROOT
BRANCH   6   7
HETATM    7  O6  UNL     1      23.485  -2.335  14.670  1.00  0.00    -0.378 OA
ATOM      8  H6  UNL     1      23.714  -1.522  15.104  1.00  0.00     0.211 HD
ENDBRANCH   6   7
BRANCH   6   9
HETATM    9  C8  UNL     1      21.206  -2.541  14.366  1.00  0.00     0.260 C 
HETATM   10  O7  UNL     1      21.224  -2.802  15.596  1.00  0.00    -0.270 OA
HETATM   11  N6  UNL     1      19.993  -2.755  13.675  1.00  0.00    -0.302 N 
ATOM     12  H6  UNL     1      19.952  -2.552  12.676  1.00  0.00     0.171 HD
BRANCH  11  13
HETATM   13  C9  UNL     1      18.827  -3.245  14.322  1.00  0.00     0.190 A 
HETATM   14  O8  UNL     1      18.010  -2.400  14.954  1.00  0.00    -0.255 OA
HETATM   15  C10 UNL     1      16.952  -2.866  15.539  1.00  0.00     0.292 A 
HETATM   16  O9  UNL     1      16.127  -2.116  16.162  1.00  0.00    -0.260 OA
HETATM   17  C11 UNL     1      16.631  -4.206  15.535  1.00  0.00     0.122 A 
HETATM   18  C12 UNL     1      17.462  -5.098  14.887  1.00  0.00     0.109 A 
HETATM   19  C13 UNL     1      18.565  -4.598  14.281  1.00  0.00     0.151 A 
BRANCH  18  20
HETATM   20  O10 UNL     1      17.154  -6.450  14.873  1.00  0.00    -0.358 OA
ATOM     21  H10 UNL     1      17.242  -6.950  14.070  1.00  0.00     0.217 HD
ENDBRANCH  18  20
BRANCH  19  22
HETATM   22  O11 UNL     1      19.456  -5.452  13.601  1.00  0.00    -0.355 OA
ATOM     23  H11 UNL     1      20.190  -5.078  13.129  1.00  0.00     0.218 HD
ENDBRANCH  19  22
ENDBRANCH  11  13
ENDBRANCH   6   9
BRANCH   1  24
HETATM   24  C1  UNL     1      22.843   0.168  14.816  1.00  0.00     0.306 C 
BRANCH  24  25
HETATM   25  O1  UNL     1      22.043   1.246  15.100  1.00  0.00    -0.233 OA
BRANCH  25  26
HETATM   26  N2  UNL     1      21.264   1.011  16.174  1.00  0.00     0.016 NA
BRANCH  26  27
HETATM   27  N1  UNL     1      21.836  -0.009  16.923  1.00  0.00    -0.323 N 
ATOM     28  H12 UNL     1      22.725  -0.460  16.711  1.00  0.00     0.174 HD
ATOM     29  H11 UNL     1      21.220  -0.222  17.709  1.00  0.00     0.174 HD
ENDBRANCH  26  27
ENDBRANCH  25  26
ENDBRANCH  24  25
BRANCH  24  30
HETATM   30  O2  UNL     1      24.181   0.550  14.807  1.00  0.00    -0.368 OA
ATOM     31  H2  UNL     1      24.442   0.813  13.932  1.00  0.00     0.212 HD
ENDBRANCH  24  30
ENDBRANCH   1  24
BRANCH   2  32
HETATM   32  O3  UNL     1      23.438   1.172  12.359  1.00  0.00    -0.310 OA
ATOM     33  H3  UNL     1      23.333   1.656  13.170  1.00  0.00     0.237 HD
ENDBRANCH   2  32
BRANCH   4  34
HETATM   34  O5  UNL     1      22.885  -2.845  10.174  1.00  0.00    -0.392 OA
ATOM     35  H5  UNL     1      22.110  -3.165   9.726  1.00  0.00     0.210 HD
ENDBRANCH   4  34
BRANCH   3  36
HETATM   36  N4  UNL     1      22.810   0.122  10.296  1.00  0.00    -0.324 N 
HETATM   37  C4  UNL     1      23.360   0.195   8.988  1.00  0.00     0.330 C 
HETATM   38  N5  UNL     1      22.870   1.135   8.043  1.00  0.00    -0.040 NA
HETATM   39  O4  UNL     1      24.291  -0.587   8.670  1.00  0.00    -0.251 OA
ATOM     40  H4  UNL     1      22.054   0.756  10.552  1.00  0.00     0.165 HD
ENDBRANCH   3  36
TORSDOF 13
ENDMDL
MODEL 4
REMARK VINA RESULT: -6.934020307      1.707      2.242
REMARK  13 active torsions:
REMARK  status: ('A' for Active; 'I' for Inactive)
REMARK    1  A    between atoms: N1_1  and  N2_4 
REMARK    2  A    between atoms: N2_4  and  O1_5 
REMARK    3  A    between atoms: O1_5  and  C1_6 
REMARK    4  A    between atoms: C1_6  and  O2_7 
REMARK    5  A    between atoms: C1_6  and  C2_9 
REMARK    6  A    between atoms: N3_10  and  O3_11 
REMARK    7  A    between atoms: C3_13  and  N4_14 
REMARK       I    between atoms: N4_14  and  C4_16 
REMARK    8  A    between atoms: C5_19  and  O5_20 
REMARK    9  A    between atoms: C7_23  and  O6_24 
REMARK   10  A    between atoms: C7_23  and  C8_26 
REMARK       I    between atoms: C8_26  and  N6_28 
REMARK   11  A    between atoms: N6_28  and  C9_30 
REMARK   12  A    between atoms: C12_35  and  O10_36 
REMARK   13  A    between atoms: C13_38  and  O11_39 
ROOT
HETATM    1  C2  UNL     1      22.596  -0.670  13.514  1.00  0.00     0.189 C 
HETATM    2  N3  UNL     1      23.478  -0.093  12.553  1.00  0.00    -0.161 NA
HETATM    3  C3  UNL     1      23.513  -0.731  11.267  1.00  0.00     0.216 C 
HETATM    4  C5  UNL     1      22.906  -2.089  11.204  1.00  0.00     0.160 C 
HETATM    5  C6  UNL     1      23.281  -2.828  12.465  1.00  0.00     0.085 C 
HETATM    6  C7  UNL     1      22.840  -2.126  13.706  1.00  0.00     0.163 C 
ENDROOT
BRANCH   6   7
HETATM    7  O6  UNL     1      23.893  -2.249  14.643  1.00  0.00    -0.378 OA
ATOM      8  H6  UNL     1      24.169  -3.158  14.633  1.00  0.00     0.211 HD
ENDBRANCH   6   7
BRANCH   6   9
HETATM    9  C8  UNL     1      21.697  -2.856  14.272  1.00  0.00     0.260 C 
HETATM   10  O7  UNL     1      21.448  -2.694  15.494  1.00  0.00    -0.270 OA
HETATM   11  N6  UNL     1      20.854  -3.730  13.549  1.00  0.00    -0.302 N 
ATOM     12  H6  UNL     1      21.035  -3.879  12.556  1.00  0.00     0.171 HD
BRANCH  11  13
HETATM   13  C9  UNL     1      19.764  -4.408  14.156  1.00  0.00     0.190 A 
HETATM   14  O8  UNL     1      19.984  -5.490  14.905  1.00  0.00    -0.255 OA
HETATM   15  C10 UNL     1      18.977  -6.095  15.450  1.00  0.00     0.292 A 
HETATM   16  O9  UNL     1      19.114  -7.136  16.177  1.00  0.00    -0.260 OA
HETATM   17  C11 UNL     1      17.678  -5.665  15.289  1.00  0.00     0.122 A 
HETATM   18  C12 UNL     1      17.426  -4.547  14.519  1.00  0.00     0.109 A 
HETATM   19  C13 UNL     1      18.488  -3.924  13.955  1.00  0.00     0.151 A 
BRANCH  18  20
HETATM   20  O10 UNL     1      16.125  -4.100  14.348  1.00  0.00    -0.358 OA
ATOM     21  H10 UNL     1      15.740  -3.501  14.978  1.00  0.00     0.217 HD
ENDBRANCH  18  20
BRANCH  19  22
HETATM   22  O11 UNL     1      18.303  -2.778  13.158  1.00  0.00    -0.355 OA
ATOM     23  H11 UNL     1      17.469  -2.325  13.181  1.00  0.00     0.218 HD
ENDBRANCH  19  22
ENDBRANCH  11  13
ENDBRANCH   6   9
BRANCH   1  24
HETATM   24  C1  UNL     1      22.805   0.094  14.810  1.00  0.00     0.306 C 
BRANCH  24  25
HETATM   25  O1  UNL     1      21.885   1.088  15.028  1.00  0.00    -0.233 OA
BRANCH  25  26
HETATM   26  N2  UNL     1      21.208   0.890  16.176  1.00  0.00     0.016 NA
BRANCH  26  27
HETATM   27  N1  UNL     1      21.893  -0.048  16.939  1.00  0.00    -0.323 N 
ATOM     28  H12 UNL     1      22.451  -0.813  16.560  1.00  0.00     0.174 HD
ATOM     29  H11 UNL     1      21.742   0.162  17.926  1.00  0.00     0.174 HD
ENDBRANCH  26  27
ENDBRANCH  25  26
ENDBRANCH  24  25
BRANCH  24  30
HETATM   30  O2  UNL     1      24.096   0.605  14.901  1.00  0.00    -0.368 OA
ATOM     31  H2  UNL     1      24.515   0.299  15.696  1.00  0.00     0.212 HD
ENDBRANCH  24  30
ENDBRANCH   1  24
BRANCH   2  32
HETATM   32  O3  UNL     1      23.269   1.239  12.387  1.00  0.00    -0.310 OA
ATOM     33  H3  UNL     1      23.250   1.711  13.211  1.00  0.00     0.237 HD
ENDBRANCH   2  32
BRANCH   4  34
HETATM   34  O5  UNL     1      23.506  -2.767  10.125  1.00  0.00    -0.392 OA
ATOM     35  H5  UNL     1      23.223  -3.673  10.168  1.00  0.00     0.210 HD
ENDBRANCH   4  34
BRANCH   3  36
HETATM   36  N4  UNL     1      22.892   0.135  10.291  1.00  0.00    -0.324 N 
HETATM   37  C4  UNL     1      23.449   0.328   8.998  1.00  0.00     0.330 C 
HETATM   38  N5  UNL     1      22.820   1.184   8.055  1.00  0.00    -0.040 NA
HETATM   39  O4  UNL     1      24.511  -0.270   8.692  1.00  0.00    -0.251 OA
ATOM     40  H4  UNL     1      22.030   0.620  10.537  1.00  0.00     0.165 HD
ENDBRANCH   3  36
TORSDOF 13
ENDMDL
MODEL 5
REMARK VINA RESULT: -6.903338696      1.019      1.177
REMARK  13 active torsions:
REMARK  status: ('A' for Active; 'I' for Inactive)
REMARK    1  A    between atoms: N1_1  and  N2_4 
REMARK    2  A    between atoms: N2_4  and  O1_5 
REMARK    3  A    between atoms: O1_5  and  C1_6 
REMARK    4  A    between atoms: C1_6  and  O2_7 
REMARK    5  A    between atoms: C1_6  and  C2_9 
REMARK    6  A    between atoms: N3_10  and  O3_11 
REMARK    7  A    between atoms: C3_13  and  N4_14 
REMARK       I    between atoms: N4_14  and  C4_16 
REMARK    8  A    between atoms: C5_19  and  O5_20 
REMARK    9  A    between atoms: C7_23  and  O6_24 
REMARK   10  A    between atoms: C7_23  and  C8_26 
REMARK       I    between atoms: C8_26  and  N6_28 
REMARK   11  A    between atoms: N6_28  and  C9_30 
REMARK   12  A    between atoms: C12_35  and  O10_36 
REMARK   13  A    between atoms: C13_38  and  O11_39 
ROOT
HETATM    1  C2  UNL     1      22.534  -2.016  14.237  1.00  0.00     0.189 C 
HETATM    2  N3  UNL     1      23.719  -1.838  13.465  1.00  0.00    -0.161 NA
HETATM    3  C3  UNL     1      23.934  -2.791  12.412  1.00  0.00     0.216 C 
HETATM    4  C5  UNL     1      23.100  -4.022  12.477  1.00  0.00     0.160 C 
HETATM    5  C6  UNL     1      23.004  -4.446  13.922  1.00  0.00     0.085 C 
HETATM    6  C7  UNL     1      22.427  -3.389  14.803  1.00  0.00     0.163 C 
ENDROOT
BRANCH   6   7
HETATM    7  O6  UNL     1      23.176  -3.401  16.003  1.00  0.00    -0.378 OA
ATOM      8  H6  UNL     1      22.562  -3.551  16.713  1.00  0.00     0.211 HD
ENDBRANCH   6   7
BRANCH   6   9
HETATM    9  C8  UNL     1      21.058  -3.782  15.167  1.00  0.00     0.260 C 
HETATM   10  O7  UNL     1      20.889  -4.347  16.278  1.00  0.00    -0.270 OA
HETATM   11  N6  UNL     1      19.915  -3.575  14.364  1.00  0.00    -0.302 N 
ATOM     12  H6  UNL     1      20.025  -3.118  13.458  1.00  0.00     0.171 HD
BRANCH  11  13
HETATM   13  C9  UNL     1      18.616  -3.980  14.773  1.00  0.00     0.190 A 
HETATM   14  O8  UNL     1      17.888  -3.189  15.565  1.00  0.00    -0.255 OA
HETATM   15  C10 UNL     1      16.707  -3.577  15.927  1.00  0.00     0.292 A 
HETATM   16  O9  UNL     1      15.957  -2.872  16.683  1.00  0.00    -0.260 OA
HETATM   17  C11 UNL     1      16.165  -4.779  15.527  1.00  0.00     0.122 A 
HETATM   18  C12 UNL     1      16.899  -5.613  14.707  1.00  0.00     0.109 A 
HETATM   19  C13 UNL     1      18.133  -5.196  14.336  1.00  0.00     0.151 A 
BRANCH  18  20
HETATM   20  O10 UNL     1      16.368  -6.825  14.294  1.00  0.00    -0.358 OA
ATOM     21  H10 UNL     1      16.294  -7.021  13.368  1.00  0.00     0.217 HD
ENDBRANCH  18  20
BRANCH  19  22
HETATM   22  O11 UNL     1      18.937  -5.997  13.501  1.00  0.00    -0.355 OA
ATOM     23  H11 UNL     1      19.525  -6.632  13.892  1.00  0.00     0.218 HD
ENDBRANCH  19  22
ENDBRANCH  11  13
ENDBRANCH   6   9
BRANCH   1  24
HETATM   24  C1  UNL     1      22.574  -0.972  15.341  1.00  0.00     0.306 C 
BRANCH  24  25
HETATM   25  O1  UNL     1      21.769   0.115  15.111  1.00  0.00    -0.233 OA
BRANCH  25  26
HETATM   26  N2  UNL     1      22.435   1.270  15.311  1.00  0.00     0.016 NA
BRANCH  26  27
HETATM   27  N1  UNL     1      22.825   1.777  14.078  1.00  0.00    -0.323 N 
ATOM     28  H12 UNL     1      22.869   2.769  13.843  1.00  0.00     0.174 HD
ATOM     29  H11 UNL     1      23.055   0.997  13.462  1.00  0.00     0.174 HD
ENDBRANCH  26  27
ENDBRANCH  25  26
ENDBRANCH  24  25
BRANCH  24  30
HETATM   30  O2  UNL     1      23.876  -0.560  15.609  1.00  0.00    -0.368 OA
ATOM     31  H2  UNL     1      24.102   0.185  15.064  1.00  0.00     0.212 HD
ENDBRANCH  24  30
ENDBRANCH   1  24
BRANCH   2  32
HETATM   32  O3  UNL     1      23.829  -0.581  12.960  1.00  0.00    -0.310 OA
ATOM     33  H3  UNL     1      23.496   0.081  13.554  1.00  0.00     0.237 HD
ENDBRANCH   2  32
BRANCH   4  34
HETATM   34  O5  UNL     1      23.793  -5.035  11.787  1.00  0.00    -0.392 OA
ATOM     35  H5  UNL     1      23.564  -4.959  10.868  1.00  0.00     0.210 HD
ENDBRANCH   4  34
BRANCH   3  36
HETATM   36  N4  UNL     1      23.754  -2.138  11.136  1.00  0.00    -0.324 N 
HETATM   37  C4  UNL     1      24.846  -1.581  10.417  1.00  0.00     0.330 C 
HETATM   38  N5  UNL     1      24.644  -0.944   9.164  1.00  0.00    -0.040 NA
HETATM   39  O4  UNL     1      26.003  -1.659  10.903  1.00  0.00    -0.251 OA
ATOM     40  H4  UNL     1      22.817  -2.075  10.740  1.00  0.00     0.165 HD
ENDBRANCH   3  36
TORSDOF 13
ENDMDL
