MODEL 1
REMARK VINA RESULT: -6.444901999      0.000      0.000
REMARK  12 active torsions:
REMARK  status: ('A' for Active; 'I' for Inactive)
REMARK    1  A    between atoms: C2_2  and  O1_3 
REMARK    2  A    between atoms: C2_2  and  C3_5 
REMARK    3  A    between atoms: C3_5  and  S1_6 
REMARK    4  A    between atoms: C3_5  and  C12_41 
REMARK    5  A    between atoms: S1_6  and  C4_7 
REMARK    6  A    between atoms: C5_11  and  O3_12 
REMARK    7  A    between atoms: C5_11  and  O4_14 
REMARK    8  A    between atoms: C6_16  and  N2_17 
REMARK    9  A    between atoms: C8_23  and  N5_24 
REMARK   10  A    between atoms: C9_29  and  N7_30 
REMARK   11  A    between atoms: C11_36  and  O5_37 
REMARK   12  A    between atoms: C11_36  and  O6_39 
ROOT
HETATM    1  C4  UNL     1      23.932  -0.917   8.264  1.00  0.00     0.279 C 
HETATM    2  O2  UNL     1      22.839  -1.672   7.848  1.00  0.00    -0.259 OA
HETATM    3  N1  UNL     1      22.807  -2.835   8.473  1.00  0.00    -0.240 N 
ATOM      4  H1  UNL     1      22.699  -3.704   7.949  1.00  0.00     0.193 HD
HETATM    5  C5  UNL     1      22.925  -2.852   9.884  1.00  0.00     0.293 C 
HETATM    6  C6  UNL     1      23.743  -1.768  10.503  1.00  0.00     0.279 C 
HETATM    7  C11 UNL     1      23.601  -0.513   9.687  1.00  0.00     0.230 C 
ENDROOT
BRANCH   6   8
HETATM    8  N2  UNL     1      23.363  -1.581  11.883  1.00  0.00    -0.214 N 
HETATM    9  N3  UNL     1      22.891  -0.474  12.431  1.00  0.00    -0.265 N 
HETATM   10  C7  UNL     1      22.640  -0.642  13.740  1.00  0.00     0.169 A 
ATOM     11  H3  UNL     1      22.736   0.397  11.923  1.00  0.00     0.190 HD
HETATM   12  N4  UNL     1      22.162   0.153  14.728  1.00  0.00    -0.173 N 
HETATM   13  C10 UNL     1      22.986  -1.957  14.014  1.00  0.00     0.140 A 
HETATM   14  C8  UNL     1      22.018  -0.316  15.979  1.00  0.00     0.679 A 
ATOM     15  H4  UNL     1      21.910   1.119  14.519  1.00  0.00     0.186 HD
HETATM   16  N6  UNL     1      22.361  -1.604  16.235  1.00  0.00    -0.175 N 
HETATM   17  C9  UNL     1      22.836  -2.425  15.291  1.00  0.00     0.147 A 
ATOM     18  H6  UNL     1      22.253  -1.960  17.185  1.00  0.00     0.186 HD
HETATM   19  N8  UNL     1      23.421  -2.479  12.848  1.00  0.00    -0.276 N 
ATOM     20  H8  UNL     1      23.749  -3.437  12.729  1.00  0.00     0.189 HD
BRANCH  14  21
HETATM   21  N5  UNL     1      21.562   0.439  16.924  1.00  0.00    -0.234 N 
ATOM     22  H52 UNL     1      22.003   1.337  17.124  1.00  0.00     0.174 HD
ATOM     23  H51 UNL     1      20.759   0.153  17.483  1.00  0.00     0.174 HD
ENDBRANCH  14  21
BRANCH  17  24
HETATM   24  N7  UNL     1      23.154  -3.645  15.562  1.00  0.00    -0.383 N 
ATOM     25  H72 UNL     1      22.900  -4.040  16.467  1.00  0.00     0.157 HD
ATOM     26  H71 UNL     1      23.654  -4.225  14.888  1.00  0.00     0.157 HD
ENDBRANCH  17  24
ENDBRANCH   6   8
BRANCH   5  27
HETATM   27  O3  UNL     1      23.522  -4.075  10.276  1.00  0.00    -0.346 OA
ATOM     28  H3  UNL     1      24.303  -3.885  10.783  1.00  0.00     0.215 HD
ENDBRANCH   5  27
BRANCH   5  29
HETATM   29  O4  UNL     1      21.646  -2.843  10.435  1.00  0.00    -0.346 OA
ATOM     30  H4  UNL     1      21.603  -2.153  11.087  1.00  0.00     0.215 HD
ENDBRANCH   5  29
BRANCH   7  31
HETATM   31  O5  UNL     1      24.398   0.524  10.144  1.00  0.00    -0.361 OA
ATOM     32  H5  UNL     1      24.732   1.066   9.439  1.00  0.00     0.213 HD
ENDBRANCH   7  31
BRANCH   7  33
HETATM   33  O6  UNL     1      22.231  -0.169   9.687  1.00  0.00    -0.361 OA
ATOM     34  H6  UNL     1      22.045   0.166  10.557  1.00  0.00     0.213 HD
ENDBRANCH   7  33
BRANCH   1  35
HETATM   35  S1  UNL     1      24.270   0.519   7.256  1.00  0.00    -0.111 SA
BRANCH  35  36
HETATM   36  C3  UNL     1      25.365   0.206   5.875  1.00  0.00     0.179 C 
BRANCH  36  37
HETATM   37  C2  UNL     1      25.423   1.347   4.891  1.00  0.00     0.138 C 
HETATM   38  C1  UNL     1      24.633   0.986   3.657  1.00  0.00     0.041 C 
BRANCH  37  39
HETATM   39  O1  UNL     1      24.884   2.483   5.450  1.00  0.00    -0.394 OA
ATOM     40  H1  UNL     1      24.900   2.398   6.396  1.00  0.00     0.210 HD
ENDBRANCH  37  39
ENDBRANCH  36  37
BRANCH  36  41
HETATM   41  C12 UNL     1      26.724  -0.139   6.358  1.00  0.00     0.189 C 
HETATM   42  O7  UNL     1      27.369  -1.020   5.768  1.00  0.00    -0.647 OA
HETATM   43  O8  UNL     1      27.253   0.518   7.451  1.00  0.00    -0.647 OA
ENDBRANCH  36  41
ENDBRANCH  35  36
ENDBRANCH   1  35
TORSDOF 12
ENDMDL
MODEL 2
REMARK VINA RESULT: -6.189216620      1.074      1.880
REMARK  12 active torsions:
REMARK  status: ('A' for Active; 'I' for Inactive)
REMARK    1  A    between atoms: C2_2  and  O1_3 
REMARK    2  A    between atoms: C2_2  and  C3_5 
REMARK    3  A    between atoms: C3_5  and  S1_6 
REMARK    4  A    between atoms: C3_5  and  C12_41 
REMARK    5  A    between atoms: S1_6  and  C4_7 
REMARK    6  A    between atoms: C5_11  and  O3_12 
REMARK    7  A    between atoms: C5_11  and  O4_14 
REMARK    8  A    between atoms: C6_16  and  N2_17 
REMARK    9  A    between atoms: C8_23  and  N5_24 
REMARK   10  A    between atoms: C9_29  and  N7_30 
REMARK   11  A    between atoms: C11_36  and  O5_37 
REMARK   12  A    between atoms: C11_36  and  O6_39 
ROOT
HETATM    1  C4  UNL     1      24.056  -1.038   7.410  1.00  0.00     0.279 C 
HETATM    2  O2  UNL     1      22.879  -1.710   7.097  1.00  0.00    -0.259 OA
HETATM    3  N1  UNL     1      22.808  -2.861   7.744  1.00  0.00    -0.240 N 
ATOM      4  H1  UNL     1      22.592  -3.724   7.246  1.00  0.00     0.193 HD
HETATM    5  C5  UNL     1      23.040  -2.870   9.140  1.00  0.00     0.293 C 
HETATM    6  C6  UNL     1      23.986  -1.846   9.672  1.00  0.00     0.279 C 
HETATM    7  C11 UNL     1      23.876  -0.593   8.848  1.00  0.00     0.230 C 
ENDROOT
BRANCH   6   8
HETATM    8  N2  UNL     1      23.737  -1.614  11.075  1.00  0.00    -0.214 N 
HETATM    9  N3  UNL     1      23.686  -2.525  12.031  1.00  0.00    -0.265 N 
HETATM   10  C7  UNL     1      23.432  -1.970  13.228  1.00  0.00     0.169 A 
ATOM     11  H3  UNL     1      23.824  -3.525  11.879  1.00  0.00     0.190 HD
HETATM   12  N4  UNL     1      23.285  -2.447  14.487  1.00  0.00    -0.173 N 
HETATM   13  C10 UNL     1      23.319  -0.610  12.982  1.00  0.00     0.140 A 
HETATM   14  C8  UNL     1      23.028  -1.616  15.512  1.00  0.00     0.679 A 
ATOM     15  H4  UNL     1      23.370  -3.448  14.660  1.00  0.00     0.186 HD
HETATM   16  N6  UNL     1      22.918  -0.286  15.259  1.00  0.00    -0.175 N 
HETATM   17  C9  UNL     1      23.056   0.229  14.033  1.00  0.00     0.147 A 
ATOM     18  H6  UNL     1      22.722   0.345  16.036  1.00  0.00     0.186 HD
HETATM   19  N8  UNL     1      23.512  -0.451  11.657  1.00  0.00    -0.276 N 
ATOM     20  H8  UNL     1      23.488   0.445  11.170  1.00  0.00     0.189 HD
BRANCH  14  21
HETATM   21  N5  UNL     1      22.887  -2.066  16.714  1.00  0.00    -0.234 N 
ATOM     22  H52 UNL     1      22.075  -1.801  17.273  1.00  0.00     0.174 HD
ATOM     23  H51 UNL     1      23.580  -2.692  17.125  1.00  0.00     0.174 HD
ENDBRANCH  14  21
BRANCH  17  24
HETATM   24  N7  UNL     1      22.948   1.496  13.821  1.00  0.00    -0.383 N 
ATOM     25  H72 UNL     1      22.110   1.859  13.367  1.00  0.00     0.157 HD
ATOM     26  H71 UNL     1      23.685   2.145  14.098  1.00  0.00     0.157 HD
ENDBRANCH  17  24
ENDBRANCH   6   8
BRANCH   5  27
HETATM   27  O3  UNL     1      23.571  -4.131   9.505  1.00  0.00    -0.346 OA
ATOM     28  H3  UNL     1      23.049  -4.812   9.098  1.00  0.00     0.215 HD
ENDBRANCH   5  27
BRANCH   5  29
HETATM   29  O4  UNL     1      21.815  -2.755   9.793  1.00  0.00    -0.346 OA
ATOM     30  H4  UNL     1      21.255  -3.470   9.514  1.00  0.00     0.215 HD
ENDBRANCH   5  29
BRANCH   7  31
HETATM   31  O5  UNL     1      24.784   0.383   9.221  1.00  0.00    -0.361 OA
ATOM     32  H5  UNL     1      24.834   0.494  10.163  1.00  0.00     0.213 HD
ENDBRANCH   7  31
BRANCH   7  33
HETATM   33  O6  UNL     1      22.541  -0.144   8.952  1.00  0.00    -0.361 OA
ATOM     34  H6  UNL     1      22.546   0.763   8.669  1.00  0.00     0.213 HD
ENDBRANCH   7  33
BRANCH   1  35
HETATM   35  S1  UNL     1      24.420   0.355   6.353  1.00  0.00    -0.111 SA
BRANCH  35  36
HETATM   36  C3  UNL     1      25.925   0.181   5.400  1.00  0.00     0.179 C 
BRANCH  36  37
HETATM   37  C2  UNL     1      26.121   1.283   4.390  1.00  0.00     0.138 C 
HETATM   38  C1  UNL     1      24.801   1.966   4.130  1.00  0.00     0.041 C 
BRANCH  37  39
HETATM   39  O1  UNL     1      27.017   2.211   4.869  1.00  0.00    -0.394 OA
ATOM     40  H1  UNL     1      27.036   2.954   4.278  1.00  0.00     0.210 HD
ENDBRANCH  37  39
ENDBRANCH  36  37
BRANCH  36  41
HETATM   41  C12 UNL     1      27.100   0.078   6.299  1.00  0.00     0.189 C 
HETATM   42  O7  UNL     1      27.032   0.563   7.440  1.00  0.00    -0.647 OA
HETATM   43  O8  UNL     1      28.248  -0.551   5.862  1.00  0.00    -0.647 OA
ENDBRANCH  36  41
ENDBRANCH  35  36
ENDBRANCH   1  35
TORSDOF 12
ENDMDL
MODEL 3
REMARK VINA RESULT: -6.133498218      3.490      8.202
REMARK  12 active torsions:
REMARK  status: ('A' for Active; 'I' for Inactive)
REMARK    1  A    between atoms: C2_2  and  O1_3 
REMARK    2  A    between atoms: C2_2  and  C3_5 
REMARK    3  A    between atoms: C3_5  and  S1_6 
REMARK    4  A    between atoms: C3_5  and  C12_41 
REMARK    5  A    between atoms: S1_6  and  C4_7 
REMARK    6  A    between atoms: C5_11  and  O3_12 
REMARK    7  A    between atoms: C5_11  and  O4_14 
REMARK    8  A    between atoms: C6_16  and  N2_17 
REMARK    9  A    between atoms: C8_23  and  N5_24 
REMARK   10  A    between atoms: C9_29  and  N7_30 
REMARK   11  A    between atoms: C11_36  and  O5_37 
REMARK   12  A    between atoms: C11_36  and  O6_39 
ROOT
HETATM    1  C4  UNL     1      23.200  -1.468  12.632  1.00  0.00     0.279 C 
HETATM    2  O2  UNL     1      24.269  -2.350  12.754  1.00  0.00    -0.259 OA
HETATM    3  N1  UNL     1      24.215  -3.285  11.822  1.00  0.00    -0.240 N 
ATOM      4  H1  UNL     1      24.300  -4.271  12.069  1.00  0.00     0.193 HD
HETATM    5  C5  UNL     1      24.037  -2.891  10.474  1.00  0.00     0.293 C 
HETATM    6  C6  UNL     1      23.250  -1.645  10.236  1.00  0.00     0.279 C 
HETATM    7  C11 UNL     1      23.490  -0.684  11.367  1.00  0.00     0.230 C 
ENDROOT
BRANCH   6   8
HETATM    8  N2  UNL     1      23.581  -1.083   8.947  1.00  0.00    -0.214 N 
HETATM    9  N3  UNL     1      24.074   0.121   8.712  1.00  0.00    -0.265 N 
HETATM   10  C7  UNL     1      24.265   0.326   7.398  1.00  0.00     0.169 A 
ATOM     11  H3  UNL     1      24.284   0.807   9.438  1.00  0.00     0.190 HD
HETATM   12  N4  UNL     1      24.733   1.356   6.654  1.00  0.00    -0.173 N 
HETATM   13  C10 UNL     1      23.855  -0.847   6.782  1.00  0.00     0.140 A 
HETATM   14  C8  UNL     1      24.808   1.259   5.315  1.00  0.00     0.679 A 
ATOM     15  H4  UNL     1      25.032   2.216   7.114  1.00  0.00     0.186 HD
HETATM   16  N6  UNL     1      24.403   0.107   4.723  1.00  0.00    -0.175 N 
HETATM   17  C9  UNL     1      23.935  -0.935   5.418  1.00  0.00     0.147 A 
ATOM     18  H6  UNL     1      24.458   0.033   3.707  1.00  0.00     0.186 HD
HETATM   19  N8  UNL     1      23.448  -1.667   7.772  1.00  0.00    -0.276 N 
ATOM     20  H8  UNL     1      23.087  -2.611   7.631  1.00  0.00     0.189 HD
BRANCH  14  21
HETATM   21  N5  UNL     1      25.254   2.240   4.601  1.00  0.00    -0.234 N 
ATOM     22  H52 UNL     1      25.738   3.021   5.043  1.00  0.00     0.174 HD
ATOM     23  H51 UNL     1      25.131   2.250   3.589  1.00  0.00     0.174 HD
ENDBRANCH  14  21
BRANCH  17  24
HETATM   24  N7  UNL     1      23.558  -2.019   4.830  1.00  0.00    -0.383 N 
ATOM     25  H72 UNL     1      22.992  -1.960   3.983  1.00  0.00     0.157 HD
ATOM     26  H71 UNL     1      23.814  -2.937   5.194  1.00  0.00     0.157 HD
ENDBRANCH  17  24
ENDBRANCH   6   8
BRANCH   5  27
HETATM   27  O3  UNL     1      23.363  -3.926   9.782  1.00  0.00    -0.346 OA
ATOM     28  H3  UNL     1      23.637  -3.915   8.872  1.00  0.00     0.215 HD
ENDBRANCH   5  27
BRANCH   5  29
HETATM   29  O4  UNL     1      25.291  -2.770   9.878  1.00  0.00    -0.346 OA
ATOM     30  H4  UNL     1      25.229  -2.143   9.167  1.00  0.00     0.215 HD
ENDBRANCH   5  29
BRANCH   7  31
HETATM   31  O5  UNL     1      22.729   0.469  11.269  1.00  0.00    -0.361 OA
ATOM     32  H5  UNL     1      22.582   0.882  12.112  1.00  0.00     0.213 HD
ENDBRANCH   7  31
BRANCH   7  33
HETATM   33  O6  UNL     1      24.874  -0.405  11.389  1.00  0.00    -0.361 OA
ATOM     34  H6  UNL     1      25.057   0.080  10.593  1.00  0.00     0.213 HD
ENDBRANCH   7  33
BRANCH   1  35
HETATM   35  S1  UNL     1      22.978  -0.371  14.024  1.00  0.00    -0.111 SA
BRANCH  35  36
HETATM   36  C3  UNL     1      21.888  -1.007  15.294  1.00  0.00     0.179 C 
BRANCH  36  37
HETATM   37  C2  UNL     1      22.272  -2.384  15.773  1.00  0.00     0.138 C 
HETATM   38  C1  UNL     1      21.580  -3.422  14.924  1.00  0.00     0.041 C 
BRANCH  37  39
HETATM   39  O1  UNL     1      23.633  -2.560  15.670  1.00  0.00    -0.394 OA
ATOM     40  H1  UNL     1      24.065  -1.984  16.291  1.00  0.00     0.210 HD
ENDBRANCH  37  39
ENDBRANCH  36  37
BRANCH  36  41
HETATM   41  C12 UNL     1      21.809  -0.059  16.432  1.00  0.00     0.189 C 
HETATM   42  O7  UNL     1      22.448  -0.303  17.467  1.00  0.00    -0.647 OA
HETATM   43  O8  UNL     1      21.032   1.077  16.328  1.00  0.00    -0.647 OA
ENDBRANCH  36  41
ENDBRANCH  35  36
ENDBRANCH   1  35
TORSDOF 12
ENDMDL
MODEL 4
REMARK VINA RESULT: -6.119224196      4.534      5.810
REMARK  12 active torsions:
REMARK  status: ('A' for Active; 'I' for Inactive)
REMARK    1  A    between atoms: C2_2  and  O1_3 
REMARK    2  A    between atoms: C2_2  and  C3_5 
REMARK    3  A    between atoms: C3_5  and  S1_6 
REMARK    4  A    between atoms: C3_5  and  C12_41 
REMARK    5  A    between atoms: S1_6  and  C4_7 
REMARK    6  A    between atoms: C5_11  and  O3_12 
REMARK    7  A    between atoms: C5_11  and  O4_14 
REMARK    8  A    between atoms: C6_16  and  N2_17 
REMARK    9  A    between atoms: C8_23  and  N5_24 
REMARK   10  A    between atoms: C9_29  and  N7_30 
REMARK   11  A    between atoms: C11_36  and  O5_37 
REMARK   12  A    between atoms: C11_36  and  O6_39 
ROOT
HETATM    1  C4  UNL     1      22.159  -1.357  12.430  1.00  0.00     0.279 C 
HETATM    2  O2  UNL     1      23.181  -2.200  12.856  1.00  0.00    -0.259 OA
HETATM    3  N1  UNL     1      22.961  -2.617  14.090  1.00  0.00    -0.240 N 
ATOM      4  H1  UNL     1      23.691  -2.549  14.800  1.00  0.00     0.193 HD
HETATM    5  C5  UNL     1      21.693  -3.160  14.408  1.00  0.00     0.293 C 
HETATM    6  C6  UNL     1      20.524  -2.625  13.651  1.00  0.00     0.279 C 
HETATM    7  C11 UNL     1      20.958  -2.265  12.257  1.00  0.00     0.230 C 
ENDROOT
BRANCH   6   8
HETATM    8  N2  UNL     1      19.438  -3.576  13.669  1.00  0.00    -0.214 N 
HETATM    9  N3  UNL     1      18.641  -3.849  14.688  1.00  0.00    -0.265 N 
HETATM   10  C7  UNL     1      17.735  -4.787  14.367  1.00  0.00     0.169 A 
ATOM     11  H3  UNL     1      18.707  -3.403  15.603  1.00  0.00     0.190 HD
HETATM   12  N4  UNL     1      16.724  -5.401  15.028  1.00  0.00    -0.173 N 
HETATM   13  C10 UNL     1      17.998  -5.112  13.044  1.00  0.00     0.140 A 
HETATM   14  C8  UNL     1      15.966  -6.328  14.418  1.00  0.00     0.679 A 
ATOM     15  H4  UNL     1      16.536  -5.156  16.000  1.00  0.00     0.186 HD
HETATM   16  N6  UNL     1      16.234  -6.639  13.124  1.00  0.00    -0.175 N 
HETATM   17  C9  UNL     1      17.221  -6.059  12.432  1.00  0.00     0.147 A 
ATOM     18  H6  UNL     1      15.660  -7.343  12.660  1.00  0.00     0.186 HD
HETATM   19  N8  UNL     1      19.044  -4.346  12.672  1.00  0.00    -0.276 N 
ATOM     20  H8  UNL     1      19.473  -4.360  11.747  1.00  0.00     0.189 HD
BRANCH  14  21
HETATM   21  N5  UNL     1      15.001  -6.915  15.044  1.00  0.00    -0.234 N 
ATOM     22  H52 UNL     1      14.193  -7.268  14.532  1.00  0.00     0.174 HD
ATOM     23  H51 UNL     1      15.029  -7.036  16.057  1.00  0.00     0.174 HD
ENDBRANCH  14  21
BRANCH  17  24
HETATM   24  N7  UNL     1      17.453  -6.372  11.203  1.00  0.00    -0.383 N 
ATOM     25  H72 UNL     1      17.286  -5.683  10.470  1.00  0.00     0.157 HD
ATOM     26  H71 UNL     1      17.800  -7.296  10.948  1.00  0.00     0.157 HD
ENDBRANCH  17  24
ENDBRANCH   6   8
BRANCH   5  27
HETATM   27  O3  UNL     1      21.425  -2.920  15.778  1.00  0.00    -0.346 OA
ATOM     28  H3  UNL     1      20.746  -2.259  15.845  1.00  0.00     0.215 HD
ENDBRANCH   5  27
BRANCH   5  29
HETATM   29  O4  UNL     1      21.753  -4.543  14.255  1.00  0.00    -0.346 OA
ATOM     30  H4  UNL     1      20.867  -4.878  14.180  1.00  0.00     0.215 HD
ENDBRANCH   5  29
BRANCH   7  31
HETATM   31  O5  UNL     1      19.950  -1.679  11.510  1.00  0.00    -0.361 OA
ATOM     32  H5  UNL     1      19.117  -1.664  11.968  1.00  0.00     0.213 HD
ENDBRANCH   7  31
BRANCH   7  33
HETATM   33  O6  UNL     1      21.445  -3.447  11.656  1.00  0.00    -0.361 OA
ATOM     34  H6  UNL     1      22.093  -3.169  11.019  1.00  0.00     0.213 HD
ENDBRANCH   7  33
BRANCH   1  35
HETATM   35  S1  UNL     1      22.509  -0.470  10.919  1.00  0.00    -0.111 SA
BRANCH  35  36
HETATM   36  C3  UNL     1      24.008  -0.990  10.092  1.00  0.00     0.179 C 
BRANCH  36  37
HETATM   37  C2  UNL     1      24.066  -0.571   8.645  1.00  0.00     0.138 C 
HETATM   38  C1  UNL     1      22.900   0.337   8.338  1.00  0.00     0.041 C 
BRANCH  37  39
HETATM   39  O1  UNL     1      25.237   0.106   8.393  1.00  0.00    -0.394 OA
ATOM     40  H1  UNL     1      25.065   1.040   8.422  1.00  0.00     0.210 HD
ENDBRANCH  37  39
ENDBRANCH  36  37
BRANCH  36  41
HETATM   41  C12 UNL     1      25.202  -0.505  10.826  1.00  0.00     0.189 C 
HETATM   42  O7  UNL     1      26.217  -1.217  10.866  1.00  0.00    -0.647 OA
HETATM   43  O8  UNL     1      25.171   0.725  11.452  1.00  0.00    -0.647 OA
ENDBRANCH  36  41
ENDBRANCH  35  36
ENDBRANCH   1  35
TORSDOF 12
ENDMDL
MODEL 5
REMARK VINA RESULT: -6.062908731      4.346      5.919
REMARK  12 active torsions:
REMARK  status: ('A' for Active; 'I' for Inactive)
REMARK    1  A    between atoms: C2_2  and  O1_3 
REMARK    2  A    between atoms: C2_2  and  C3_5 
REMARK    3  A    between atoms: C3_5  and  S1_6 
REMARK    4  A    between atoms: C3_5  and  C12_41 
REMARK    5  A    between atoms: S1_6  and  C4_7 
REMARK    6  A    between atoms: C5_11  and  O3_12 
REMARK    7  A    between atoms: C5_11  and  O4_14 
REMARK    8  A    between atoms: C6_16  and  N2_17 
REMARK    9  A    between atoms: C8_23  and  N5_24 
REMARK   10  A    between atoms: C9_29  and  N7_30 
REMARK   11  A    between atoms: C11_36  and  O5_37 
REMARK   12  A    between atoms: C11_36  and  O6_39 
ROOT
HETATM    1  C4  UNL     1      23.272  -1.992  12.953  1.00  0.00     0.279 C 
HETATM    2  O2  UNL     1      23.813  -2.105  14.231  1.00  0.00    -0.259 OA
HETATM    3  N1  UNL     1      23.004  -1.576  15.132  1.00  0.00    -0.240 N 
ATOM      4  H1  UNL     1      23.356  -0.908  15.818  1.00  0.00     0.193 HD
HETATM    5  C5  UNL     1      21.640  -1.954  15.125  1.00  0.00     0.293 C 
HETATM    6  C6  UNL     1      21.047  -2.310  13.803  1.00  0.00     0.279 C 
HETATM    7  C11 UNL     1      22.101  -2.954  12.945  1.00  0.00     0.230 C 
ENDROOT
BRANCH   6   8
HETATM    8  N2  UNL     1      19.887  -3.150  13.984  1.00  0.00    -0.214 N 
HETATM    9  N3  UNL     1      18.769  -2.829  14.613  1.00  0.00    -0.265 N 
HETATM   10  C7  UNL     1      17.889  -3.844  14.600  1.00  0.00     0.169 A 
ATOM     11  H3  UNL     1      18.596  -1.925  15.052  1.00  0.00     0.190 HD
HETATM   12  N4  UNL     1      16.637  -4.026  15.086  1.00  0.00    -0.173 N 
HETATM   13  C10 UNL     1      18.520  -4.866  13.907  1.00  0.00     0.140 A 
HETATM   14  C8  UNL     1      15.992  -5.191  14.907  1.00  0.00     0.679 A 
ATOM     15  H4  UNL     1      16.180  -3.270  15.595  1.00  0.00     0.186 HD
HETATM   16  N6  UNL     1      16.620  -6.185  14.228  1.00  0.00    -0.175 N 
HETATM   17  C9  UNL     1      17.854  -6.050  13.730  1.00  0.00     0.147 A 
ATOM     18  H6  UNL     1      16.132  -7.070  14.092  1.00  0.00     0.186 HD
HETATM   19  N8  UNL     1      19.732  -4.388  13.557  1.00  0.00    -0.276 N 
ATOM     20  H8  UNL     1      20.433  -4.913  13.035  1.00  0.00     0.189 HD
BRANCH  14  21
HETATM   21  N5  UNL     1      14.799  -5.369  15.369  1.00  0.00    -0.234 N 
ATOM     22  H52 UNL     1      14.220  -4.569  15.624  1.00  0.00     0.174 HD
ATOM     23  H51 UNL     1      14.415  -6.307  15.486  1.00  0.00     0.174 HD
ENDBRANCH  14  21
BRANCH  17  24
HETATM   24  N7  UNL     1      18.427  -7.010  13.088  1.00  0.00    -0.383 N 
ATOM     25  H72 UNL     1      18.463  -7.941  13.503  1.00  0.00     0.157 HD
ATOM     26  H71 UNL     1      18.848  -6.858  12.171  1.00  0.00     0.157 HD
ENDBRANCH  17  24
ENDBRANCH   6   8
BRANCH   5  27
HETATM   27  O3  UNL     1      20.868  -0.880  15.632  1.00  0.00    -0.346 OA
ATOM     28  H3  UNL     1      20.109  -1.234  16.081  1.00  0.00     0.215 HD
ENDBRANCH   5  27
BRANCH   5  29
HETATM   29  O4  UNL     1      21.470  -3.014  16.012  1.00  0.00    -0.346 OA
ATOM     30  H4  UNL     1      20.561  -3.036  16.286  1.00  0.00     0.215 HD
ENDBRANCH   5  29
BRANCH   7  31
HETATM   31  O5  UNL     1      21.657  -3.240  11.664  1.00  0.00    -0.361 OA
ATOM     32  H5  UNL     1      21.960  -4.086  11.353  1.00  0.00     0.213 HD
ENDBRANCH   7  31
BRANCH   7  33
HETATM   33  O6  UNL     1      22.540  -4.111  13.625  1.00  0.00    -0.361 OA
ATOM     34  H6  UNL     1      21.755  -4.557  13.920  1.00  0.00     0.213 HD
ENDBRANCH   7  33
BRANCH   1  35
HETATM   35  S1  UNL     1      24.411  -2.364  11.628  1.00  0.00    -0.111 SA
BRANCH  35  36
HETATM   36  C3  UNL     1      24.566  -1.065  10.407  1.00  0.00     0.179 C 
BRANCH  36  37
HETATM   37  C2  UNL     1      23.852  -1.373   9.115  1.00  0.00     0.138 C 
HETATM   38  C1  UNL     1      24.644  -2.392   8.334  1.00  0.00     0.041 C 
BRANCH  37  39
HETATM   39  O1  UNL     1      22.602  -1.885   9.376  1.00  0.00    -0.394 OA
ATOM     40  H1  UNL     1      22.590  -2.236  10.259  1.00  0.00     0.210 HD
ENDBRANCH  37  39
ENDBRANCH  36  37
BRANCH  36  41
HETATM   41  C12 UNL     1      24.106   0.230  10.965  1.00  0.00     0.189 C 
HETATM   42  O7  UNL     1      22.919   0.563  10.819  1.00  0.00    -0.647 OA
HETATM   43  O8  UNL     1      24.995   1.045  11.636  1.00  0.00    -0.647 OA
ENDBRANCH  36  41
ENDBRANCH  35  36
ENDBRANCH   1  35
TORSDOF 12
ENDMDL
