MODEL 1
REMARK VINA RESULT: -9.225220229      0.000      0.000
REMARK  9 active torsions:
REMARK  status: ('A' for Active; 'I' for Inactive)
REMARK    1  A    between atoms: C2_2  and  N1_3 
REMARK    2  A    between atoms: C2_2  and  C22_29 
REMARK    3  A    between atoms: C3_5  and  N2_6 
REMARK    4  A    between atoms: C3_5  and  C18_23 
REMARK    5  A    between atoms: N2_6  and  C4_8 
REMARK    6  A    between atoms: N3_11  and  C7_12 
REMARK    7  A    between atoms: C7_12  and  C8_13 
REMARK    8  A    between atoms: C8_13  and  C9_14 
REMARK    9  A    between atoms: C9_14  and  C10_15 
ROOT
HETATM    1  N2  UNL     1      34.982  22.878   4.870  1.00  0.00    -0.369 N 
ATOM      2  H2  UNL     1      34.701  22.592   3.932  1.00  0.00     0.161 HD
ENDROOT
BRANCH   1   3
HETATM    3  C3  UNL     1      36.079  23.815   5.023  1.00  0.00     0.124 C 
HETATM    4  N1  UNL     1      35.974  24.931   5.586  1.00  0.00    -0.370 N 
ATOM      5  H1  UNL     1      35.033  25.119   5.933  1.00  0.00     0.161 HD
BRANCH   4   6
HETATM    6  C2  UNL     1      36.867  25.969   5.839  1.00  0.00     0.083 C 
HETATM    7  C1  UNL     1      36.193  27.346   5.511  1.00  0.00     0.032 C 
BRANCH   6   8
HETATM    8  C22 UNL     1      37.514  26.136   7.149  1.00  0.00     0.008 C 
HETATM    9  C23 UNL     1      37.026  25.212   8.242  1.00  0.00     0.007 C 
HETATM   10  C24 UNL     1      37.997  25.520   9.381  1.00  0.00     0.000 C 
HETATM   11  C25 UNL     1      39.232  26.116   8.739  1.00  0.00     0.000 C 
HETATM   12  C26 UNL     1      38.997  25.936   7.239  1.00  0.00     0.007 C 
ENDBRANCH   6   8
ENDBRANCH   4   6
BRANCH   3  13
HETATM   13  C18 UNL     1      37.350  23.351   4.441  1.00  0.00     0.076 A 
HETATM   14  C19 UNL     1      38.486  22.904   5.071  1.00  0.00     0.035 A 
HETATM   15  C20 UNL     1      39.378  22.632   4.042  1.00  0.00     0.019 A 
HETATM   16  C21 UNL     1      38.776  22.915   2.846  1.00  0.00     0.088 A 
HETATM   17  N4  UNL     1      37.525  23.358   3.099  1.00  0.00    -0.363 N 
ATOM     18  H4  UNL     1      36.836  23.645   2.404  1.00  0.00     0.165 HD
ENDBRANCH   3  13
ENDBRANCH   1   3
BRANCH   1  19
HETATM   19  C4  UNL     1      34.288  22.351   5.989  1.00  0.00     0.092 C 
HETATM   20  C5  UNL     1      34.833  21.012   6.401  1.00  0.00     0.070 C 
HETATM   21  C6  UNL     1      34.248  20.510   7.683  1.00  0.00     0.065 C 
HETATM   22  N3  UNL     1      32.911  20.849   7.900  1.00  0.00    -0.374 N 
HETATM   23  C16 UNL     1      32.231  21.821   7.141  1.00  0.00     0.065 C 
HETATM   24  C17 UNL     1      32.792  22.156   5.784  1.00  0.00     0.070 C 
BRANCH  22  25
HETATM   25  C7  UNL     1      32.609  21.051   9.323  1.00  0.00     0.127 C 
BRANCH  25  26
HETATM   26  C8  UNL     1      31.246  21.540   9.608  1.00  0.00     0.021 C 
BRANCH  26  27
HETATM   27  C9  UNL     1      30.851  21.316  11.036  1.00  0.00     0.006 C 
BRANCH  27  28
HETATM   28  C10 UNL     1      29.907  20.165  11.258  1.00  0.00    -0.014 C 
HETATM   29  C11 UNL     1      30.732  18.899  11.268  1.00  0.00     0.004 C 
HETATM   30  C12 UNL     1      29.969  17.716  11.813  1.00  0.00     0.000 C 
HETATM   31  C13 UNL     1      29.198  18.010  13.066  1.00  0.00     0.000 C 
HETATM   32  C14 UNL     1      28.233  19.146  12.744  1.00  0.00     0.000 C 
HETATM   33  C15 UNL     1      29.130  20.378  12.513  1.00  0.00     0.004 C 
ENDBRANCH  27  28
ENDBRANCH  26  27
ENDBRANCH  25  26
ENDBRANCH  22  25
ENDBRANCH   1  19
TORSDOF 9
ENDMDL
MODEL 2
REMARK VINA RESULT: -9.198137838      2.996      8.667
REMARK  9 active torsions:
REMARK  status: ('A' for Active; 'I' for Inactive)
REMARK    1  A    between atoms: C2_2  and  N1_3 
REMARK    2  A    between atoms: C2_2  and  C22_29 
REMARK    3  A    between atoms: C3_5  and  N2_6 
REMARK    4  A    between atoms: C3_5  and  C18_23 
REMARK    5  A    between atoms: N2_6  and  C4_8 
REMARK    6  A    between atoms: N3_11  and  C7_12 
REMARK    7  A    between atoms: C7_12  and  C8_13 
REMARK    8  A    between atoms: C8_13  and  C9_14 
REMARK    9  A    between atoms: C9_14  and  C10_15 
ROOT
HETATM    1  N2  UNL     1      33.905  25.044  11.819  1.00  0.00    -0.369 N 
ATOM      2  H2  UNL     1      34.268  25.479  12.667  1.00  0.00     0.161 HD
ENDROOT
BRANCH   1   3
HETATM    3  C3  UNL     1      32.678  24.274  11.892  1.00  0.00     0.124 C 
HETATM    4  N1  UNL     1      32.269  23.519  10.976  1.00  0.00    -0.370 N 
ATOM      5  H1  UNL     1      32.891  23.496  10.167  1.00  0.00     0.161 HD
BRANCH   4   6
HETATM    6  C2  UNL     1      31.149  22.706  10.828  1.00  0.00     0.083 C 
HETATM    7  C1  UNL     1      30.797  22.553   9.307  1.00  0.00     0.032 C 
BRANCH   6   8
HETATM    8  C22 UNL     1      31.091  21.351  11.395  1.00  0.00     0.008 C 
HETATM    9  C23 UNL     1      29.983  21.107  12.395  1.00  0.00     0.007 C 
HETATM   10  C24 UNL     1      30.098  19.604  12.643  1.00  0.00     0.000 C 
HETATM   11  C25 UNL     1      30.815  19.026  11.440  1.00  0.00     0.000 C 
HETATM   12  C26 UNL     1      30.899  20.197  10.459  1.00  0.00     0.007 C 
ENDBRANCH   6   8
ENDBRANCH   4   6
BRANCH   3  13
HETATM   13  C18 UNL     1      31.924  24.460  13.143  1.00  0.00     0.076 A 
HETATM   14  C19 UNL     1      32.152  23.922  14.387  1.00  0.00     0.035 A 
HETATM   15  C20 UNL     1      31.120  24.410  15.177  1.00  0.00     0.019 A 
HETATM   16  C21 UNL     1      30.313  25.208  14.412  1.00  0.00     0.088 A 
HETATM   17  N4  UNL     1      30.815  25.235  13.159  1.00  0.00    -0.363 N 
ATOM     18  H4  UNL     1      30.428  25.748  12.366  1.00  0.00     0.165 HD
ENDBRANCH   3  13
ENDBRANCH   1   3
BRANCH   1  19
HETATM   19  C4  UNL     1      34.614  25.208  10.602  1.00  0.00     0.092 C 
HETATM   20  C5  UNL     1      35.877  24.394  10.579  1.00  0.00     0.070 C 
HETATM   21  C6  UNL     1      36.555  24.401   9.246  1.00  0.00     0.065 C 
HETATM   22  N3  UNL     1      36.446  25.594   8.529  1.00  0.00    -0.374 N 
HETATM   23  C16 UNL     1      35.540  26.617   8.870  1.00  0.00     0.065 C 
HETATM   24  C17 UNL     1      35.025  26.640  10.285  1.00  0.00     0.070 C 
BRANCH  22  25
HETATM   25  C7  UNL     1      36.397  25.372   7.078  1.00  0.00     0.127 C 
BRANCH  25  26
HETATM   26  C8  UNL     1      36.707  23.995   6.647  1.00  0.00     0.021 C 
BRANCH  26  27
HETATM   27  C9  UNL     1      35.612  23.402   5.813  1.00  0.00     0.006 C 
BRANCH  27  28
HETATM   28  C10 UNL     1      34.449  22.852   6.594  1.00  0.00    -0.014 C 
HETATM   29  C11 UNL     1      33.400  22.419   5.596  1.00  0.00     0.004 C 
HETATM   30  C12 UNL     1      32.336  21.548   6.218  1.00  0.00     0.000 C 
HETATM   31  C13 UNL     1      32.873  20.474   7.118  1.00  0.00     0.000 C 
HETATM   32  C14 UNL     1      33.680  21.166   8.211  1.00  0.00     0.000 C 
HETATM   33  C15 UNL     1      34.910  21.751   7.488  1.00  0.00     0.004 C 
ENDBRANCH  27  28
ENDBRANCH  26  27
ENDBRANCH  25  26
ENDBRANCH  22  25
ENDBRANCH   1  19
TORSDOF 9
ENDMDL
MODEL 3
REMARK VINA RESULT: -9.121131316      2.611      4.607
REMARK  9 active torsions:
REMARK  status: ('A' for Active; 'I' for Inactive)
REMARK    1  A    between atoms: C2_2  and  N1_3 
REMARK    2  A    between atoms: C2_2  and  C22_29 
REMARK    3  A    between atoms: C3_5  and  N2_6 
REMARK    4  A    between atoms: C3_5  and  C18_23 
REMARK    5  A    between atoms: N2_6  and  C4_8 
REMARK    6  A    between atoms: N3_11  and  C7_12 
REMARK    7  A    between atoms: C7_12  and  C8_13 
REMARK    8  A    between atoms: C8_13  and  C9_14 
REMARK    9  A    between atoms: C9_14  and  C10_15 
ROOT
HETATM    1  N2  UNL     1      35.313  22.937   4.459  1.00  0.00    -0.369 N 
ATOM      2  H2  UNL     1      35.104  22.572   3.530  1.00  0.00     0.161 HD
ENDROOT
BRANCH   1   3
HETATM    3  C3  UNL     1      36.316  23.974   4.601  1.00  0.00     0.124 C 
HETATM    4  N1  UNL     1      36.051  25.179   4.833  1.00  0.00    -0.370 N 
ATOM      5  H1  UNL     1      35.050  25.361   4.914  1.00  0.00     0.161 HD
BRANCH   4   6
HETATM    6  C2  UNL     1      36.830  26.320   5.001  1.00  0.00     0.083 C 
HETATM    7  C1  UNL     1      37.216  26.914   3.602  1.00  0.00     0.032 C 
BRANCH   6   8
HETATM    8  C22 UNL     1      36.376  27.459   5.813  1.00  0.00     0.008 C 
HETATM    9  C23 UNL     1      35.080  27.252   6.563  1.00  0.00     0.007 C 
HETATM   10  C24 UNL     1      34.995  28.517   7.416  1.00  0.00     0.000 C 
HETATM   11  C25 UNL     1      36.409  29.048   7.532  1.00  0.00     0.000 C 
HETATM   12  C26 UNL     1      37.272  27.950   6.910  1.00  0.00     0.007 C 
ENDBRANCH   6   8
ENDBRANCH   4   6
BRANCH   3  13
HETATM   13  C18 UNL     1      37.700  23.499   4.436  1.00  0.00     0.076 A 
HETATM   14  C19 UNL     1      38.736  23.499   5.338  1.00  0.00     0.035 A 
HETATM   15  C20 UNL     1      39.813  22.967   4.641  1.00  0.00     0.019 A 
HETATM   16  C21 UNL     1      39.412  22.667   3.367  1.00  0.00     0.088 A 
HETATM   17  N4  UNL     1      38.108  22.997   3.247  1.00  0.00    -0.363 N 
ATOM     18  H4  UNL     1      37.534  22.887   2.411  1.00  0.00     0.165 HD
ENDBRANCH   3  13
ENDBRANCH   1   3
BRANCH   1  19
HETATM   19  C4  UNL     1      34.612  22.417   5.577  1.00  0.00     0.092 C 
HETATM   20  C5  UNL     1      35.024  21.004   5.884  1.00  0.00     0.070 C 
HETATM   21  C6  UNL     1      34.440  20.488   7.161  1.00  0.00     0.065 C 
HETATM   22  N3  UNL     1      33.158  20.953   7.461  1.00  0.00    -0.374 N 
HETATM   23  C16 UNL     1      32.558  22.038   6.793  1.00  0.00     0.065 C 
HETATM   24  C17 UNL     1      33.096  22.396   5.433  1.00  0.00     0.070 C 
BRANCH  22  25
HETATM   25  C7  UNL     1      32.939  21.096   8.906  1.00  0.00     0.127 C 
BRANCH  25  26
HETATM   26  C8  UNL     1      33.949  21.908   9.612  1.00  0.00     0.021 C 
BRANCH  26  27
HETATM   27  C9  UNL     1      33.581  23.360   9.652  1.00  0.00     0.006 C 
BRANCH  27  28
HETATM   28  C10 UNL     1      34.635  24.295   9.121  1.00  0.00    -0.014 C 
HETATM   29  C11 UNL     1      34.920  25.313  10.201  1.00  0.00     0.004 C 
HETATM   30  C12 UNL     1      36.183  26.096   9.937  1.00  0.00     0.000 C 
HETATM   31  C13 UNL     1      37.346  25.254   9.500  1.00  0.00     0.000 C 
HETATM   32  C14 UNL     1      36.918  24.518   8.236  1.00  0.00     0.000 C 
HETATM   33  C15 UNL     1      35.837  23.521   8.701  1.00  0.00     0.004 C 
ENDBRANCH  27  28
ENDBRANCH  26  27
ENDBRANCH  25  26
ENDBRANCH  22  25
ENDBRANCH   1  19
TORSDOF 9
ENDMDL
MODEL 4
REMARK VINA RESULT: -8.796971758      1.360      1.892
REMARK  9 active torsions:
REMARK  status: ('A' for Active; 'I' for Inactive)
REMARK    1  A    between atoms: C2_2  and  N1_3 
REMARK    2  A    between atoms: C2_2  and  C22_29 
REMARK    3  A    between atoms: C3_5  and  N2_6 
REMARK    4  A    between atoms: C3_5  and  C18_23 
REMARK    5  A    between atoms: N2_6  and  C4_8 
REMARK    6  A    between atoms: N3_11  and  C7_12 
REMARK    7  A    between atoms: C7_12  and  C8_13 
REMARK    8  A    between atoms: C8_13  and  C9_14 
REMARK    9  A    between atoms: C9_14  and  C10_15 
ROOT
HETATM    1  N2  UNL     1      35.272  22.564   5.077  1.00  0.00    -0.369 N 
ATOM      2  H2  UNL     1      35.325  21.935   4.276  1.00  0.00     0.161 HD
ENDROOT
BRANCH   1   3
HETATM    3  C3  UNL     1      36.188  23.686   5.155  1.00  0.00     0.124 C 
HETATM    4  N1  UNL     1      35.839  24.857   5.442  1.00  0.00    -0.370 N 
ATOM      5  H1  UNL     1      34.838  24.945   5.619  1.00  0.00     0.161 HD
BRANCH   4   6
HETATM    6  C2  UNL     1      36.526  26.061   5.569  1.00  0.00     0.083 C 
HETATM    7  C1  UNL     1      36.601  26.782   4.179  1.00  0.00     0.032 C 
BRANCH   6   8
HETATM    8  C22 UNL     1      36.118  27.090   6.537  1.00  0.00     0.008 C 
HETATM    9  C23 UNL     1      34.892  27.892   6.164  1.00  0.00     0.007 C 
HETATM   10  C24 UNL     1      34.651  28.719   7.425  1.00  0.00     0.000 C 
HETATM   11  C25 UNL     1      35.338  27.982   8.556  1.00  0.00     0.000 C 
HETATM   12  C26 UNL     1      35.770  26.656   7.929  1.00  0.00     0.007 C 
ENDBRANCH   6   8
ENDBRANCH   4   6
BRANCH   3  13
HETATM   13  C18 UNL     1      37.588  23.342   4.852  1.00  0.00     0.076 A 
HETATM   14  C19 UNL     1      38.702  23.435   5.651  1.00  0.00     0.035 A 
HETATM   15  C20 UNL     1      39.750  23.008   4.847  1.00  0.00     0.019 A 
HETATM   16  C21 UNL     1      39.258  22.676   3.613  1.00  0.00     0.088 A 
HETATM   17  N4  UNL     1      37.924  22.883   3.624  1.00  0.00    -0.363 N 
ATOM     18  H4  UNL     1      37.283  22.724   2.846  1.00  0.00     0.165 HD
ENDBRANCH   3  13
ENDBRANCH   1   3
BRANCH   1  19
HETATM   19  C4  UNL     1      34.305  22.318   6.085  1.00  0.00     0.092 C 
HETATM   20  C5  UNL     1      34.689  22.953   7.392  1.00  0.00     0.070 C 
HETATM   21  C6  UNL     1      33.609  22.867   8.424  1.00  0.00     0.065 C 
HETATM   22  N3  UNL     1      32.833  21.707   8.379  1.00  0.00    -0.374 N 
HETATM   23  C16 UNL     1      32.847  20.814   7.291  1.00  0.00     0.065 C 
HETATM   24  C17 UNL     1      34.050  20.847   6.385  1.00  0.00     0.070 C 
BRANCH  22  25
HETATM   25  C7  UNL     1      31.442  21.949   8.785  1.00  0.00     0.127 C 
BRANCH  25  26
HETATM   26  C8  UNL     1      31.169  21.752  10.222  1.00  0.00     0.021 C 
BRANCH  26  27
HETATM   27  C9  UNL     1      31.230  20.308  10.617  1.00  0.00     0.006 C 
BRANCH  27  28
HETATM   28  C10 UNL     1      29.997  19.787  11.305  1.00  0.00    -0.014 C 
HETATM   29  C11 UNL     1      30.301  18.384  11.776  1.00  0.00     0.004 C 
HETATM   30  C12 UNL     1      29.283  17.873  12.765  1.00  0.00     0.000 C 
HETATM   31  C13 UNL     1      28.917  18.862  13.833  1.00  0.00     0.000 C 
HETATM   32  C14 UNL     1      28.380  20.104  13.130  1.00  0.00     0.000 C 
HETATM   33  C15 UNL     1      29.598  20.710  12.405  1.00  0.00     0.004 C 
ENDBRANCH  27  28
ENDBRANCH  26  27
ENDBRANCH  25  26
ENDBRANCH  22  25
ENDBRANCH   1  19
TORSDOF 9
ENDMDL
MODEL 5
REMARK VINA RESULT: -8.695203284      1.456      2.042
REMARK  9 active torsions:
REMARK  status: ('A' for Active; 'I' for Inactive)
REMARK    1  A    between atoms: C2_2  and  N1_3 
REMARK    2  A    between atoms: C2_2  and  C22_29 
REMARK    3  A    between atoms: C3_5  and  N2_6 
REMARK    4  A    between atoms: C3_5  and  C18_23 
REMARK    5  A    between atoms: N2_6  and  C4_8 
REMARK    6  A    between atoms: N3_11  and  C7_12 
REMARK    7  A    between atoms: C7_12  and  C8_13 
REMARK    8  A    between atoms: C8_13  and  C9_14 
REMARK    9  A    between atoms: C9_14  and  C10_15 
ROOT
HETATM    1  N2  UNL     1      34.136  22.902   5.636  1.00  0.00    -0.369 N 
ATOM      2  H2  UNL     1      33.868  22.580   4.706  1.00  0.00     0.161 HD
ENDROOT
BRANCH   1   3
HETATM    3  C3  UNL     1      35.191  23.889   5.764  1.00  0.00     0.124 C 
HETATM    4  N1  UNL     1      35.061  24.978   6.375  1.00  0.00    -0.370 N 
ATOM      5  H1  UNL     1      34.133  25.103   6.779  1.00  0.00     0.161 HD
BRANCH   4   6
HETATM    6  C2  UNL     1      35.914  26.051   6.617  1.00  0.00     0.083 C 
HETATM    7  C1  UNL     1      35.106  27.394   6.579  1.00  0.00     0.032 C 
BRANCH   6   8
HETATM    8  C22 UNL     1      36.755  26.119   7.822  1.00  0.00     0.008 C 
HETATM    9  C23 UNL     1      36.521  25.031   8.845  1.00  0.00     0.007 C 
HETATM   10  C24 UNL     1      37.643  25.287   9.850  1.00  0.00     0.000 C 
HETATM   11  C25 UNL     1      38.710  26.065   9.109  1.00  0.00     0.000 C 
HETATM   12  C26 UNL     1      38.243  26.045   7.653  1.00  0.00     0.007 C 
ENDBRANCH   6   8
ENDBRANCH   4   6
BRANCH   3  13
HETATM   13  C18 UNL     1      36.449  23.514   5.097  1.00  0.00     0.076 A 
HETATM   14  C19 UNL     1      37.560  22.893   5.615  1.00  0.00     0.035 A 
HETATM   15  C20 UNL     1      38.451  22.818   4.552  1.00  0.00     0.019 A 
HETATM   16  C21 UNL     1      37.873  23.382   3.447  1.00  0.00     0.088 A 
HETATM   17  N4  UNL     1      36.638  23.808   3.789  1.00  0.00    -0.363 N 
ATOM     18  H4  UNL     1      35.968  24.269   3.173  1.00  0.00     0.165 HD
ENDBRANCH   3  13
ENDBRANCH   1   3
BRANCH   1  19
HETATM   19  C4  UNL     1      33.466  22.373   6.769  1.00  0.00     0.092 C 
HETATM   20  C5  UNL     1      33.915  23.036   8.041  1.00  0.00     0.070 C 
HETATM   21  C6  UNL     1      33.103  22.631   9.230  1.00  0.00     0.065 C 
HETATM   22  N3  UNL     1      32.648  21.311   9.219  1.00  0.00    -0.374 N 
HETATM   23  C16 UNL     1      32.682  20.495   8.073  1.00  0.00     0.065 C 
HETATM   24  C17 UNL     1      33.648  20.876   6.982  1.00  0.00     0.070 C 
BRANCH  22  25
HETATM   25  C7  UNL     1      31.342  21.165   9.875  1.00  0.00     0.127 C 
BRANCH  25  26
HETATM   26  C8  UNL     1      31.251  20.055  10.844  1.00  0.00     0.021 C 
BRANCH  26  27
HETATM   27  C9  UNL     1      29.917  20.006  11.525  1.00  0.00     0.006 C 
BRANCH  27  28
HETATM   28  C10 UNL     1      29.814  20.838  12.775  1.00  0.00    -0.014 C 
HETATM   29  C11 UNL     1      28.401  20.703  13.291  1.00  0.00     0.004 C 
HETATM   30  C12 UNL     1      28.251  21.205  14.707  1.00  0.00     0.000 C 
HETATM   31  C13 UNL     1      29.339  20.750  15.635  1.00  0.00     0.000 C 
HETATM   32  C14 UNL     1      30.661  21.233  15.050  1.00  0.00     0.000 C 
HETATM   33  C15 UNL     1      30.850  20.411  13.759  1.00  0.00     0.004 C 
ENDBRANCH  27  28
ENDBRANCH  26  27
ENDBRANCH  25  26
ENDBRANCH  22  25
ENDBRANCH   1  19
TORSDOF 9
ENDMDL
