MODEL 1
REMARK VINA RESULT: -8.195259287      0.000      0.000
REMARK  7 active torsions:
REMARK  status: ('A' for Active; 'I' for Inactive)
REMARK    1  A    between atoms: C2_2  and  C3_3 
REMARK       I    between atoms: C3_3  and  N1_5 
REMARK    2  A    between atoms: N1_5  and  C4_7 
REMARK    3  A    between atoms: C4_7  and  C5_8 
REMARK    4  A    between atoms: C5_8  and  N2_9 
REMARK    5  A    between atoms: C8_15  and  C9_16 
REMARK    6  A    between atoms: C9_16  and  C10_17 
REMARK    7  A    between atoms: C18_25  and  C19_26 
ROOT
HETATM    1  C4  UNL     1      36.936  24.984   5.853  1.00  0.00     0.065 C 
HETATM    2  C16 UNL     1      38.333  25.521   5.538  1.00  0.00     0.037 C 
HETATM    3  C17 UNL     1      39.422  24.557   5.419  1.00  0.00     0.008 C 
HETATM    4  C18 UNL     1      39.145  23.144   5.102  1.00  0.00    -0.011 C 
HETATM    5  C22 UNL     1      37.704  22.786   4.962  1.00  0.00     0.008 C 
HETATM    6  C23 UNL     1      36.760  23.868   4.755  1.00  0.00     0.037 C 
ENDROOT
BRANCH   1   7
HETATM    7  N1  UNL     1      36.018  26.021   5.464  1.00  0.00    -0.347 N 
HETATM    8  C3  UNL     1      35.971  27.345   5.915  1.00  0.00     0.218 C 
HETATM    9  O1  UNL     1      36.783  27.814   6.753  1.00  0.00    -0.274 OA
ATOM     10  H1  UNL     1      35.315  25.759   4.774  1.00  0.00     0.163 HD
BRANCH   8  11
HETATM   11  C2  UNL     1      34.923  28.275   5.401  1.00  0.00     0.098 C 
HETATM   12  C1  UNL     1      33.983  28.587   6.520  1.00  0.00     0.014 C 
ENDBRANCH   8  11
ENDBRANCH   1   7
BRANCH   1  13
HETATM   13  C5  UNL     1      36.818  24.302   7.118  1.00  0.00     0.098 C 
BRANCH  13  14
HETATM   14  N2  UNL     1      36.358  24.831   8.348  1.00  0.00    -0.329 N 
HETATM   15  C6  UNL     1      37.119  25.775   9.143  1.00  0.00     0.174 C 
HETATM   16  S1  UNL     1      38.727  25.934   9.186  1.00  0.00    -0.041 SA
HETATM   17  N3  UNL     1      36.184  26.546   9.887  1.00  0.00    -0.365 N 
HETATM   18  C7  UNL     1      34.925  25.803   9.986  1.00  0.00     0.147 C 
ATOM     19  H3  UNL     1      36.361  27.468  10.288  1.00  0.00     0.161 HD
HETATM   20  C8  UNL     1      35.120  24.636   9.104  1.00  0.00     0.109 C 
BRANCH  20  21
HETATM   21  C9  UNL     1      35.056  23.287   9.723  1.00  0.00     0.032 C 
BRANCH  21  22
HETATM   22  C10 UNL     1      33.969  22.360   9.389  1.00  0.00    -0.013 C 
HETATM   23  C11 UNL     1      32.589  22.916   9.257  1.00  0.00     0.005 C 
HETATM   24  C12 UNL     1      31.717  21.979   8.383  1.00  0.00     0.000 C 
HETATM   25  C13 UNL     1      32.156  21.979   6.959  1.00  0.00     0.000 C 
HETATM   26  C14 UNL     1      33.628  22.303   6.904  1.00  0.00     0.000 C 
HETATM   27  C15 UNL     1      34.332  21.663   8.079  1.00  0.00     0.005 C 
ENDBRANCH  21  22
ENDBRANCH  20  21
ENDBRANCH  13  14
ENDBRANCH   1  13
BRANCH   4  28
HETATM   28  C19 UNL     1      39.965  22.579   3.955  1.00  0.00    -0.019 C 
HETATM   29  C20 UNL     1      41.072  23.490   3.535  1.00  0.00     0.010 C 
HETATM   30  C21 UNL     1      39.152  22.143   2.781  1.00  0.00     0.010 C 
ENDBRANCH   4  28
TORSDOF 7
ENDMDL
MODEL 2
REMARK VINA RESULT: -7.743441496      2.068      6.059
REMARK  7 active torsions:
REMARK  status: ('A' for Active; 'I' for Inactive)
REMARK    1  A    between atoms: C2_2  and  C3_3 
REMARK       I    between atoms: C3_3  and  N1_5 
REMARK    2  A    between atoms: N1_5  and  C4_7 
REMARK    3  A    between atoms: C4_7  and  C5_8 
REMARK    4  A    between atoms: C5_8  and  N2_9 
REMARK    5  A    between atoms: C8_15  and  C9_16 
REMARK    6  A    between atoms: C9_16  and  C10_17 
REMARK    7  A    between atoms: C18_25  and  C19_26 
ROOT
HETATM    1  C4  UNL     1      36.640  25.244   8.447  1.00  0.00     0.065 C 
HETATM    2  C16 UNL     1      36.006  24.862   9.785  1.00  0.00     0.037 C 
HETATM    3  C17 UNL     1      34.732  24.152   9.756  1.00  0.00     0.008 C 
HETATM    4  C18 UNL     1      34.322  23.389   8.563  1.00  0.00    -0.011 C 
HETATM    5  C22 UNL     1      35.267  23.440   7.410  1.00  0.00     0.008 C 
HETATM    6  C23 UNL     1      36.627  23.871   7.675  1.00  0.00     0.037 C 
ENDROOT
BRANCH   1   7
HETATM    7  N1  UNL     1      38.029  25.489   8.724  1.00  0.00    -0.347 N 
HETATM    8  C3  UNL     1      38.625  26.675   9.170  1.00  0.00     0.218 C 
HETATM    9  O1  UNL     1      37.971  27.723   9.407  1.00  0.00    -0.274 OA
ATOM     10  H1  UNL     1      38.660  24.701   8.578  1.00  0.00     0.163 HD
BRANCH   8  11
HETATM   11  C2  UNL     1      40.099  26.738   9.387  1.00  0.00     0.098 C 
HETATM   12  C1  UNL     1      40.770  26.744   8.052  1.00  0.00     0.014 C 
ENDBRANCH   8  11
ENDBRANCH   1   7
BRANCH   1  13
HETATM   13  C5  UNL     1      35.857  26.147   7.639  1.00  0.00     0.098 C 
BRANCH  13  14
HETATM   14  N2  UNL     1      36.313  27.001   6.605  1.00  0.00    -0.329 N 
HETATM   15  C6  UNL     1      35.643  28.233   6.237  1.00  0.00     0.174 C 
HETATM   16  S1  UNL     1      34.072  28.574   6.409  1.00  0.00    -0.041 SA
HETATM   17  N3  UNL     1      36.630  29.100   5.691  1.00  0.00    -0.365 N 
HETATM   18  C7  UNL     1      37.767  28.297   5.232  1.00  0.00     0.147 C 
ATOM     19  H3  UNL     1      36.558  30.116   5.628  1.00  0.00     0.161 HD
HETATM   20  C8  UNL     1      37.466  26.933   5.706  1.00  0.00     0.109 C 
BRANCH  20  21
HETATM   21  C9  UNL     1      37.307  25.868   4.683  1.00  0.00     0.032 C 
BRANCH  21  22
HETATM   22  C10 UNL     1      38.478  25.169   4.141  1.00  0.00    -0.013 C 
HETATM   23  C11 UNL     1      39.711  25.108   4.982  1.00  0.00     0.005 C 
HETATM   24  C12 UNL     1      40.597  23.914   4.546  1.00  0.00     0.000 C 
HETATM   25  C13 UNL     1      39.967  22.605   4.876  1.00  0.00     0.000 C 
HETATM   26  C14 UNL     1      38.469  22.776   4.892  1.00  0.00     0.000 C 
HETATM   27  C15 UNL     1      38.058  23.741   3.803  1.00  0.00     0.005 C 
ENDBRANCH  21  22
ENDBRANCH  20  21
ENDBRANCH  13  14
ENDBRANCH   1  13
BRANCH   4  28
HETATM   28  C19 UNL     1      33.874  21.965   8.843  1.00  0.00    -0.019 C 
HETATM   29  C20 UNL     1      34.223  21.024   7.736  1.00  0.00     0.010 C 
HETATM   30  C21 UNL     1      32.434  21.841   9.219  1.00  0.00     0.010 C 
ENDBRANCH   4  28
TORSDOF 7
ENDMDL
MODEL 3
REMARK VINA RESULT: -7.740098284      2.306      4.282
REMARK  7 active torsions:
REMARK  status: ('A' for Active; 'I' for Inactive)
REMARK    1  A    between atoms: C2_2  and  C3_3 
REMARK       I    between atoms: C3_3  and  N1_5 
REMARK    2  A    between atoms: N1_5  and  C4_7 
REMARK    3  A    between atoms: C4_7  and  C5_8 
REMARK    4  A    between atoms: C5_8  and  N2_9 
REMARK    5  A    between atoms: C8_15  and  C9_16 
REMARK    6  A    between atoms: C9_16  and  C10_17 
REMARK    7  A    between atoms: C18_25  and  C19_26 
ROOT
HETATM    1  C4  UNL     1      36.659  25.498   7.048  1.00  0.00     0.065 C 
HETATM    2  C16 UNL     1      37.942  24.867   7.590  1.00  0.00     0.037 C 
HETATM    3  C17 UNL     1      39.167  25.041   6.817  1.00  0.00     0.008 C 
HETATM    4  C18 UNL     1      39.304  26.161   5.867  1.00  0.00    -0.011 C 
HETATM    5  C22 UNL     1      38.110  27.045   5.736  1.00  0.00     0.008 C 
HETATM    6  C23 UNL     1      37.111  26.984   6.787  1.00  0.00     0.037 C 
ENDROOT
BRANCH   1   7
HETATM    7  N1  UNL     1      35.759  25.584   8.165  1.00  0.00    -0.347 N 
HETATM    8  C3  UNL     1      36.072  25.812   9.510  1.00  0.00     0.218 C 
HETATM    9  O1  UNL     1      37.247  25.993   9.919  1.00  0.00    -0.274 OA
ATOM     10  H1  UNL     1      34.769  25.465   7.951  1.00  0.00     0.163 HD
BRANCH   8  11
HETATM   11  C2  UNL     1      34.989  25.852  10.535  1.00  0.00     0.098 C 
HETATM   12  C1  UNL     1      34.654  24.447  10.919  1.00  0.00     0.014 C 
ENDBRANCH   8  11
ENDBRANCH   1   7
BRANCH   1  13
HETATM   13  C5  UNL     1      36.231  24.996   5.765  1.00  0.00     0.098 C 
BRANCH  13  14
HETATM   14  N2  UNL     1      36.445  23.704   5.225  1.00  0.00    -0.329 N 
HETATM   15  C6  UNL     1      37.203  23.463   4.014  1.00  0.00     0.174 C 
HETATM   16  S1  UNL     1      37.401  24.481   2.773  1.00  0.00    -0.041 SA
HETATM   17  N3  UNL     1      37.749  22.154   4.113  1.00  0.00    -0.365 N 
HETATM   18  C7  UNL     1      36.962  21.382   5.078  1.00  0.00     0.147 C 
ATOM     19  H3  UNL     1      38.558  21.807   3.597  1.00  0.00     0.161 HD
HETATM   20  C8  UNL     1      36.038  22.370   5.670  1.00  0.00     0.109 C 
BRANCH  20  21
HETATM   21  C9  UNL     1      34.581  22.146   5.486  1.00  0.00     0.032 C 
BRANCH  21  22
HETATM   22  C10 UNL     1      33.624  22.562   6.517  1.00  0.00    -0.013 C 
HETATM   23  C11 UNL     1      32.330  21.821   6.614  1.00  0.00     0.005 C 
HETATM   24  C12 UNL     1      31.726  21.984   8.032  1.00  0.00     0.000 C 
HETATM   25  C13 UNL     1      32.533  21.275   9.065  1.00  0.00     0.000 C 
HETATM   26  C14 UNL     1      33.965  21.202   8.598  1.00  0.00     0.000 C 
HETATM   27  C15 UNL     1      34.325  22.478   7.871  1.00  0.00     0.005 C 
ENDBRANCH  21  22
ENDBRANCH  20  21
ENDBRANCH  13  14
ENDBRANCH   1  13
BRANCH   4  28
HETATM   28  C19 UNL     1      40.576  26.977   6.029  1.00  0.00    -0.019 C 
HETATM   29  C20 UNL     1      41.207  26.799   7.371  1.00  0.00     0.010 C 
HETATM   30  C21 UNL     1      40.417  28.424   5.696  1.00  0.00     0.010 C 
ENDBRANCH   4  28
TORSDOF 7
ENDMDL
MODEL 4
REMARK VINA RESULT: -7.739144412      2.865      4.814
REMARK  7 active torsions:
REMARK  status: ('A' for Active; 'I' for Inactive)
REMARK    1  A    between atoms: C2_2  and  C3_3 
REMARK       I    between atoms: C3_3  and  N1_5 
REMARK    2  A    between atoms: N1_5  and  C4_7 
REMARK    3  A    between atoms: C4_7  and  C5_8 
REMARK    4  A    between atoms: C5_8  and  N2_9 
REMARK    5  A    between atoms: C8_15  and  C9_16 
REMARK    6  A    between atoms: C9_16  and  C10_17 
REMARK    7  A    between atoms: C18_25  and  C19_26 
ROOT
HETATM    1  C4  UNL     1      35.825  25.906   9.294  1.00  0.00     0.065 C 
HETATM    2  C16 UNL     1      37.123  25.179   9.651  1.00  0.00     0.037 C 
HETATM    3  C17 UNL     1      38.312  25.484   8.863  1.00  0.00     0.008 C 
HETATM    4  C18 UNL     1      38.421  26.757   8.127  1.00  0.00    -0.011 C 
HETATM    5  C22 UNL     1      37.235  27.657   8.215  1.00  0.00     0.008 C 
HETATM    6  C23 UNL     1      36.286  27.412   9.286  1.00  0.00     0.037 C 
ENDROOT
BRANCH   1   7
HETATM    7  N1  UNL     1      34.979  25.794  10.451  1.00  0.00    -0.347 N 
HETATM    8  C3  UNL     1      34.571  24.629  11.113  1.00  0.00     0.218 C 
HETATM    9  O1  UNL     1      34.931  23.478  10.758  1.00  0.00    -0.274 OA
ATOM     10  H1  UNL     1      34.634  26.671  10.839  1.00  0.00     0.163 HD
BRANCH   8  11
HETATM   11  C2  UNL     1      33.670  24.718  12.298  1.00  0.00     0.098 C 
HETATM   12  C1  UNL     1      32.294  24.319  11.872  1.00  0.00     0.014 C 
ENDBRANCH   8  11
ENDBRANCH   1   7
BRANCH   1  13
HETATM   13  C5  UNL     1      35.330  25.647   7.964  1.00  0.00     0.098 C 
BRANCH  13  14
HETATM   14  N2  UNL     1      35.555  24.500   7.164  1.00  0.00    -0.329 N 
HETATM   15  C6  UNL     1      36.312  24.528   5.929  1.00  0.00     0.174 C 
HETATM   16  S1  UNL     1      36.496  25.786   4.930  1.00  0.00    -0.041 SA
HETATM   17  N3  UNL     1      36.871  23.232   5.750  1.00  0.00    -0.365 N 
HETATM   18  C7  UNL     1      36.093  22.267   6.532  1.00  0.00     0.147 C 
ATOM     19  H3  UNL     1      37.681  23.010   5.172  1.00  0.00     0.161 HD
HETATM   20  C8  UNL     1      35.163  23.098   7.319  1.00  0.00     0.109 C 
BRANCH  20  21
HETATM   21  C9  UNL     1      33.707  22.903   7.094  1.00  0.00     0.032 C 
BRANCH  21  22
HETATM   22  C10 UNL     1      33.009  21.748   7.668  1.00  0.00    -0.013 C 
HETATM   23  C11 UNL     1      33.400  21.301   9.039  1.00  0.00     0.005 C 
HETATM   24  C12 UNL     1      32.245  20.497   9.688  1.00  0.00     0.000 C 
HETATM   25  C13 UNL     1      31.073  21.362  10.000  1.00  0.00     0.000 C 
HETATM   26  C14 UNL     1      31.055  22.524   9.038  1.00  0.00     0.000 C 
HETATM   27  C15 UNL     1      31.514  22.058   7.675  1.00  0.00     0.005 C 
ENDBRANCH  21  22
ENDBRANCH  20  21
ENDBRANCH  13  14
ENDBRANCH   1  13
BRANCH   4  28
HETATM   28  C19 UNL     1      39.711  27.523   8.371  1.00  0.00    -0.019 C 
HETATM   29  C20 UNL     1      40.604  27.542   7.173  1.00  0.00     0.010 C 
HETATM   30  C21 UNL     1      40.455  27.090   9.590  1.00  0.00     0.010 C 
ENDBRANCH   4  28
TORSDOF 7
ENDMDL
MODEL 5
REMARK VINA RESULT: -7.693342921      2.571      5.460
REMARK  7 active torsions:
REMARK  status: ('A' for Active; 'I' for Inactive)
REMARK    1  A    between atoms: C2_2  and  C3_3 
REMARK       I    between atoms: C3_3  and  N1_5 
REMARK    2  A    between atoms: N1_5  and  C4_7 
REMARK    3  A    between atoms: C4_7  and  C5_8 
REMARK    4  A    between atoms: C5_8  and  N2_9 
REMARK    5  A    between atoms: C8_15  and  C9_16 
REMARK    6  A    between atoms: C9_16  and  C10_17 
REMARK    7  A    between atoms: C18_25  and  C19_26 
ROOT
HETATM    1  C4  UNL     1      38.419  25.650   6.395  1.00  0.00     0.065 C 
HETATM    2  C16 UNL     1      38.318  27.142   6.713  1.00  0.00     0.037 C 
HETATM    3  C17 UNL     1      37.074  27.631   7.298  1.00  0.00     0.008 C 
HETATM    4  C18 UNL     1      36.171  26.716   8.020  1.00  0.00    -0.011 C 
HETATM    5  C22 UNL     1      36.600  25.287   8.061  1.00  0.00     0.008 C 
HETATM    6  C23 UNL     1      37.990  24.995   7.761  1.00  0.00     0.037 C 
ENDROOT
BRANCH   1   7
HETATM    7  N1  UNL     1      39.824  25.365   6.283  1.00  0.00    -0.347 N 
HETATM    8  C3  UNL     1      40.678  25.638   5.208  1.00  0.00     0.218 C 
HETATM    9  O1  UNL     1      40.295  26.212   4.157  1.00  0.00    -0.274 OA
ATOM     10  H1  UNL     1      40.252  24.906   7.088  1.00  0.00     0.163 HD
BRANCH   8  11
HETATM   11  C2  UNL     1      42.116  25.247   5.275  1.00  0.00     0.098 C 
HETATM   12  C1  UNL     1      42.569  24.890   3.897  1.00  0.00     0.014 C 
ENDBRANCH   8  11
ENDBRANCH   1   7
BRANCH   1  13
HETATM   13  C5  UNL     1      37.468  25.170   5.423  1.00  0.00     0.098 C 
BRANCH  13  14
HETATM   14  N2  UNL     1      37.332  23.852   4.920  1.00  0.00    -0.329 N 
HETATM   15  C6  UNL     1      37.729  23.466   3.581  1.00  0.00     0.174 C 
HETATM   16  S1  UNL     1      37.787  24.416   2.274  1.00  0.00    -0.041 SA
HETATM   17  N3  UNL     1      38.061  22.084   3.623  1.00  0.00    -0.365 N 
HETATM   18  C7  UNL     1      37.412  21.474   4.787  1.00  0.00     0.147 C 
ATOM     19  H3  UNL     1      38.655  21.596   2.953  1.00  0.00     0.161 HD
HETATM   20  C8  UNL     1      36.832  22.615   5.522  1.00  0.00     0.109 C 
BRANCH  20  21
HETATM   21  C9  UNL     1      35.357  22.643   5.697  1.00  0.00     0.032 C 
BRANCH  21  22
HETATM   22  C10 UNL     1      34.743  22.197   6.952  1.00  0.00    -0.013 C 
HETATM   23  C11 UNL     1      34.067  23.220   7.805  1.00  0.00     0.005 C 
HETATM   24  C12 UNL     1      33.031  22.539   8.736  1.00  0.00     0.000 C 
HETATM   25  C13 UNL     1      31.871  21.997   7.975  1.00  0.00     0.000 C 
HETATM   26  C14 UNL     1      32.322  21.659   6.576  1.00  0.00     0.000 C 
HETATM   27  C15 UNL     1      33.728  21.106   6.617  1.00  0.00     0.005 C 
ENDBRANCH  21  22
ENDBRANCH  20  21
ENDBRANCH  13  14
ENDBRANCH   1  13
BRANCH   4  28
HETATM   28  C19 UNL     1      35.743  27.200   9.394  1.00  0.00    -0.019 C 
HETATM   29  C20 UNL     1      35.137  26.114  10.223  1.00  0.00     0.010 C 
HETATM   30  C21 UNL     1      34.867  28.409   9.369  1.00  0.00     0.010 C 
ENDBRANCH   4  28
TORSDOF 7
ENDMDL
