MODEL 1
REMARK VINA RESULT: -6.430761236      0.000      0.000
REMARK  5 active torsions:
REMARK  status: ('A' for Active; 'I' for Inactive)
REMARK    1  A    between atoms: N1_2  and  C1_4 
REMARK    2  A    between atoms: C3_6  and  C4_7 
REMARK    3  A    between atoms: N2_8  and  C5_10 
REMARK    4  A    between atoms: C9_18  and  O3_19 
REMARK    5  A    between atoms: C10_21  and  N5_22 
ROOT
HETATM    1  C1  UNL     1      58.375  66.173  25.038  1.00  0.00     0.106 A 
HETATM    2  C2  UNL     1      58.061  67.491  24.755  1.00  0.00     0.052 A 
HETATM    3  C3  UNL     1      57.137  67.838  23.823  1.00  0.00     0.018 A 
HETATM    4  C9  UNL     1      56.473  66.817  23.117  1.00  0.00     0.110 A 
HETATM    5  C10 UNL     1      56.748  65.494  23.361  1.00  0.00     0.139 A 
HETATM    6  C11 UNL     1      57.715  65.189  24.338  1.00  0.00     0.075 A 
ENDROOT
BRANCH   3   7
HETATM    7  C4  UNL     1      56.819  69.239  23.538  1.00  0.00     0.120 C 
HETATM    8  N2  UNL     1      57.304  69.831  22.521  1.00  0.00    -0.201 N 
ATOM      9  H2  UNL     1      57.923  69.313  21.897  1.00  0.00     0.183 HD
BRANCH   8  10
HETATM   10  C5  UNL     1      57.012  71.181  22.228  1.00  0.00     0.673 C 
HETATM   11  N3  UNL     1      56.303  71.497  21.202  1.00  0.00    -0.226 N 
HETATM   12  C6  UNL     1      56.048  72.906  20.973  1.00  0.00     0.139 C 
ATOM     13  H3  UNL     1      55.935  70.784  20.573  1.00  0.00     0.177 HD
HETATM   14  C7  UNL     1      57.370  73.630  21.112  1.00  0.00     0.040 C 
HETATM   15  C8  UNL     1      57.948  73.454  22.478  1.00  0.00     0.139 C 
HETATM   16  N4  UNL     1      57.513  72.210  23.080  1.00  0.00    -0.226 N 
ATOM     17  H4  UNL     1      57.563  72.072  24.089  1.00  0.00     0.177 HD
ENDBRANCH   8  10
ENDBRANCH   3   7
BRANCH   4  18
HETATM   18  O3  UNL     1      55.560  67.265  22.194  1.00  0.00    -0.357 OA
ATOM     19  H3  UNL     1      54.970  66.596  21.869  1.00  0.00     0.217 HD
ENDBRANCH   4  18
BRANCH   1  20
HETATM   20  N1  UNL     1      59.351  65.922  26.022  1.00  0.00    -0.116 N 
HETATM   21  O1  UNL     1      60.303  66.684  26.207  1.00  0.00    -0.532 OA
HETATM   22  O2  UNL     1      59.238  64.800  26.796  1.00  0.00    -0.532 OA
ENDBRANCH   1  20
BRANCH   5  23
HETATM   23  N5  UNL     1      56.143  64.423  22.703  1.00  0.00    -0.113 N 
HETATM   24  O4  UNL     1      56.211  64.366  21.439  1.00  0.00    -0.532 OA
HETATM   25  O5  UNL     1      55.478  63.438  23.326  1.00  0.00    -0.532 OA
ENDBRANCH   5  23
TORSDOF 5
ENDMDL
MODEL 2
REMARK VINA RESULT: -6.426290985      3.007      6.261
REMARK  5 active torsions:
REMARK  status: ('A' for Active; 'I' for Inactive)
REMARK    1  A    between atoms: N1_2  and  C1_4 
REMARK    2  A    between atoms: C3_6  and  C4_7 
REMARK    3  A    between atoms: N2_8  and  C5_10 
REMARK    4  A    between atoms: C9_18  and  O3_19 
REMARK    5  A    between atoms: C10_21  and  N5_22 
ROOT
HETATM    1  C1  UNL     1      56.277  67.585  23.327  1.00  0.00     0.106 A 
HETATM    2  C2  UNL     1      57.332  67.585  24.223  1.00  0.00     0.052 A 
HETATM    3  C3  UNL     1      57.941  66.442  24.634  1.00  0.00     0.018 A 
HETATM    4  C9  UNL     1      57.480  65.212  24.129  1.00  0.00     0.110 A 
HETATM    5  C10 UNL     1      56.437  65.159  23.238  1.00  0.00     0.139 A 
HETATM    6  C11 UNL     1      55.842  66.372  22.845  1.00  0.00     0.075 A 
ENDROOT
BRANCH   3   7
HETATM    7  C4  UNL     1      59.056  66.464  25.583  1.00  0.00     0.120 C 
HETATM    8  N2  UNL     1      60.219  66.073  25.241  1.00  0.00    -0.201 N 
ATOM      9  H2  UNL     1      60.368  65.741  24.289  1.00  0.00     0.183 HD
BRANCH   8  10
HETATM   10  C5  UNL     1      61.308  66.084  26.140  1.00  0.00     0.673 C 
HETATM   11  N3  UNL     1      61.559  67.119  26.862  1.00  0.00    -0.226 N 
HETATM   12  C6  UNL     1      62.696  67.048  27.759  1.00  0.00     0.139 C 
ATOM     13  H3  UNL     1      60.981  67.957  26.805  1.00  0.00     0.177 HD
HETATM   14  C7  UNL     1      63.861  66.497  26.966  1.00  0.00     0.040 C 
HETATM   15  C8  UNL     1      63.567  65.129  26.443  1.00  0.00     0.139 C 
HETATM   16  N4  UNL     1      62.145  64.934  26.246  1.00  0.00    -0.226 N 
ATOM     17  H4  UNL     1      61.750  63.995  26.185  1.00  0.00     0.177 HD
ENDBRANCH   8  10
ENDBRANCH   3   7
BRANCH   4  18
HETATM   18  O3  UNL     1      58.154  64.114  24.605  1.00  0.00    -0.357 OA
ATOM     19  H3  UNL     1      57.613  63.343  24.728  1.00  0.00     0.217 HD
ENDBRANCH   4  18
BRANCH   1  20
HETATM   20  N1  UNL     1      55.715  68.825  22.969  1.00  0.00    -0.116 N 
HETATM   21  O1  UNL     1      55.518  69.138  21.792  1.00  0.00    -0.532 OA
HETATM   22  O2  UNL     1      55.374  69.708  23.957  1.00  0.00    -0.532 OA
ENDBRANCH   1  20
BRANCH   5  23
HETATM   23  N5  UNL     1      55.915  63.984  22.696  1.00  0.00    -0.113 N 
HETATM   24  O4  UNL     1      55.342  63.158  23.468  1.00  0.00    -0.532 OA
HETATM   25  O5  UNL     1      55.985  63.661  21.396  1.00  0.00    -0.532 OA
ENDBRANCH   5  23
TORSDOF 5
ENDMDL
MODEL 3
REMARK VINA RESULT: -6.370216408      4.145      8.340
REMARK  5 active torsions:
REMARK  status: ('A' for Active; 'I' for Inactive)
REMARK    1  A    between atoms: N1_2  and  C1_4 
REMARK    2  A    between atoms: C3_6  and  C4_7 
REMARK    3  A    between atoms: N2_8  and  C5_10 
REMARK    4  A    between atoms: C9_18  and  O3_19 
REMARK    5  A    between atoms: C10_21  and  N5_22 
ROOT
HETATM    1  C1  UNL     1      56.493  73.269  19.311  1.00  0.00     0.106 A 
HETATM    2  C2  UNL     1      55.990  72.130  19.917  1.00  0.00     0.052 A 
HETATM    3  C3  UNL     1      56.470  71.658  21.097  1.00  0.00     0.018 A 
HETATM    4  C9  UNL     1      57.518  72.354  21.727  1.00  0.00     0.110 A 
HETATM    5  C10 UNL     1      58.051  73.489  21.167  1.00  0.00     0.139 A 
HETATM    6  C11 UNL     1      57.518  73.935  19.943  1.00  0.00     0.075 A 
ENDROOT
BRANCH   3   7
HETATM    7  C4  UNL     1      55.923  70.452  21.721  1.00  0.00     0.120 C 
HETATM    8  N2  UNL     1      56.674  69.467  22.020  1.00  0.00    -0.201 N 
ATOM      9  H2  UNL     1      57.671  69.528  21.818  1.00  0.00     0.183 HD
BRANCH   8  10
HETATM   10  C5  UNL     1      56.168  68.294  22.622  1.00  0.00     0.673 C 
HETATM   11  N3  UNL     1      55.966  68.236  23.891  1.00  0.00    -0.226 N 
HETATM   12  C6  UNL     1      55.444  66.995  24.429  1.00  0.00     0.139 C 
ATOM     13  H3  UNL     1      56.166  69.033  24.496  1.00  0.00     0.177 HD
HETATM   14  C7  UNL     1      56.264  65.869  23.838  1.00  0.00     0.040 C 
HETATM   15  C8  UNL     1      56.156  65.838  22.349  1.00  0.00     0.139 C 
HETATM   16  N4  UNL     1      55.880  67.156  21.812  1.00  0.00    -0.226 N 
ATOM     17  H4  UNL     1      55.489  67.267  20.877  1.00  0.00     0.177 HD
ENDBRANCH   8  10
ENDBRANCH   3   7
BRANCH   4  18
HETATM   18  O3  UNL     1      57.937  71.800  22.911  1.00  0.00    -0.357 OA
ATOM     19  H3  UNL     1      57.824  70.859  22.967  1.00  0.00     0.217 HD
ENDBRANCH   4  18
BRANCH   1  20
HETATM   20  N1  UNL     1      55.927  73.671  18.086  1.00  0.00    -0.116 N 
HETATM   21  O1  UNL     1      56.443  73.386  17.003  1.00  0.00    -0.532 OA
HETATM   22  O2  UNL     1      54.768  74.397  18.099  1.00  0.00    -0.532 OA
ENDBRANCH   1  20
BRANCH   5  23
HETATM   23  N5  UNL     1      59.094  74.233  21.720  1.00  0.00    -0.113 N 
HETATM   24  O4  UNL     1      58.872  75.431  22.068  1.00  0.00    -0.532 OA
HETATM   25  O5  UNL     1      60.335  73.761  21.906  1.00  0.00    -0.532 OA
ENDBRANCH   5  23
TORSDOF 5
ENDMDL
MODEL 4
REMARK VINA RESULT: -6.278932819      1.189      3.402
REMARK  5 active torsions:
REMARK  status: ('A' for Active; 'I' for Inactive)
REMARK    1  A    between atoms: N1_2  and  C1_4 
REMARK    2  A    between atoms: C3_6  and  C4_7 
REMARK    3  A    between atoms: N2_8  and  C5_10 
REMARK    4  A    between atoms: C9_18  and  O3_19 
REMARK    5  A    between atoms: C10_21  and  N5_22 
ROOT
HETATM    1  C1  UNL     1      56.578  64.954  22.342  1.00  0.00     0.106 A 
HETATM    2  C2  UNL     1      56.270  66.280  22.085  1.00  0.00     0.052 A 
HETATM    3  C3  UNL     1      56.648  67.290  22.910  1.00  0.00     0.018 A 
HETATM    4  C9  UNL     1      57.381  66.977  24.070  1.00  0.00     0.110 A 
HETATM    5  C10 UNL     1      57.712  65.678  24.369  1.00  0.00     0.139 A 
HETATM    6  C11 UNL     1      57.295  64.669  23.481  1.00  0.00     0.075 A 
ENDROOT
BRANCH   3   7
HETATM    7  C4  UNL     1      56.313  68.686  22.620  1.00  0.00     0.120 C 
HETATM    8  N2  UNL     1      57.219  69.576  22.535  1.00  0.00    -0.201 N 
ATOM      9  H2  UNL     1      58.193  69.305  22.672  1.00  0.00     0.183 HD
BRANCH   8  10
HETATM   10  C5  UNL     1      56.918  70.928  22.257  1.00  0.00     0.673 C 
HETATM   11  N3  UNL     1      56.234  71.253  21.217  1.00  0.00    -0.226 N 
HETATM   12  C6  UNL     1      55.968  72.663  21.006  1.00  0.00     0.139 C 
ATOM     13  H3  UNL     1      55.892  70.546  20.567  1.00  0.00     0.177 HD
HETATM   14  C7  UNL     1      57.277  73.399  21.193  1.00  0.00     0.040 C 
HETATM   15  C8  UNL     1      57.820  73.208  22.571  1.00  0.00     0.139 C 
HETATM   16  N4  UNL     1      57.383  71.948  23.140  1.00  0.00    -0.226 N 
ATOM     17  H4  UNL     1      57.407  71.794  24.148  1.00  0.00     0.177 HD
ENDBRANCH   8  10
ENDBRANCH   3   7
BRANCH   4  18
HETATM   18  O3  UNL     1      57.715  68.062  24.842  1.00  0.00    -0.357 OA
ATOM     19  H3  UNL     1      58.635  68.295  24.816  1.00  0.00     0.217 HD
ENDBRANCH   4  18
BRANCH   1  20
HETATM   20  N1  UNL     1      56.135  63.983  21.423  1.00  0.00    -0.116 N 
HETATM   21  O1  UNL     1      56.398  64.053  20.220  1.00  0.00    -0.532 OA
HETATM   22  O2  UNL     1      55.392  62.929  21.880  1.00  0.00    -0.532 OA
ENDBRANCH   1  20
BRANCH   5  23
HETATM   23  N5  UNL     1      58.427  65.281  25.499  1.00  0.00    -0.113 N 
HETATM   24  O4  UNL     1      59.227  66.105  26.036  1.00  0.00    -0.532 OA
HETATM   25  O5  UNL     1      58.331  64.067  26.060  1.00  0.00    -0.532 OA
ENDBRANCH   5  23
TORSDOF 5
ENDMDL
MODEL 5
REMARK VINA RESULT: -6.193790874      4.081      8.353
REMARK  5 active torsions:
REMARK  status: ('A' for Active; 'I' for Inactive)
REMARK    1  A    between atoms: N1_2  and  C1_4 
REMARK    2  A    between atoms: C3_6  and  C4_7 
REMARK    3  A    between atoms: N2_8  and  C5_10 
REMARK    4  A    between atoms: C9_18  and  O3_19 
REMARK    5  A    between atoms: C10_21  and  N5_22 
ROOT
HETATM    1  C1  UNL     1      55.794  73.494  20.006  1.00  0.00     0.106 A 
HETATM    2  C2  UNL     1      55.514  72.270  20.590  1.00  0.00     0.052 A 
HETATM    3  C3  UNL     1      56.330  71.697  21.512  1.00  0.00     0.018 A 
HETATM    4  C9  UNL     1      57.505  72.374  21.888  1.00  0.00     0.110 A 
HETATM    5  C10 UNL     1      57.828  73.591  21.338  1.00  0.00     0.139 A 
HETATM    6  C11 UNL     1      56.947  74.140  20.387  1.00  0.00     0.075 A 
ENDROOT
BRANCH   3   7
HETATM    7  C4  UNL     1      56.016  70.402  22.118  1.00  0.00     0.120 C 
HETATM    8  N2  UNL     1      56.898  69.489  22.215  1.00  0.00    -0.201 N 
ATOM      9  H2  UNL     1      57.837  69.670  21.863  1.00  0.00     0.183 HD
BRANCH   8  10
HETATM   10  C5  UNL     1      56.616  68.232  22.795  1.00  0.00     0.673 C 
HETATM   11  N3  UNL     1      57.116  67.903  23.934  1.00  0.00    -0.226 N 
HETATM   12  C6  UNL     1      56.776  66.595  24.460  1.00  0.00     0.139 C 
ATOM     13  H3  UNL     1      57.728  68.537  24.447  1.00  0.00     0.177 HD
HETATM   14  C7  UNL     1      56.969  65.596  23.339  1.00  0.00     0.040 C 
HETATM   15  C8  UNL     1      56.080  65.900  22.177  1.00  0.00     0.139 C 
HETATM   16  N4  UNL     1      55.769  67.314  22.108  1.00  0.00    -0.226 N 
ATOM     17  H4  UNL     1      54.962  67.645  21.578  1.00  0.00     0.177 HD
ENDBRANCH   8  10
ENDBRANCH   3   7
BRANCH   4  18
HETATM   18  O3  UNL     1      58.267  71.716  22.822  1.00  0.00    -0.357 OA
ATOM     19  H3  UNL     1      58.661  70.910  22.510  1.00  0.00     0.217 HD
ENDBRANCH   4  18
BRANCH   1  20
HETATM   20  N1  UNL     1      54.883  73.998  19.058  1.00  0.00    -0.116 N 
HETATM   21  O1  UNL     1      53.772  74.425  19.382  1.00  0.00    -0.532 OA
HETATM   22  O2  UNL     1      55.242  74.016  17.739  1.00  0.00    -0.532 OA
ENDBRANCH   1  20
BRANCH   5  23
HETATM   23  N5  UNL     1      58.974  74.323  21.649  1.00  0.00    -0.113 N 
HETATM   24  O4  UNL     1      58.843  75.512  22.070  1.00  0.00    -0.532 OA
HETATM   25  O5  UNL     1      60.223  73.851  21.523  1.00  0.00    -0.532 OA
ENDBRANCH   5  23
TORSDOF 5
ENDMDL
