MODEL 1
REMARK VINA RESULT: -6.407141383      0.000      0.000
REMARK  4 active torsions:
REMARK  status: ('A' for Active; 'I' for Inactive)
REMARK    1  A    between atoms: C2_2  and  O1_3 
REMARK    2  A    between atoms: O1_3  and  C3_4 
REMARK    3  A    between atoms: C3_4  and  C4_6 
REMARK    4  A    between atoms: C7_14  and  C8_15 
ROOT
HETATM    1  C4  UNL     1      56.414  72.514  21.350  1.00  0.00     0.153 A 
HETATM    2  N1  UNL     1      55.524  71.684  21.837  1.00  0.00    -0.339 N 
ATOM      3  H1  UNL     1      54.532  71.905  21.753  1.00  0.00     0.167 HD
HETATM    4  C5  UNL     1      55.887  70.584  22.427  1.00  0.00     0.136 A 
HETATM    5  C6  UNL     1      55.044  69.608  22.994  1.00  0.00     0.276 A 
HETATM    6  O3  UNL     1      53.792  69.730  22.972  1.00  0.00    -0.266 OA
HETATM    7  N2  UNL     1      55.556  68.525  23.570  1.00  0.00    -0.304 N 
ATOM      8  H2  UNL     1      54.915  67.840  23.969  1.00  0.00     0.171 HD
HETATM    9  C7  UNL     1      56.900  68.285  23.652  1.00  0.00     0.155 A 
HETATM   10  N6  UNL     1      57.710  69.213  23.113  1.00  0.00    -0.332 N 
ATOM     11  H6  UNL     1      58.719  69.070  23.155  1.00  0.00     0.168 HD
HETATM   12  C10 UNL     1      57.233  70.329  22.519  1.00  0.00     0.110 A 
HETATM   13  S1  UNL     1      57.884  71.706  21.739  1.00  0.00    -0.046 SA
ENDROOT
BRANCH   9  14
HETATM   14  C8  UNL     1      57.419  67.085  24.292  1.00  0.00     0.169 A 
HETATM   15  N3  UNL     1      58.612  66.892  24.852  1.00  0.00    -0.289 N 
HETATM   16  C9  UNL     1      58.693  65.622  25.336  1.00  0.00     0.340 A 
ATOM     17  H3  UNL     1      59.353  67.591  24.910  1.00  0.00     0.172 HD
HETATM   18  O4  UNL     1      59.640  65.057  25.926  1.00  0.00    -0.245 OA
HETATM   19  N4  UNL     1      57.519  65.056  25.052  1.00  0.00    -0.250 N 
HETATM   20  N5  UNL     1      56.740  65.944  24.415  1.00  0.00    -0.278 N 
ATOM     21  H4  UNL     1      57.256  64.098  25.282  1.00  0.00     0.192 HD
ATOM     22  H5  UNL     1      55.790  65.775  24.082  1.00  0.00     0.189 HD
ENDBRANCH   9  14
BRANCH   1  23
HETATM   23  C3  UNL     1      56.242  73.802  20.649  1.00  0.00     0.317 C 
HETATM   24  O2  UNL     1      55.362  74.582  21.081  1.00  0.00    -0.257 OA
BRANCH  23  25
HETATM   25  O1  UNL     1      56.992  74.171  19.566  1.00  0.00    -0.316 OA
BRANCH  25  26
HETATM   26  C2  UNL     1      57.075  73.452  18.359  1.00  0.00     0.175 C 
HETATM   27  C1  UNL     1      55.697  73.453  17.726  1.00  0.00     0.034 C 
ENDBRANCH  25  26
ENDBRANCH  23  25
ENDBRANCH   1  23
TORSDOF 4
ENDMDL
MODEL 2
REMARK VINA RESULT: -6.238237499      0.783      1.240
REMARK  4 active torsions:
REMARK  status: ('A' for Active; 'I' for Inactive)
REMARK    1  A    between atoms: C2_2  and  O1_3 
REMARK    2  A    between atoms: O1_3  and  C3_4 
REMARK    3  A    between atoms: C3_4  and  C4_6 
REMARK    4  A    between atoms: C7_14  and  C8_15 
ROOT
HETATM    1  C4  UNL     1      56.485  72.553  21.291  1.00  0.00     0.153 A 
HETATM    2  N1  UNL     1      55.580  71.770  21.826  1.00  0.00    -0.339 N 
ATOM      3  H1  UNL     1      54.596  72.035  21.780  1.00  0.00     0.167 HD
HETATM    4  C5  UNL     1      55.917  70.660  22.413  1.00  0.00     0.136 A 
HETATM    5  C6  UNL     1      55.056  69.730  23.027  1.00  0.00     0.276 A 
HETATM    6  O3  UNL     1      53.810  69.908  23.056  1.00  0.00    -0.266 OA
HETATM    7  N2  UNL     1      55.543  68.631  23.594  1.00  0.00    -0.304 N 
ATOM      8  H2  UNL     1      54.889  67.979  24.028  1.00  0.00     0.171 HD
HETATM    9  C7  UNL     1      56.876  68.330  23.623  1.00  0.00     0.155 A 
HETATM   10  N6  UNL     1      57.704  69.216  23.040  1.00  0.00    -0.332 N 
ATOM     11  H6  UNL     1      58.707  69.028  23.041  1.00  0.00     0.168 HD
HETATM   12  C10 UNL     1      57.252  70.345  22.452  1.00  0.00     0.110 A 
HETATM   13  S1  UNL     1      57.932  71.684  21.629  1.00  0.00    -0.046 SA
ENDROOT
BRANCH   9  14
HETATM   14  C8  UNL     1      57.367  67.115  24.255  1.00  0.00     0.169 A 
HETATM   15  N3  UNL     1      58.532  66.911  24.871  1.00  0.00    -0.289 N 
HETATM   16  C9  UNL     1      58.593  65.628  25.323  1.00  0.00     0.340 A 
ATOM     17  H3  UNL     1      59.265  67.610  24.985  1.00  0.00     0.172 HD
HETATM   18  O4  UNL     1      59.511  65.049  25.945  1.00  0.00    -0.245 OA
HETATM   19  N4  UNL     1      57.438  65.066  24.964  1.00  0.00    -0.250 N 
HETATM   20  N5  UNL     1      56.687  65.970  24.313  1.00  0.00    -0.278 N 
ATOM     21  H4  UNL     1      57.167  64.102  25.155  1.00  0.00     0.192 HD
ATOM     22  H5  UNL     1      55.757  65.807  23.927  1.00  0.00     0.189 HD
ENDBRANCH   9  14
BRANCH   1  23
HETATM   23  C3  UNL     1      56.341  73.840  20.582  1.00  0.00     0.317 C 
HETATM   24  O2  UNL     1      57.226  74.143  19.748  1.00  0.00    -0.257 OA
BRANCH  23  25
HETATM   25  O1  UNL     1      55.300  74.700  20.796  1.00  0.00    -0.316 OA
BRANCH  25  26
HETATM   26  C2  UNL     1      53.957  74.439  20.466  1.00  0.00     0.175 C 
HETATM   27  C1  UNL     1      53.784  74.712  18.985  1.00  0.00     0.034 C 
ENDBRANCH  25  26
ENDBRANCH  23  25
ENDBRANCH   1  23
TORSDOF 4
ENDMDL
MODEL 3
REMARK VINA RESULT: -5.606916331      2.715      7.925
REMARK  4 active torsions:
REMARK  status: ('A' for Active; 'I' for Inactive)
REMARK    1  A    between atoms: C2_2  and  O1_3 
REMARK    2  A    between atoms: O1_3  and  C3_4 
REMARK    3  A    between atoms: C3_4  and  C4_6 
REMARK    4  A    between atoms: C7_14  and  C8_15 
ROOT
HETATM    1  C4  UNL     1      56.935  68.605  23.510  1.00  0.00     0.153 A 
HETATM    2  N1  UNL     1      57.631  69.688  23.260  1.00  0.00    -0.339 N 
ATOM      3  H1  UNL     1      58.586  69.763  23.611  1.00  0.00     0.167 HD
HETATM    4  C5  UNL     1      57.121  70.667  22.574  1.00  0.00     0.136 A 
HETATM    5  C6  UNL     1      57.750  71.881  22.235  1.00  0.00     0.276 A 
HETATM    6  O3  UNL     1      58.932  72.131  22.590  1.00  0.00    -0.266 OA
HETATM    7  N2  UNL     1      57.105  72.800  21.523  1.00  0.00    -0.304 N 
ATOM      8  H2  UNL     1      57.592  73.667  21.296  1.00  0.00     0.171 HD
HETATM    9  C7  UNL     1      55.821  72.641  21.082  1.00  0.00     0.155 A 
HETATM   10  N6  UNL     1      55.215  71.484  21.403  1.00  0.00    -0.332 N 
ATOM     11  H6  UNL     1      54.256  71.326  21.092  1.00  0.00     0.168 HD
HETATM   12  C10 UNL     1      55.833  70.522  22.124  1.00  0.00     0.110 A 
HETATM   13  S1  UNL     1      55.445  68.969  22.728  1.00  0.00    -0.046 SA
ENDROOT
BRANCH   9  14
HETATM   14  C8  UNL     1      55.151  73.673  20.305  1.00  0.00     0.169 A 
HETATM   15  N3  UNL     1      54.978  73.739  18.985  1.00  0.00    -0.289 N 
HETATM   16  C9  UNL     1      54.297  74.874  18.667  1.00  0.00     0.340 A 
ATOM     17  H3  UNL     1      55.307  73.044  18.315  1.00  0.00     0.172 HD
HETATM   18  O4  UNL     1      53.940  75.298  17.546  1.00  0.00    -0.245 OA
HETATM   19  N4  UNL     1      54.065  75.489  19.828  1.00  0.00    -0.250 N 
HETATM   20  N5  UNL     1      54.584  74.760  20.829  1.00  0.00    -0.278 N 
ATOM     21  H4  UNL     1      53.570  76.374  19.938  1.00  0.00     0.192 HD
ATOM     22  H5  UNL     1      54.551  74.997  21.821  1.00  0.00     0.189 HD
ENDBRANCH   9  14
BRANCH   1  23
HETATM   23  C3  UNL     1      57.297  67.383  24.254  1.00  0.00     0.317 C 
HETATM   24  O2  UNL     1      58.394  67.379  24.861  1.00  0.00    -0.257 OA
BRANCH  23  25
HETATM   25  O1  UNL     1      56.498  66.274  24.306  1.00  0.00    -0.316 OA
BRANCH  25  26
HETATM   26  C2  UNL     1      56.715  65.088  23.580  1.00  0.00     0.175 C 
HETATM   27  C1  UNL     1      56.176  65.300  22.179  1.00  0.00     0.034 C 
ENDBRANCH  25  26
ENDBRANCH  23  25
ENDBRANCH   1  23
TORSDOF 4
ENDMDL
MODEL 4
REMARK VINA RESULT: -5.573725179      4.370      7.147
REMARK  4 active torsions:
REMARK  status: ('A' for Active; 'I' for Inactive)
REMARK    1  A    between atoms: C2_2  and  O1_3 
REMARK    2  A    between atoms: O1_3  and  C3_4 
REMARK    3  A    between atoms: C3_4  and  C4_6 
REMARK    4  A    between atoms: C7_14  and  C8_15 
ROOT
HETATM    1  C4  UNL     1      57.603  65.846  23.609  1.00  0.00     0.153 A 
HETATM    2  N1  UNL     1      58.652  65.061  23.595  1.00  0.00    -0.339 N 
ATOM      3  H1  UNL     1      58.686  64.280  22.940  1.00  0.00     0.167 HD
HETATM    4  C5  UNL     1      59.650  65.262  24.404  1.00  0.00     0.136 A 
HETATM    5  C6  UNL     1      60.832  64.502  24.498  1.00  0.00     0.276 A 
HETATM    6  O3  UNL     1      61.031  63.504  23.757  1.00  0.00    -0.266 OA
HETATM    7  N2  UNL     1      61.774  64.824  25.378  1.00  0.00    -0.304 N 
ATOM      8  H2  UNL     1      62.617  64.251  25.417  1.00  0.00     0.171 HD
HETATM    9  C7  UNL     1      61.669  65.885  26.233  1.00  0.00     0.155 A 
HETATM   10  N6  UNL     1      60.543  66.615  26.149  1.00  0.00    -0.332 N 
ATOM     11  H6  UNL     1      60.426  67.416  26.771  1.00  0.00     0.168 HD
HETATM   12  C10 UNL     1      59.559  66.323  25.270  1.00  0.00     0.110 A 
HETATM   13  S1  UNL     1      58.028  66.963  24.850  1.00  0.00    -0.046 SA
ENDROOT
BRANCH   9  14
HETATM   14  C8  UNL     1      62.726  66.203  27.182  1.00  0.00     0.169 A 
HETATM   15  N3  UNL     1      63.253  65.427  28.129  1.00  0.00    -0.289 N 
HETATM   16  C9  UNL     1      64.220  66.112  28.798  1.00  0.00     0.340 A 
ATOM     17  H3  UNL     1      62.975  64.465  28.322  1.00  0.00     0.172 HD
HETATM   18  O4  UNL     1      64.944  65.740  29.748  1.00  0.00    -0.245 OA
HETATM   19  N4  UNL     1      64.261  67.319  28.232  1.00  0.00    -0.250 N 
HETATM   20  N5  UNL     1      63.351  67.379  27.247  1.00  0.00    -0.278 N 
ATOM     21  H4  UNL     1      64.885  68.078  28.505  1.00  0.00     0.192 HD
ATOM     22  H5  UNL     1      63.169  68.186  26.649  1.00  0.00     0.189 HD
ENDBRANCH   9  14
BRANCH   1  23
HETATM   23  C3  UNL     1      56.371  65.815  22.797  1.00  0.00     0.317 C 
HETATM   24  O2  UNL     1      55.805  64.708  22.647  1.00  0.00    -0.257 OA
BRANCH  23  25
HETATM   25  O1  UNL     1      55.832  66.928  22.211  1.00  0.00    -0.316 OA
BRANCH  25  26
HETATM   26  C2  UNL     1      55.438  68.091  22.898  1.00  0.00     0.175 C 
HETATM   27  C1  UNL     1      55.590  69.262  21.948  1.00  0.00     0.034 C 
ENDBRANCH  25  26
ENDBRANCH  23  25
ENDBRANCH   1  23
TORSDOF 4
ENDMDL
MODEL 5
REMARK VINA RESULT: -5.549459934      4.708      7.558
REMARK  4 active torsions:
REMARK  status: ('A' for Active; 'I' for Inactive)
REMARK    1  A    between atoms: C2_2  and  O1_3 
REMARK    2  A    between atoms: O1_3  and  C3_4 
REMARK    3  A    between atoms: C3_4  and  C4_6 
REMARK    4  A    between atoms: C7_14  and  C8_15 
ROOT
HETATM    1  C4  UNL     1      57.434  65.579  24.554  1.00  0.00     0.153 A 
HETATM    2  N1  UNL     1      58.070  64.633  25.201  1.00  0.00    -0.339 N 
ATOM      3  H1  UNL     1      57.705  63.680  25.186  1.00  0.00     0.167 HD
HETATM    4  C5  UNL     1      59.160  64.890  25.863  1.00  0.00     0.136 A 
HETATM    5  C6  UNL     1      59.940  63.977  26.598  1.00  0.00     0.276 A 
HETATM    6  O3  UNL     1      59.626  62.760  26.679  1.00  0.00    -0.266 OA
HETATM    7  N2  UNL     1      61.037  64.382  27.230  1.00  0.00    -0.304 N 
ATOM      8  H2  UNL     1      61.577  63.692  27.753  1.00  0.00     0.171 HD
HETATM    9  C7  UNL     1      61.476  65.676  27.214  1.00  0.00     0.155 A 
HETATM   10  N6  UNL     1      60.735  66.553  26.514  1.00  0.00    -0.332 N 
ATOM     11  H6  UNL     1      61.029  67.529  26.478  1.00  0.00     0.168 HD
HETATM   12  C10 UNL     1      59.613  66.185  25.857  1.00  0.00     0.110 A 
HETATM   13  S1  UNL     1      58.426  66.947  24.887  1.00  0.00    -0.046 SA
ENDROOT
BRANCH   9  14
HETATM   14  C8  UNL     1      62.683  66.077  27.921  1.00  0.00     0.169 A 
HETATM   15  N3  UNL     1      63.147  67.307  28.142  1.00  0.00    -0.289 N 
HETATM   16  C9  UNL     1      64.311  67.240  28.844  1.00  0.00     0.340 A 
ATOM     17  H3  UNL     1      62.696  68.168  27.833  1.00  0.00     0.172 HD
HETATM   18  O4  UNL     1      65.050  68.166  29.245  1.00  0.00    -0.245 OA
HETATM   19  N4  UNL     1      64.537  65.940  29.039  1.00  0.00    -0.250 N 
HETATM   20  N5  UNL     1      63.547  65.227  28.477  1.00  0.00    -0.278 N 
ATOM     21  H4  UNL     1      65.336  65.549  29.537  1.00  0.00     0.192 HD
ATOM     22  H5  UNL     1      63.469  64.210  28.476  1.00  0.00     0.189 HD
ENDBRANCH   9  14
BRANCH   1  23
HETATM   23  C3  UNL     1      56.200  65.525  23.747  1.00  0.00     0.317 C 
HETATM   24  O2  UNL     1      55.765  64.394  23.429  1.00  0.00    -0.257 OA
BRANCH  23  25
HETATM   25  O1  UNL     1      55.523  66.642  23.338  1.00  0.00    -0.316 OA
BRANCH  25  26
HETATM   26  C2  UNL     1      55.896  67.460  22.255  1.00  0.00     0.175 C 
HETATM   27  C1  UNL     1      55.524  68.887  22.606  1.00  0.00     0.034 C 
ENDBRANCH  25  26
ENDBRANCH  23  25
ENDBRANCH   1  23
TORSDOF 4
ENDMDL
