MODEL 1
REMARK VINA RESULT: -4.585379706      0.000      0.000
REMARK  6 active torsions:
REMARK  status: ('A' for Active; 'I' for Inactive)
REMARK    1  A    between atoms: O1_2  and  N1_3 
REMARK    2  A    between atoms: N1_3  and  C2_5 
REMARK    3  A    between atoms: C4_9  and  N3_10 
REMARK    4  A    between atoms: C5_15  and  N5_16 
REMARK    5  A    between atoms: N5_16  and  O2_18 
REMARK    6  A    between atoms: C7_22  and  N7_23 
ROOT
HETATM    1  C2  UNL     1      56.112  37.173  22.100  1.00  0.00     0.705 A 
HETATM    2  N2  UNL     1      57.058  36.988  23.064  1.00  0.00    -0.184 N 
ATOM      3  H2  UNL     1      56.962  36.388  23.883  1.00  0.00     0.184 HD
HETATM    4  C3  UNL     1      58.126  37.719  22.761  1.00  0.00     0.124 A 
HETATM    5  C4  UNL     1      59.293  37.771  23.531  1.00  0.00     0.144 C 
HETATM    6  N4  UNL     1      60.377  38.523  23.280  1.00  0.00    -0.173 N 
ATOM      7  H4  UNL     1      60.960  38.758  24.083  1.00  0.00     0.186 HD
HETATM    8  C5  UNL     1      60.781  39.001  22.087  1.00  0.00     0.707 C 
HETATM    9  N6  UNL     1      60.017  39.254  20.982  1.00  0.00    -0.173 N 
ATOM     10  H6  UNL     1      60.526  39.466  20.124  1.00  0.00     0.186 HD
HETATM   11  C7  UNL     1      58.675  39.257  20.891  1.00  0.00     0.144 C 
HETATM   12  C8  UNL     1      57.849  38.379  21.581  1.00  0.00     0.126 A 
HETATM   13  N8  UNL     1      56.592  38.026  21.186  1.00  0.00    -0.180 N 
HETATM   14  C9  UNL     1      55.967  38.522  19.982  1.00  0.00     0.176 C 
ENDROOT
BRANCH   1  15
HETATM   15  N1  UNL     1      54.974  36.564  22.174  1.00  0.00    -0.096 N 
ATOM     16  H1  UNL     1      54.271  36.804  21.475  1.00  0.00     0.213 HD
BRANCH  15  17
HETATM   17  O1  UNL     1      54.645  35.661  23.075  1.00  0.00    -0.272 OA
HETATM   18  C1  UNL     1      55.242  34.410  23.265  1.00  0.00     0.238 C 
ENDBRANCH  15  17
ENDBRANCH   1  15
BRANCH   5  19
HETATM   19  N3  UNL     1      59.306  37.014  24.576  1.00  0.00    -0.383 N 
ATOM     20  H32 UNL     1      60.021  36.289  24.635  1.00  0.00     0.157 HD
ATOM     21  H31 UNL     1      58.584  37.208  25.269  1.00  0.00     0.157 HD
ENDBRANCH   5  19
BRANCH  11  22
HETATM   22  N7  UNL     1      58.086  40.103  20.141  1.00  0.00    -0.383 N 
ATOM     23  H72 UNL     1      57.620  40.874  20.620  1.00  0.00     0.157 HD
ATOM     24  H71 UNL     1      58.103  39.990  19.128  1.00  0.00     0.157 HD
ENDBRANCH  11  22
BRANCH   8  25
HETATM   25  N5  UNL     1      62.160  39.267  22.002  1.00  0.00    -0.095 N 
HETATM   26  C6  UNL     1      63.040  38.322  21.374  1.00  0.00     0.205 C 
BRANCH  25  27
HETATM   27  O2  UNL     1      62.662  40.400  22.508  1.00  0.00    -0.274 OA
ATOM     28  H2  UNL     1      63.601  40.538  22.534  1.00  0.00     0.245 HD
ENDBRANCH  25  27
ENDBRANCH   8  25
TORSDOF 6
ENDMDL
MODEL 2
REMARK VINA RESULT: -3.618509433      2.004      3.488
REMARK  6 active torsions:
REMARK  status: ('A' for Active; 'I' for Inactive)
REMARK    1  A    between atoms: O1_2  and  N1_3 
REMARK    2  A    between atoms: N1_3  and  C2_5 
REMARK    3  A    between atoms: C4_9  and  N3_10 
REMARK    4  A    between atoms: C5_15  and  N5_16 
REMARK    5  A    between atoms: N5_16  and  O2_18 
REMARK    6  A    between atoms: C7_22  and  N7_23 
ROOT
HETATM    1  C2  UNL     1      54.992  38.984  21.539  1.00  0.00     0.705 A 
HETATM    2  N2  UNL     1      55.901  39.837  20.986  1.00  0.00    -0.184 N 
ATOM      3  H2  UNL     1      55.679  40.710  20.506  1.00  0.00     0.184 HD
HETATM    4  C3  UNL     1      57.121  39.345  21.175  1.00  0.00     0.124 A 
HETATM    5  C4  UNL     1      58.299  39.962  20.738  1.00  0.00     0.144 C 
HETATM    6  N4  UNL     1      59.544  39.480  20.875  1.00  0.00    -0.173 N 
ATOM      7  H4  UNL     1      60.234  39.811  20.201  1.00  0.00     0.186 HD
HETATM    8  C5  UNL     1      59.986  38.609  21.803  1.00  0.00     0.707 C 
HETATM    9  N6  UNL     1      59.261  37.676  22.491  1.00  0.00    -0.173 N 
ATOM     10  H6  UNL     1      59.741  37.216  23.264  1.00  0.00     0.186 HD
HETATM   11  C7  UNL     1      57.990  37.294  22.271  1.00  0.00     0.144 C 
HETATM   12  C8  UNL     1      56.981  38.156  21.861  1.00  0.00     0.126 A 
HETATM   13  N8  UNL     1      55.650  37.949  22.078  1.00  0.00    -0.180 N 
HETATM   14  C9  UNL     1      55.127  36.799  22.779  1.00  0.00     0.176 C 
ENDROOT
BRANCH   1  15
HETATM   15  N1  UNL     1      53.729  39.246  21.483  1.00  0.00    -0.096 N 
ATOM     16  H1  UNL     1      53.085  38.483  21.693  1.00  0.00     0.213 HD
BRANCH  15  17
HETATM   17  O1  UNL     1      53.201  40.414  21.178  1.00  0.00    -0.272 OA
HETATM   18  C1  UNL     1      52.915  40.895  19.894  1.00  0.00     0.238 C 
ENDBRANCH  15  17
ENDBRANCH   1  15
BRANCH   5  19
HETATM   19  N3  UNL     1      58.148  41.101  20.152  1.00  0.00    -0.383 N 
ATOM     20  H32 UNL     1      57.384  41.200  19.484  1.00  0.00     0.157 HD
ATOM     21  H31 UNL     1      58.820  41.822  20.411  1.00  0.00     0.157 HD
ENDBRANCH   5  19
BRANCH  11  22
HETATM   22  N7  UNL     1      57.651  36.075  22.431  1.00  0.00    -0.383 N 
ATOM     23  H72 UNL     1      58.353  35.470  22.857  1.00  0.00     0.157 HD
ATOM     24  H71 UNL     1      56.725  35.759  22.145  1.00  0.00     0.157 HD
ENDBRANCH  11  22
BRANCH   8  25
HETATM   25  N5  UNL     1      61.365  38.690  22.070  1.00  0.00    -0.095 N 
HETATM   26  C6  UNL     1      62.262  37.700  21.544  1.00  0.00     0.205 C 
BRANCH  25  27
HETATM   27  O2  UNL     1      61.850  39.689  22.818  1.00  0.00    -0.274 OA
ATOM     28  H2  UNL     1      61.387  40.516  22.872  1.00  0.00     0.245 HD
ENDBRANCH  25  27
ENDBRANCH   8  25
TORSDOF 6
ENDMDL
MODEL 3
REMARK VINA RESULT: -3.545532023      3.039      6.219
REMARK  6 active torsions:
REMARK  status: ('A' for Active; 'I' for Inactive)
REMARK    1  A    between atoms: O1_2  and  N1_3 
REMARK    2  A    between atoms: N1_3  and  C2_5 
REMARK    3  A    between atoms: C4_9  and  N3_10 
REMARK    4  A    between atoms: C5_15  and  N5_16 
REMARK    5  A    between atoms: N5_16  and  O2_18 
REMARK    6  A    between atoms: C7_22  and  N7_23 
ROOT
HETATM    1  C2  UNL     1      63.488  36.457  20.352  1.00  0.00     0.705 A 
HETATM    2  N2  UNL     1      62.193  36.201  20.010  1.00  0.00    -0.184 N 
ATOM      3  H2  UNL     1      61.878  35.447  19.400  1.00  0.00     0.184 HD
HETATM    4  C3  UNL     1      61.409  37.097  20.604  1.00  0.00     0.124 A 
HETATM    5  C4  UNL     1      60.016  37.135  20.477  1.00  0.00     0.144 C 
HETATM    6  N4  UNL     1      59.194  38.043  21.027  1.00  0.00    -0.173 N 
ATOM      7  H4  UNL     1      58.299  38.185  20.559  1.00  0.00     0.186 HD
HETATM    8  C5  UNL     1      59.418  38.786  22.128  1.00  0.00     0.707 C 
HETATM    9  N6  UNL     1      60.621  39.157  22.661  1.00  0.00    -0.173 N 
ATOM     10  H6  UNL     1      60.590  39.588  23.584  1.00  0.00     0.186 HD
HETATM   11  C7  UNL     1      61.842  39.020  22.112  1.00  0.00     0.144 C 
HETATM   12  C8  UNL     1      62.226  37.935  21.334  1.00  0.00     0.126 A 
HETATM   13  N8  UNL     1      63.515  37.521  21.166  1.00  0.00    -0.180 N 
HETATM   14  C9  UNL     1      64.646  38.164  21.792  1.00  0.00     0.176 C 
ENDROOT
BRANCH   1  15
HETATM   15  N1  UNL     1      64.444  35.717  19.896  1.00  0.00    -0.096 N 
ATOM     16  H1  UNL     1      65.228  35.531  20.521  1.00  0.00     0.213 HD
BRANCH  15  17
HETATM   17  O1  UNL     1      64.492  35.182  18.692  1.00  0.00    -0.272 OA
HETATM   18  C1  UNL     1      63.839  35.644  17.544  1.00  0.00     0.238 C 
ENDBRANCH  15  17
ENDBRANCH   1  15
BRANCH   5  19
HETATM   19  N3  UNL     1      59.495  36.198  19.760  1.00  0.00    -0.383 N 
ATOM     20  H32 UNL     1      59.326  35.293  20.200  1.00  0.00     0.157 HD
ATOM     21  H31 UNL     1      59.293  36.444  18.791  1.00  0.00     0.157 HD
ENDBRANCH   5  19
BRANCH  11  22
HETATM   22  N7  UNL     1      62.727  39.921  22.288  1.00  0.00    -0.383 N 
ATOM     23  H72 UNL     1      63.448  39.983  21.569  1.00  0.00     0.157 HD
ATOM     24  H71 UNL     1      62.685  40.528  23.105  1.00  0.00     0.157 HD
ENDBRANCH  11  22
BRANCH   8  25
HETATM   25  N5  UNL     1      58.252  39.223  22.784  1.00  0.00    -0.095 N 
HETATM   26  C6  UNL     1      57.412  38.280  23.467  1.00  0.00     0.205 C 
BRANCH  25  27
HETATM   27  O2  UNL     1      57.917  40.519  22.775  1.00  0.00    -0.274 OA
ATOM     28  H2  UNL     1      57.505  40.912  23.535  1.00  0.00     0.245 HD
ENDBRANCH  25  27
ENDBRANCH   8  25
TORSDOF 6
ENDMDL
MODEL 4
REMARK VINA RESULT: -3.150281433      2.317      5.830
REMARK  6 active torsions:
REMARK  status: ('A' for Active; 'I' for Inactive)
REMARK    1  A    between atoms: O1_2  and  N1_3 
REMARK    2  A    between atoms: N1_3  and  C2_5 
REMARK    3  A    between atoms: C4_9  and  N3_10 
REMARK    4  A    between atoms: C5_15  and  N5_16 
REMARK    5  A    between atoms: N5_16  and  O2_18 
REMARK    6  A    between atoms: C7_22  and  N7_23 
ROOT
HETATM    1  C2  UNL     1      59.350  37.944  22.433  1.00  0.00     0.705 A 
HETATM    2  N2  UNL     1      59.197  39.150  21.816  1.00  0.00    -0.184 N 
ATOM      3  H2  UNL     1      59.921  39.862  21.716  1.00  0.00     0.184 HD
HETATM    4  C3  UNL     1      57.949  39.246  21.366  1.00  0.00     0.124 A 
HETATM    5  C4  UNL     1      57.440  40.352  20.678  1.00  0.00     0.144 C 
HETATM    6  N4  UNL     1      56.179  40.503  20.241  1.00  0.00    -0.173 N 
ATOM      7  H4  UNL     1      55.855  41.462  20.118  1.00  0.00     0.186 HD
HETATM    8  C5  UNL     1      55.294  39.530  19.947  1.00  0.00     0.707 C 
HETATM    9  N6  UNL     1      55.258  38.253  20.433  1.00  0.00    -0.173 N 
ATOM     10  H6  UNL     1      54.607  37.617  19.975  1.00  0.00     0.186 HD
HETATM   11  C7  UNL     1      55.980  37.735  21.443  1.00  0.00     0.144 C 
HETATM   12  C8  UNL     1      57.301  38.076  21.707  1.00  0.00     0.126 A 
HETATM   13  N8  UNL     1      58.188  37.280  22.369  1.00  0.00    -0.180 N 
HETATM   14  C9  UNL     1      57.859  35.967  22.873  1.00  0.00     0.176 C 
ENDROOT
BRANCH   1  15
HETATM   15  N1  UNL     1      60.484  37.616  22.957  1.00  0.00    -0.096 N 
ATOM     16  H1  UNL     1      60.462  36.988  23.761  1.00  0.00     0.213 HD
BRANCH  15  17
HETATM   17  O1  UNL     1      61.667  38.023  22.542  1.00  0.00    -0.272 OA
HETATM   18  C1  UNL     1      62.322  37.636  21.368  1.00  0.00     0.238 C 
ENDBRANCH  15  17
ENDBRANCH   1  15
BRANCH   5  19
HETATM   19  N3  UNL     1      58.280  41.304  20.451  1.00  0.00    -0.383 N 
ATOM     20  H32 UNL     1      58.699  41.365  19.523  1.00  0.00     0.157 HD
ATOM     21  H31 UNL     1      58.461  41.929  21.237  1.00  0.00     0.157 HD
ENDBRANCH   5  19
BRANCH  11  22
HETATM   22  N7  UNL     1      55.457  36.882  22.233  1.00  0.00    -0.383 N 
ATOM     23  H72 UNL     1      54.735  36.286  21.829  1.00  0.00     0.157 HD
ATOM     24  H71 UNL     1      55.768  36.823  23.202  1.00  0.00     0.157 HD
ENDBRANCH  11  22
BRANCH   8  25
HETATM   25  N5  UNL     1      54.297  39.907  19.029  1.00  0.00    -0.095 N 
HETATM   26  C6  UNL     1      53.046  40.433  19.498  1.00  0.00     0.205 C 
BRANCH  25  27
HETATM   27  O2  UNL     1      54.505  39.776  17.713  1.00  0.00    -0.274 OA
ATOM     28  H2  UNL     1      53.804  39.481  17.145  1.00  0.00     0.245 HD
ENDBRANCH  25  27
ENDBRANCH   8  25
TORSDOF 6
ENDMDL
MODEL 5
REMARK VINA RESULT: -3.001384289      3.343      6.707
REMARK  6 active torsions:
REMARK  status: ('A' for Active; 'I' for Inactive)
REMARK    1  A    between atoms: O1_2  and  N1_3 
REMARK    2  A    between atoms: N1_3  and  C2_5 
REMARK    3  A    between atoms: C4_9  and  N3_10 
REMARK    4  A    between atoms: C5_15  and  N5_16 
REMARK    5  A    between atoms: N5_16  and  O2_18 
REMARK    6  A    between atoms: C7_22  and  N7_23 
ROOT
HETATM    1  C2  UNL     1      57.790  38.173  21.047  1.00  0.00     0.705 A 
HETATM    2  N2  UNL     1      57.602  38.327  19.706  1.00  0.00    -0.184 N 
ATOM      3  H2  UNL     1      58.237  38.004  18.976  1.00  0.00     0.184 HD
HETATM    4  C3  UNL     1      56.455  38.970  19.506  1.00  0.00     0.124 A 
HETATM    5  C4  UNL     1      55.943  39.300  18.246  1.00  0.00     0.144 C 
HETATM    6  N4  UNL     1      54.811  39.979  18.003  1.00  0.00    -0.173 N 
ATOM      7  H4  UNL     1      54.761  40.471  17.111  1.00  0.00     0.186 HD
HETATM    8  C5  UNL     1      53.733  40.084  18.804  1.00  0.00     0.707 C 
HETATM    9  N6  UNL     1      53.683  39.958  20.164  1.00  0.00    -0.173 N 
ATOM     10  H6  UNL     1      52.751  39.916  20.577  1.00  0.00     0.186 HD
HETATM   11  C7  UNL     1      54.715  39.882  21.024  1.00  0.00     0.144 C 
HETATM   12  C8  UNL     1      55.909  39.227  20.747  1.00  0.00     0.126 A 
HETATM   13  N8  UNL     1      56.753  38.723  21.692  1.00  0.00    -0.180 N 
HETATM   14  C9  UNL     1      56.498  38.803  23.111  1.00  0.00     0.176 C 
ENDROOT
BRANCH   1  15
HETATM   15  N1  UNL     1      58.843  37.574  21.496  1.00  0.00    -0.096 N 
ATOM     16  H1  UNL     1      58.707  36.879  22.231  1.00  0.00     0.213 HD
BRANCH  15  17
HETATM   17  O1  UNL     1      60.078  37.782  21.086  1.00  0.00    -0.272 OA
HETATM   18  C1  UNL     1      61.060  38.539  21.735  1.00  0.00     0.238 C 
ENDBRANCH  15  17
ENDBRANCH   1  15
BRANCH   5  19
HETATM   19  N3  UNL     1      56.642  38.900  17.238  1.00  0.00    -0.383 N 
ATOM     20  H32 UNL     1      56.683  37.899  17.048  1.00  0.00     0.157 HD
ATOM     21  H31 UNL     1      57.105  39.635  16.704  1.00  0.00     0.157 HD
ENDBRANCH   5  19
BRANCH  11  22
HETATM   22  N7  UNL     1      54.637  40.436  22.169  1.00  0.00    -0.383 N 
ATOM     23  H72 UNL     1      54.739  41.450  22.182  1.00  0.00     0.157 HD
ATOM     24  H71 UNL     1      54.477  39.870  23.002  1.00  0.00     0.157 HD
ENDBRANCH  11  22
BRANCH   8  25
HETATM   25  N5  UNL     1      52.530  40.363  18.130  1.00  0.00    -0.095 N 
HETATM   26  C6  UNL     1      51.958  41.678  18.188  1.00  0.00     0.205 C 
BRANCH  25  27
HETATM   27  O2  UNL     1      51.909  39.404  17.432  1.00  0.00    -0.274 OA
ATOM     28  H2  UNL     1      51.402  38.737  17.880  1.00  0.00     0.245 HD
ENDBRANCH  25  27
ENDBRANCH   8  25
TORSDOF 6
ENDMDL
