MODEL 1
REMARK VINA RESULT: -6.242316327      0.000      0.000
REMARK  5 active torsions:
REMARK  status: ('A' for Active; 'I' for Inactive)
REMARK    1  A    between atoms: O1_2  and  C2_3 
REMARK    2  A    between atoms: C3_6  and  S1_7 
REMARK    3  A    between atoms: C6_12  and  N3_13 
REMARK    4  A    between atoms: N3_13  and  N4_15 
REMARK    5  A    between atoms: C7_18  and  N5_19 
ROOT
HETATM    1  C2  UNL     1      58.438  37.629  21.912  1.00  0.00     0.236 A 
HETATM    2  N1  UNL     1      57.782  36.713  22.639  1.00  0.00    -0.313 N 
ATOM      3  H1  UNL     1      58.230  35.955  23.155  1.00  0.00     0.170 HD
HETATM    4  C3  UNL     1      56.463  36.926  22.598  1.00  0.00     0.118 A 
HETATM    5  C5  UNL     1      56.272  38.034  21.804  1.00  0.00     0.155 A 
HETATM    6  N2  UNL     1      55.031  38.543  21.538  1.00  0.00    -0.322 N 
ATOM      7  H2  UNL     1      54.244  38.112  22.023  1.00  0.00     0.169 HD
HETATM    8  C6  UNL     1      54.748  39.551  20.705  1.00  0.00     0.166 C 
HETATM    9  C7  UNL     1      55.590  40.187  19.828  1.00  0.00     0.149 C 
HETATM   10  N6  UNL     1      56.940  40.241  19.828  1.00  0.00    -0.291 N 
ATOM     11  H6  UNL     1      57.374  40.900  19.183  1.00  0.00     0.172 HD
HETATM   12  C8  UNL     1      57.765  39.510  20.594  1.00  0.00     0.337 C 
HETATM   13  O2  UNL     1      58.979  39.837  20.587  1.00  0.00    -0.246 OA
HETATM   14  N7  UNL     1      57.492  38.460  21.386  1.00  0.00    -0.210 N 
ENDROOT
BRANCH   8  15
HETATM   15  N3  UNL     1      53.542  39.957  20.743  1.00  0.00    -0.289 N 
ATOM     16  H3  UNL     1      52.853  39.402  20.235  1.00  0.00     0.188 HD
BRANCH  15  17
HETATM   17  N4  UNL     1      53.072  41.085  21.412  1.00  0.00    -0.344 N 
ATOM     18  H42 UNL     1      53.668  41.435  22.163  1.00  0.00     0.176 HD
ATOM     19  H41 UNL     1      52.202  41.583  21.221  1.00  0.00     0.176 HD
ENDBRANCH  15  17
ENDBRANCH   8  15
BRANCH   9  20
HETATM   20  N5  UNL     1      54.992  40.813  18.884  1.00  0.00    -0.382 N 
ATOM     21  H52 UNL     1      54.003  41.016  19.026  1.00  0.00     0.157 HD
ATOM     22  H51 UNL     1      55.587  41.038  18.086  1.00  0.00     0.157 HD
ENDBRANCH   9  20
BRANCH   4  23
HETATM   23  S1  UNL     1      55.155  36.000  23.389  1.00  0.00    -0.113 SA
HETATM   24  C4  UNL     1      55.456  34.214  23.307  1.00  0.00     0.097 C 
ENDBRANCH   4  23
BRANCH   1  25
HETATM   25  O1  UNL     1      59.794  37.796  21.673  1.00  0.00    -0.326 OA
HETATM   26  C1  UNL     1      60.737  38.077  22.658  1.00  0.00     0.213 C 
ENDBRANCH   1  25
TORSDOF 5
ENDMDL
MODEL 2
REMARK VINA RESULT: -3.982659457      2.187      4.626
REMARK  5 active torsions:
REMARK  status: ('A' for Active; 'I' for Inactive)
REMARK    1  A    between atoms: O1_2  and  C2_3 
REMARK    2  A    between atoms: C3_6  and  S1_7 
REMARK    3  A    between atoms: C6_12  and  N3_13 
REMARK    4  A    between atoms: N3_13  and  N4_15 
REMARK    5  A    between atoms: C7_18  and  N5_19 
ROOT
HETATM    1  C2  UNL     1      55.616  38.635  21.049  1.00  0.00     0.236 A 
HETATM    2  N1  UNL     1      55.254  37.576  21.787  1.00  0.00    -0.313 N 
ATOM      3  H1  UNL     1      54.292  37.262  21.914  1.00  0.00     0.170 HD
HETATM    4  C3  UNL     1      56.322  36.986  22.334  1.00  0.00     0.118 A 
HETATM    5  C5  UNL     1      57.418  37.709  21.922  1.00  0.00     0.155 A 
HETATM    6  N2  UNL     1      58.694  37.387  22.296  1.00  0.00    -0.322 N 
ATOM      7  H2  UNL     1      58.812  36.530  22.836  1.00  0.00     0.169 HD
HETATM    8  C6  UNL     1      59.802  38.086  22.024  1.00  0.00     0.166 C 
HETATM    9  C7  UNL     1      59.900  39.333  21.460  1.00  0.00     0.149 C 
HETATM   10  N6  UNL     1      58.996  40.005  20.713  1.00  0.00    -0.291 N 
ATOM     11  H6  UNL     1      59.321  40.854  20.251  1.00  0.00     0.172 HD
HETATM   12  C8  UNL     1      57.712  39.664  20.521  1.00  0.00     0.337 C 
HETATM   13  O2  UNL     1      57.082  40.307  19.643  1.00  0.00    -0.246 OA
HETATM   14  N7  UNL     1      56.976  38.722  21.133  1.00  0.00    -0.210 N 
ENDROOT
BRANCH   8  15
HETATM   15  N3  UNL     1      60.892  37.507  22.334  1.00  0.00    -0.289 N 
ATOM     16  H3  UNL     1      60.941  37.086  23.262  1.00  0.00     0.188 HD
BRANCH  15  17
HETATM   17  N4  UNL     1      62.024  37.393  21.531  1.00  0.00    -0.344 N 
ATOM     18  H42 UNL     1      61.871  36.990  20.606  1.00  0.00     0.176 HD
ATOM     19  H41 UNL     1      62.974  37.671  21.780  1.00  0.00     0.176 HD
ENDBRANCH  15  17
ENDBRANCH   8  15
BRANCH   9  20
HETATM   20  N5  UNL     1      61.012  39.927  21.683  1.00  0.00    -0.382 N 
ATOM     21  H52 UNL     1      61.055  40.919  21.450  1.00  0.00     0.157 HD
ATOM     22  H51 UNL     1      61.737  39.326  22.077  1.00  0.00     0.157 HD
ENDBRANCH   9  20
BRANCH   4  23
HETATM   23  S1  UNL     1      56.386  35.549  23.394  1.00  0.00    -0.113 SA
HETATM   24  C4  UNL     1      55.926  34.039  22.504  1.00  0.00     0.097 C 
ENDBRANCH   4  23
BRANCH   1  25
HETATM   25  O1  UNL     1      54.856  39.530  20.311  1.00  0.00    -0.326 OA
HETATM   26  C1  UNL     1      53.826  40.305  20.836  1.00  0.00     0.213 C 
ENDBRANCH   1  25
TORSDOF 5
ENDMDL
MODEL 3
REMARK VINA RESULT: -3.282696313      2.504      4.385
REMARK  5 active torsions:
REMARK  status: ('A' for Active; 'I' for Inactive)
REMARK    1  A    between atoms: O1_2  and  C2_3 
REMARK    2  A    between atoms: C3_6  and  S1_7 
REMARK    3  A    between atoms: C6_12  and  N3_13 
REMARK    4  A    between atoms: N3_13  and  N4_15 
REMARK    5  A    between atoms: C7_18  and  N5_19 
ROOT
HETATM    1  C2  UNL     1      59.002  39.430  21.425  1.00  0.00     0.236 A 
HETATM    2  N1  UNL     1      58.358  39.912  20.352  1.00  0.00    -0.313 N 
ATOM      3  H1  UNL     1      58.694  40.683  19.774  1.00  0.00     0.170 HD
HETATM    4  C3  UNL     1      57.217  39.248  20.141  1.00  0.00     0.118 A 
HETATM    5  C5  UNL     1      57.133  38.296  21.131  1.00  0.00     0.155 A 
HETATM    6  N2  UNL     1      56.082  37.425  21.226  1.00  0.00    -0.322 N 
ATOM      7  H2  UNL     1      55.392  37.455  20.476  1.00  0.00     0.169 HD
HETATM    8  C6  UNL     1      55.872  36.538  22.205  1.00  0.00     0.166 C 
HETATM    9  C7  UNL     1      56.554  36.405  23.389  1.00  0.00     0.149 C 
HETATM   10  N6  UNL     1      57.789  36.843  23.715  1.00  0.00    -0.291 N 
ATOM     11  H6  UNL     1      58.181  36.503  24.593  1.00  0.00     0.172 HD
HETATM   12  C8  UNL     1      58.552  37.682  22.997  1.00  0.00     0.337 C 
HETATM   13  O2  UNL     1      59.744  37.822  23.370  1.00  0.00    -0.246 OA
HETATM   14  N7  UNL     1      58.234  38.415  21.917  1.00  0.00    -0.210 N 
ENDROOT
BRANCH   8  15
HETATM   15  N3  UNL     1      54.916  35.724  21.996  1.00  0.00    -0.289 N 
ATOM     16  H3  UNL     1      53.978  36.121  21.939  1.00  0.00     0.188 HD
BRANCH  15  17
HETATM   17  N4  UNL     1      55.026  34.344  21.839  1.00  0.00    -0.344 N 
ATOM     18  H42 UNL     1      55.115  33.806  22.701  1.00  0.00     0.176 HD
ATOM     19  H41 UNL     1      55.025  33.834  20.956  1.00  0.00     0.176 HD
ENDBRANCH  15  17
ENDBRANCH   8  15
BRANCH   9  20
HETATM   20  N5  UNL     1      55.911  35.773  24.299  1.00  0.00    -0.382 N 
ATOM     21  H52 UNL     1      54.918  35.615  24.129  1.00  0.00     0.157 HD
ATOM     22  H51 UNL     1      56.479  35.498  25.100  1.00  0.00     0.157 HD
ENDBRANCH   9  20
BRANCH   4  23
HETATM   23  S1  UNL     1      56.002  39.493  18.854  1.00  0.00    -0.113 SA
HETATM   24  C4  UNL     1      54.512  40.310  19.487  1.00  0.00     0.097 C 
ENDBRANCH   4  23
BRANCH   1  25
HETATM   25  O1  UNL     1      60.204  39.806  22.007  1.00  0.00    -0.326 OA
HETATM   26  C1  UNL     1      61.448  39.310  21.630  1.00  0.00     0.213 C 
ENDBRANCH   1  25
TORSDOF 5
ENDMDL
MODEL 4
REMARK VINA RESULT: -2.828087573      2.460      3.909
REMARK  5 active torsions:
REMARK  status: ('A' for Active; 'I' for Inactive)
REMARK    1  A    between atoms: O1_2  and  C2_3 
REMARK    2  A    between atoms: C3_6  and  S1_7 
REMARK    3  A    between atoms: C6_12  and  N3_13 
REMARK    4  A    between atoms: N3_13  and  N4_15 
REMARK    5  A    between atoms: C7_18  and  N5_19 
ROOT
HETATM    1  C2  UNL     1      56.916  36.869  23.176  1.00  0.00     0.236 A 
HETATM    2  N1  UNL     1      58.238  36.813  22.959  1.00  0.00    -0.313 N 
ATOM      3  H1  UNL     1      58.901  36.313  23.552  1.00  0.00     0.170 HD
HETATM    4  C3  UNL     1      58.572  37.499  21.861  1.00  0.00     0.118 A 
HETATM    5  C5  UNL     1      57.401  38.018  21.357  1.00  0.00     0.155 A 
HETATM    6  N2  UNL     1      57.365  38.786  20.225  1.00  0.00    -0.322 N 
ATOM      7  H2  UNL     1      58.242  38.894  19.715  1.00  0.00     0.169 HD
HETATM    8  C6  UNL     1      56.293  39.407  19.721  1.00  0.00     0.166 C 
HETATM    9  C7  UNL     1      55.051  39.548  20.286  1.00  0.00     0.149 C 
HETATM   10  N6  UNL     1      54.475  38.822  21.270  1.00  0.00    -0.291 N 
ATOM     11  H6  UNL     1      53.482  38.983  21.439  1.00  0.00     0.172 HD
HETATM   12  C8  UNL     1      55.081  37.910  22.046  1.00  0.00     0.337 C 
HETATM   13  O2  UNL     1      54.338  37.205  22.774  1.00  0.00    -0.246 OA
HETATM   14  N7  UNL     1      56.388  37.627  22.171  1.00  0.00    -0.210 N 
ENDROOT
BRANCH   8  15
HETATM   15  N3  UNL     1      56.465  39.927  18.572  1.00  0.00    -0.289 N 
ATOM     16  H3  UNL     1      56.673  40.926  18.545  1.00  0.00     0.188 HD
BRANCH  15  17
HETATM   17  N4  UNL     1      56.395  39.266  17.347  1.00  0.00    -0.344 N 
ATOM     18  H42 UNL     1      56.821  38.340  17.320  1.00  0.00     0.176 HD
ATOM     19  H41 UNL     1      55.964  39.620  16.492  1.00  0.00     0.176 HD
ENDBRANCH  15  17
ENDBRANCH   8  15
BRANCH   9  20
HETATM   20  N5  UNL     1      54.356  40.507  19.801  1.00  0.00    -0.382 N 
ATOM     21  H52 UNL     1      53.493  40.740  20.292  1.00  0.00     0.157 HD
ATOM     22  H51 UNL     1      54.755  40.934  18.964  1.00  0.00     0.157 HD
ENDBRANCH   9  20
BRANCH   4  23
HETATM   23  S1  UNL     1      60.189  37.737  21.139  1.00  0.00    -0.113 SA
HETATM   24  C4  UNL     1      61.248  38.766  22.192  1.00  0.00     0.097 C 
ENDBRANCH   4  23
BRANCH   1  25
HETATM   25  O1  UNL     1      56.137  36.313  24.180  1.00  0.00    -0.326 OA
HETATM   26  C1  UNL     1      55.594  35.032  24.134  1.00  0.00     0.213 C 
ENDBRANCH   1  25
TORSDOF 5
ENDMDL
MODEL 5
REMARK VINA RESULT: -2.488846629      2.826      5.381
REMARK  5 active torsions:
REMARK  status: ('A' for Active; 'I' for Inactive)
REMARK    1  A    between atoms: O1_2  and  C2_3 
REMARK    2  A    between atoms: C3_6  and  S1_7 
REMARK    3  A    between atoms: C6_12  and  N3_13 
REMARK    4  A    between atoms: N3_13  and  N4_15 
REMARK    5  A    between atoms: C7_18  and  N5_19 
ROOT
HETATM    1  C2  UNL     1      55.817  37.484  22.064  1.00  0.00     0.236 A 
HETATM    2  N1  UNL     1      55.357  38.155  20.999  1.00  0.00    -0.313 N 
ATOM      3  H1  UNL     1      54.393  38.121  20.666  1.00  0.00     0.170 HD
HETATM    4  C3  UNL     1      56.329  38.876  20.431  1.00  0.00     0.118 A 
HETATM    5  C5  UNL     1      57.465  38.649  21.175  1.00  0.00     0.155 A 
HETATM    6  N2  UNL     1      58.667  39.231  20.877  1.00  0.00    -0.322 N 
ATOM      7  H2  UNL     1      58.672  39.914  20.119  1.00  0.00     0.169 HD
HETATM    8  C6  UNL     1      59.836  38.993  21.483  1.00  0.00     0.166 C 
HETATM    9  C7  UNL     1      60.129  38.025  22.410  1.00  0.00     0.149 C 
HETATM   10  N6  UNL     1      59.292  37.331  23.211  1.00  0.00    -0.291 N 
ATOM     11  H6  UNL     1      59.719  36.769  23.947  1.00  0.00     0.172 HD
HETATM   12  C8  UNL     1      57.951  37.307  23.133  1.00  0.00     0.337 C 
HETATM   13  O2  UNL     1      57.340  36.755  24.082  1.00  0.00    -0.246 OA
HETATM   14  N7  UNL     1      57.142  37.792  22.176  1.00  0.00    -0.210 N 
ENDROOT
BRANCH   8  15
HETATM   15  N3  UNL     1      60.784  39.772  21.145  1.00  0.00    -0.289 N 
ATOM     16  H3  UNL     1      60.678  40.269  20.260  1.00  0.00     0.188 HD
BRANCH  15  17
HETATM   17  N4  UNL     1      61.952  40.013  21.864  1.00  0.00    -0.344 N 
ATOM     18  H42 UNL     1      62.297  39.231  22.422  1.00  0.00     0.176 HD
ATOM     19  H41 UNL     1      62.483  40.884  21.883  1.00  0.00     0.176 HD
ENDBRANCH  15  17
ENDBRANCH   8  15
BRANCH   9  20
HETATM   20  N5  UNL     1      61.376  37.757  22.515  1.00  0.00    -0.382 N 
ATOM     21  H52 UNL     1      62.024  38.531  22.363  1.00  0.00     0.157 HD
ATOM     22  H51 UNL     1      61.579  36.784  22.744  1.00  0.00     0.157 HD
ENDBRANCH   9  20
BRANCH   4  23
HETATM   23  S1  UNL     1      56.243  39.939  18.997  1.00  0.00    -0.113 SA
HETATM   24  C4  UNL     1      54.539  40.131  18.408  1.00  0.00     0.097 C 
ENDBRANCH   4  23
BRANCH   1  25
HETATM   25  O1  UNL     1      55.173  36.625  22.943  1.00  0.00    -0.326 OA
HETATM   26  C1  UNL     1      54.958  35.271  22.703  1.00  0.00     0.213 C 
ENDBRANCH   1  25
TORSDOF 5
ENDMDL
