MODEL 1
REMARK VINA RESULT: -6.582561883      0.000      0.000
REMARK  5 active torsions:
REMARK  status: ('A' for Active; 'I' for Inactive)
REMARK    1  A    between atoms: O1_2  and  C2_3 
REMARK    2  A    between atoms: C3_4  and  O2_5 
REMARK    3  A    between atoms: C5_7  and  O3_8 
REMARK    4  A    between atoms: C5_7  and  O4_10 
REMARK    5  A    between atoms: C6_12  and  O5_13 
ROOT
HETATM    1  C2  UNL     1      54.683  39.930  20.734  1.00  0.00     0.114 C 
HETATM    2  C3  UNL     1      54.910  39.980  19.435  1.00  0.00     0.145 C 
HETATM    3  C5  UNL     1      56.287  39.399  19.203  1.00  0.00     0.268 C 
HETATM    4  C6  UNL     1      56.448  38.457  20.349  1.00  0.00     0.232 C 
HETATM    5  N1  UNL     1      57.846  38.305  20.743  1.00  0.00    -0.339 N 
ATOM      6  H1  UNL     1      58.531  37.925  20.089  1.00  0.00     0.164 HD
HETATM    7  C8  UNL     1      58.234  38.694  22.051  1.00  0.00     0.097 C 
HETATM    8  N2  UNL     1      59.099  37.991  22.742  1.00  0.00    -0.387 N 
ATOM      9  H21 UNL     1      59.378  38.272  23.682  1.00  0.00     0.157 HD
ATOM     10  H22 UNL     1      59.486  37.151  22.311  1.00  0.00     0.157 HD
HETATM   11  C9  UNL     1      57.665  39.933  22.686  1.00  0.00     0.244 C 
HETATM   12  O6  UNL     1      56.682  40.379  21.787  1.00  0.00    -0.367 OA
HETATM   13  C10 UNL     1      55.836  39.338  21.481  1.00  0.00     0.242 C 
ENDROOT
BRANCH   3  14
HETATM   14  O3  UNL     1      56.354  38.751  18.002  1.00  0.00    -0.356 OA
ATOM     15  H3  UNL     1      57.249  38.703  17.687  1.00  0.00     0.213 HD
ENDBRANCH   3  14
BRANCH   3  16
HETATM   16  O4  UNL     1      57.185  40.472  19.270  1.00  0.00    -0.356 OA
ATOM     17  H4  UNL     1      58.054  40.099  19.186  1.00  0.00     0.213 HD
ENDBRANCH   3  16
BRANCH   2  18
HETATM   18  O2  UNL     1      54.010  40.483  18.514  1.00  0.00    -0.352 OA
HETATM   19  C4  UNL     1      52.823  39.827  18.134  1.00  0.00     0.210 C 
ENDBRANCH   2  18
BRANCH   4  20
HETATM   20  O5  UNL     1      55.744  37.320  20.380  1.00  0.00    -0.358 OA
HETATM   21  C7  UNL     1      55.669  36.519  21.451  1.00  0.00     0.205 C 
ENDBRANCH   4  20
BRANCH   1  22
HETATM   22  O1  UNL     1      53.491  40.387  21.329  1.00  0.00    -0.355 OA
HETATM   23  C1  UNL     1      53.064  41.708  21.073  1.00  0.00     0.209 C 
ENDBRANCH   1  22
TORSDOF 5
ENDMDL
MODEL 2
REMARK VINA RESULT: -4.990249577      2.113      4.725
REMARK  5 active torsions:
REMARK  status: ('A' for Active; 'I' for Inactive)
REMARK    1  A    between atoms: O1_2  and  C2_3 
REMARK    2  A    between atoms: C3_4  and  O2_5 
REMARK    3  A    between atoms: C5_7  and  O3_8 
REMARK    4  A    between atoms: C5_7  and  O4_10 
REMARK    5  A    between atoms: C6_12  and  O5_13 
ROOT
HETATM    1  C2  UNL     1      56.747  37.722  21.574  1.00  0.00     0.114 C 
HETATM    2  C3  UNL     1      57.658  38.549  22.048  1.00  0.00     0.145 C 
HETATM    3  C5  UNL     1      57.491  39.861  21.314  1.00  0.00     0.268 C 
HETATM    4  C6  UNL     1      56.045  39.854  20.946  1.00  0.00     0.232 C 
HETATM    5  N1  UNL     1      55.786  40.598  19.716  1.00  0.00    -0.339 N 
ATOM      6  H1  UNL     1      55.990  41.596  19.661  1.00  0.00     0.164 HD
HETATM    7  C8  UNL     1      55.247  39.908  18.600  1.00  0.00     0.097 C 
HETATM    8  N2  UNL     1      54.338  40.459  17.833  1.00  0.00    -0.387 N 
ATOM      9  H21 UNL     1      53.951  39.964  17.030  1.00  0.00     0.157 HD
ATOM     10  H22 UNL     1      54.026  41.403  18.064  1.00  0.00     0.157 HD
HETATM   11  C9  UNL     1      55.708  38.517  18.259  1.00  0.00     0.244 C 
HETATM   12  O6  UNL     1      56.552  38.148  19.319  1.00  0.00    -0.367 OA
HETATM   13  C10 UNL     1      55.907  38.362  20.514  1.00  0.00     0.242 C 
ENDROOT
BRANCH   3  14
HETATM   14  O3  UNL     1      57.804  40.921  22.117  1.00  0.00    -0.356 OA
ATOM     15  H3  UNL     1      58.636  41.305  21.870  1.00  0.00     0.213 HD
ENDBRANCH   3  14
BRANCH   3  16
HETATM   16  O4  UNL     1      58.322  39.793  20.188  1.00  0.00    -0.356 OA
ATOM     17  H4  UNL     1      58.032  40.479  19.599  1.00  0.00     0.213 HD
ENDBRANCH   3  16
BRANCH   2  18
HETATM   18  O2  UNL     1      58.567  38.212  23.033  1.00  0.00    -0.352 OA
HETATM   19  C4  UNL     1      59.947  38.049  22.809  1.00  0.00     0.210 C 
ENDBRANCH   2  18
BRANCH   4  20
HETATM   20  O5  UNL     1      55.116  40.024  21.894  1.00  0.00    -0.358 OA
HETATM   21  C7  UNL     1      53.836  40.324  21.638  1.00  0.00     0.205 C 
ENDBRANCH   4  20
BRANCH   1  22
HETATM   22  O1  UNL     1      56.597  36.395  22.024  1.00  0.00    -0.355 OA
HETATM   23  C1  UNL     1      55.454  36.058  22.782  1.00  0.00     0.209 C 
ENDBRANCH   1  22
TORSDOF 5
ENDMDL
MODEL 3
REMARK VINA RESULT: -4.708838942      2.493      5.299
REMARK  5 active torsions:
REMARK  status: ('A' for Active; 'I' for Inactive)
REMARK    1  A    between atoms: O1_2  and  C2_3 
REMARK    2  A    between atoms: C3_4  and  O2_5 
REMARK    3  A    between atoms: C5_7  and  O3_8 
REMARK    4  A    between atoms: C5_7  and  O4_10 
REMARK    5  A    between atoms: C6_12  and  O5_13 
ROOT
HETATM    1  C2  UNL     1      59.238  38.361  21.061  1.00  0.00     0.114 C 
HETATM    2  C3  UNL     1      59.291  38.500  22.371  1.00  0.00     0.145 C 
HETATM    3  C5  UNL     1      57.903  38.884  22.833  1.00  0.00     0.268 C 
HETATM    4  C6  UNL     1      57.026  38.276  21.791  1.00  0.00     0.232 C 
HETATM    5  N1  UNL     1      55.788  39.029  21.607  1.00  0.00    -0.339 N 
ATOM      6  H1  UNL     1      55.125  39.132  22.375  1.00  0.00     0.164 HD
HETATM    7  C8  UNL     1      55.525  39.613  20.341  1.00  0.00     0.097 C 
HETATM    8  N2  UNL     1      54.318  39.613  19.829  1.00  0.00    -0.387 N 
ATOM      9  H21 UNL     1      54.129  40.034  18.920  1.00  0.00     0.157 HD
ATOM     10  H22 UNL     1      53.569  39.176  20.368  1.00  0.00     0.157 HD
HETATM   11  C9  UNL     1      56.628  40.257  19.547  1.00  0.00     0.244 C 
HETATM   12  O6  UNL     1      57.801  39.976  20.266  1.00  0.00    -0.367 OA
HETATM   13  C10 UNL     1      57.866  38.627  20.525  1.00  0.00     0.242 C 
ENDROOT
BRANCH   3  14
HETATM   14  O3  UNL     1      57.639  38.380  24.075  1.00  0.00    -0.356 OA
ATOM     15  H3  UNL     1      57.628  39.067  24.730  1.00  0.00     0.213 HD
ENDBRANCH   3  14
BRANCH   3  16
HETATM   16  O4  UNL     1      57.853  40.284  22.815  1.00  0.00    -0.356 OA
ATOM     17  H4  UNL     1      57.791  40.562  23.721  1.00  0.00     0.213 HD
ENDBRANCH   3  16
BRANCH   2  18
HETATM   18  O2  UNL     1      60.439  38.315  23.120  1.00  0.00    -0.352 OA
HETATM   19  C4  UNL     1      61.692  38.863  22.787  1.00  0.00     0.210 C 
ENDBRANCH   2  18
BRANCH   4  20
HETATM   20  O5  UNL     1      56.871  36.948  21.744  1.00  0.00    -0.358 OA
HETATM   21  C7  UNL     1      55.747  36.315  22.106  1.00  0.00     0.205 C 
ENDBRANCH   4  20
BRANCH   1  22
HETATM   22  O1  UNL     1      60.350  38.004  20.274  1.00  0.00    -0.355 OA
HETATM   23  C1  UNL     1      60.716  36.642  20.189  1.00  0.00     0.209 C 
ENDBRANCH   1  22
TORSDOF 5
ENDMDL
MODEL 4
REMARK VINA RESULT: -4.477561391      2.339      4.372
REMARK  5 active torsions:
REMARK  status: ('A' for Active; 'I' for Inactive)
REMARK    1  A    between atoms: O1_2  and  C2_3 
REMARK    2  A    between atoms: C3_4  and  O2_5 
REMARK    3  A    between atoms: C5_7  and  O3_8 
REMARK    4  A    between atoms: C5_7  and  O4_10 
REMARK    5  A    between atoms: C6_12  and  O5_13 
ROOT
HETATM    1  C2  UNL     1      57.047  37.975  20.957  1.00  0.00     0.114 C 
HETATM    2  C3  UNL     1      56.544  37.581  22.111  1.00  0.00     0.145 C 
HETATM    3  C5  UNL     1      57.635  37.739  23.147  1.00  0.00     0.268 C 
HETATM    4  C6  UNL     1      58.466  38.845  22.589  1.00  0.00     0.232 C 
HETATM    5  N1  UNL     1      59.867  38.735  22.986  1.00  0.00    -0.339 N 
ATOM      6  H1  UNL     1      60.132  38.778  23.970  1.00  0.00     0.164 HD
HETATM    7  C8  UNL     1      60.852  38.567  21.979  1.00  0.00     0.097 C 
HETATM    8  N2  UNL     1      62.012  39.173  22.054  1.00  0.00    -0.387 N 
ATOM      9  H21 UNL     1      62.720  39.051  21.330  1.00  0.00     0.157 HD
ATOM     10  H22 UNL     1      62.187  39.774  22.860  1.00  0.00     0.157 HD
HETATM   11  C9  UNL     1      60.595  37.681  20.791  1.00  0.00     0.244 C 
HETATM   12  O6  UNL     1      59.248  37.299  20.911  1.00  0.00    -0.367 OA
HETATM   13  C10 UNL     1      58.470  38.419  21.089  1.00  0.00     0.242 C 
ENDROOT
BRANCH   3  14
HETATM   14  O3  UNL     1      57.114  38.064  24.368  1.00  0.00    -0.356 OA
ATOM     15  H3  UNL     1      57.038  37.297  24.924  1.00  0.00     0.213 HD
ENDBRANCH   3  14
BRANCH   3  16
HETATM   16  O4  UNL     1      58.328  36.522  23.180  1.00  0.00    -0.356 OA
ATOM     17  H4  UNL     1      57.771  35.909  23.644  1.00  0.00     0.213 HD
ENDBRANCH   3  16
BRANCH   2  18
HETATM   18  O2  UNL     1      55.251  37.121  22.271  1.00  0.00    -0.352 OA
HETATM   19  C4  UNL     1      54.925  35.867  22.823  1.00  0.00     0.210 C 
ENDBRANCH   2  18
BRANCH   4  20
HETATM   20  O5  UNL     1      57.994  40.098  22.589  1.00  0.00    -0.358 OA
HETATM   21  C7  UNL     1      58.158  40.956  21.573  1.00  0.00     0.205 C 
ENDBRANCH   4  20
BRANCH   1  22
HETATM   22  O1  UNL     1      56.316  37.971  19.753  1.00  0.00    -0.355 OA
HETATM   23  C1  UNL     1      55.984  39.206  19.153  1.00  0.00     0.209 C 
ENDBRANCH   1  22
TORSDOF 5
ENDMDL
MODEL 5
REMARK VINA RESULT: -3.947671034      3.039      5.750
REMARK  5 active torsions:
REMARK  status: ('A' for Active; 'I' for Inactive)
REMARK    1  A    between atoms: O1_2  and  C2_3 
REMARK    2  A    between atoms: C3_4  and  O2_5 
REMARK    3  A    between atoms: C5_7  and  O3_8 
REMARK    4  A    between atoms: C5_7  and  O4_10 
REMARK    5  A    between atoms: C6_12  and  O5_13 
ROOT
HETATM    1  C2  UNL     1      59.972  37.889  20.828  1.00  0.00     0.114 C 
HETATM    2  C3  UNL     1      60.395  38.072  22.064  1.00  0.00     0.145 C 
HETATM    3  C5  UNL     1      59.197  38.494  22.885  1.00  0.00     0.268 C 
HETATM    4  C6  UNL     1      58.057  37.866  22.156  1.00  0.00     0.232 C 
HETATM    5  N1  UNL     1      56.822  38.633  22.301  1.00  0.00    -0.339 N 
ATOM      6  H1  UNL     1      56.404  38.773  23.221  1.00  0.00     0.164 HD
HETATM    7  C8  UNL     1      56.215  39.179  21.141  1.00  0.00     0.097 C 
HETATM    8  N2  UNL     1      54.913  39.181  20.991  1.00  0.00    -0.387 N 
ATOM      9  H21 UNL     1      54.477  39.574  20.157  1.00  0.00     0.157 HD
ATOM     10  H22 UNL     1      54.345  38.776  21.736  1.00  0.00     0.157 HD
HETATM   11  C9  UNL     1      57.052  39.776  20.044  1.00  0.00     0.244 C 
HETATM   12  O6  UNL     1      58.379  39.500  20.412  1.00  0.00    -0.367 OA
HETATM   13  C10 UNL     1      58.507  38.160  20.692  1.00  0.00     0.242 C 
ENDROOT
BRANCH   3  14
HETATM   14  O3  UNL     1      59.291  38.036  24.169  1.00  0.00    -0.356 OA
ATOM     15  H3  UNL     1      59.354  37.089  24.192  1.00  0.00     0.213 HD
ENDBRANCH   3  14
BRANCH   3  16
HETATM   16  O4  UNL     1      59.153  39.893  22.829  1.00  0.00    -0.356 OA
ATOM     17  H4  UNL     1      58.242  40.128  22.701  1.00  0.00     0.213 HD
ENDBRANCH   3  16
BRANCH   2  18
HETATM   18  O2  UNL     1      61.706  37.892  22.464  1.00  0.00    -0.352 OA
HETATM   19  C4  UNL     1      62.750  38.787  22.161  1.00  0.00     0.210 C 
ENDBRANCH   2  18
BRANCH   4  20
HETATM   20  O5  UNL     1      57.886  36.540  22.203  1.00  0.00    -0.358 OA
HETATM   21  C7  UNL     1      56.771  35.947  22.651  1.00  0.00     0.205 C 
ENDBRANCH   4  20
BRANCH   1  22
HETATM   22  O1  UNL     1      60.814  37.487  19.773  1.00  0.00    -0.355 OA
HETATM   23  C1  UNL     1      61.602  36.326  19.934  1.00  0.00     0.209 C 
ENDBRANCH   1  22
TORSDOF 5
ENDMDL
