MODEL 1
REMARK VINA RESULT: -3.015056489      0.000      0.000
REMARK  6 active torsions:
REMARK  status: ('A' for Active; 'I' for Inactive)
REMARK    1  A    between atoms: O1_2  and  N1_3 
REMARK    2  A    between atoms: C2_4  and  C3_5 
REMARK    3  A    between atoms: C3_5  and  N2_6 
REMARK    4  A    between atoms: C3_5  and  O2_10 
REMARK    5  A    between atoms: C4_12  and  O3_13 
REMARK    6  A    between atoms: C7_20  and  N4_21 
ROOT
HETATM    1  N1  UNL     1      60.742  31.151  27.778  1.00  0.00    -0.212 N 
HETATM    2  C2  UNL     1      62.047  31.455  27.693  1.00  0.00     0.134 A 
HETATM    3  C4  UNL     1      62.648  31.514  26.424  1.00  0.00     0.148 A 
HETATM    4  C5  UNL     1      61.902  31.264  25.293  1.00  0.00     0.236 A 
HETATM    5  O4  UNL     1      62.451  31.318  24.140  1.00  0.00    -0.283 OA
HETATM    6  C6  UNL     1      60.565  30.955  25.400  1.00  0.00     0.137 A 
HETATM    7  N3  UNL     1      59.843  30.716  24.284  1.00  0.00    -0.185 N 
ATOM      8  H3  UNL     1      60.281  30.760  23.365  1.00  0.00     0.184 HD
HETATM    9  C7  UNL     1      58.539  30.421  24.404  1.00  0.00     0.679 A 
HETATM   10  N5  UNL     1      57.947  30.358  25.590  1.00  0.00    -0.154 N 
ATOM     11  H5  UNL     1      56.955  30.132  25.658  1.00  0.00     0.187 HD
HETATM   12  C8  UNL     1      58.660  30.595  26.695  1.00  0.00     0.291 A 
HETATM   13  O5  UNL     1      58.080  30.533  27.820  1.00  0.00    -0.265 OA
HETATM   14  C9  UNL     1      60.004  30.905  26.675  1.00  0.00     0.162 A 
ENDROOT
BRANCH   2  15
HETATM   15  C3  UNL     1      62.925  31.749  28.834  1.00  0.00     0.372 C 
BRANCH  15  16
HETATM   16  N2  UNL     1      63.990  30.765  28.950  1.00  0.00    -0.047 N 
ATOM     17  H23 UNL     1      63.669  29.920  29.423  1.00  0.00     0.277 HD
ATOM     18  H22 UNL     1      64.225  30.359  28.044  1.00  0.00     0.277 HD
ATOM     19  H21 UNL     1      64.812  31.160  29.407  1.00  0.00     0.277 HD
ENDBRANCH  15  16
BRANCH  15  20
HETATM   20  O2  UNL     1      63.478  33.043  28.674  1.00  0.00    -0.365 OA
ATOM     21  H2  UNL     1      62.867  33.585  28.190  1.00  0.00     0.212 HD
ENDBRANCH  15  20
ENDBRANCH   2  15
BRANCH   1  22
HETATM   22  O1  UNL     1      60.143  31.076  29.016  1.00  0.00    -0.278 OA
HETATM   23  C1  UNL     1      60.504  30.192  30.036  1.00  0.00     0.238 C 
ENDBRANCH   1  22
BRANCH   3  24
HETATM   24  O3  UNL     1      63.986  31.824  26.321  1.00  0.00    -0.355 OA
ATOM     25  H3  UNL     1      64.412  31.781  25.473  1.00  0.00     0.218 HD
ENDBRANCH   3  24
BRANCH   9  26
HETATM   26  N4  UNL     1      57.849  30.192  23.338  1.00  0.00    -0.234 N 
ATOM     27  H42 UNL     1      58.027  30.741  22.497  1.00  0.00     0.174 HD
ATOM     28  H41 UNL     1      57.135  29.463  23.357  1.00  0.00     0.174 HD
ENDBRANCH   9  26
TORSDOF 6
ENDMDL
MODEL 2
REMARK VINA RESULT: -2.618979933      8.702      9.405
REMARK  6 active torsions:
REMARK  status: ('A' for Active; 'I' for Inactive)
REMARK    1  A    between atoms: O1_2  and  N1_3 
REMARK    2  A    between atoms: C2_4  and  C3_5 
REMARK    3  A    between atoms: C3_5  and  N2_6 
REMARK    4  A    between atoms: C3_5  and  O2_10 
REMARK    5  A    between atoms: C4_12  and  O3_13 
REMARK    6  A    between atoms: C7_20  and  N4_21 
ROOT
HETATM    1  N1  UNL     1      61.810  37.004  20.592  1.00  0.00    -0.212 N 
HETATM    2  C2  UNL     1      63.084  37.361  20.828  1.00  0.00     0.134 A 
HETATM    3  C4  UNL     1      63.335  38.486  21.630  1.00  0.00     0.148 A 
HETATM    4  C5  UNL     1      62.285  39.203  22.162  1.00  0.00     0.236 A 
HETATM    5  O4  UNL     1      62.516  40.228  22.892  1.00  0.00    -0.283 OA
HETATM    6  C6  UNL     1      60.988  38.822  21.910  1.00  0.00     0.137 A 
HETATM    7  N3  UNL     1      59.968  39.531  22.441  1.00  0.00    -0.185 N 
ATOM      8  H3  UNL     1      60.152  40.348  23.023  1.00  0.00     0.184 HD
HETATM    9  C7  UNL     1      58.707  39.144  22.190  1.00  0.00     0.679 A 
HETATM   10  N5  UNL     1      58.443  38.085  21.435  1.00  0.00    -0.154 N 
ATOM     11  H5  UNL     1      57.477  37.809  21.258  1.00  0.00     0.187 HD
HETATM   12  C8  UNL     1      59.451  37.383  20.910  1.00  0.00     0.291 A 
HETATM   13  O5  UNL     1      59.182  36.373  20.193  1.00  0.00    -0.265 OA
HETATM   14  C9  UNL     1      60.777  37.701  21.109  1.00  0.00     0.162 A 
ENDROOT
BRANCH   2  15
HETATM   15  C3  UNL     1      64.270  36.657  20.319  1.00  0.00     0.372 C 
BRANCH  15  16
HETATM   16  N2  UNL     1      64.615  37.104  18.979  1.00  0.00    -0.047 N 
ATOM     17  H23 UNL     1      64.897  36.324  18.385  1.00  0.00     0.277 HD
ATOM     18  H22 UNL     1      63.790  37.407  18.460  1.00  0.00     0.277 HD
ATOM     19  H21 UNL     1      65.329  37.832  19.003  1.00  0.00     0.277 HD
ENDBRANCH  15  16
BRANCH  15  20
HETATM   20  O2  UNL     1      65.356  36.881  21.198  1.00  0.00    -0.365 OA
ATOM     21  H2  UNL     1      66.168  36.843  20.707  1.00  0.00     0.212 HD
ENDBRANCH  15  20
ENDBRANCH   2  15
BRANCH   1  22
HETATM   22  O1  UNL     1      61.550  35.911  19.796  1.00  0.00    -0.278 OA
HETATM   23  C1  UNL     1      62.409  34.824  19.609  1.00  0.00     0.238 C 
ENDBRANCH   1  22
BRANCH   3  24
HETATM   24  O3  UNL     1      64.635  38.865  21.881  1.00  0.00    -0.355 OA
ATOM     25  H3  UNL     1      65.143  38.392  22.530  1.00  0.00     0.218 HD
ENDBRANCH   3  24
BRANCH   9  26
HETATM   26  N4  UNL     1      57.732  39.822  22.696  1.00  0.00    -0.234 N 
ATOM     27  H42 UNL     1      57.220  39.446  23.494  1.00  0.00     0.174 HD
ATOM     28  H41 UNL     1      57.492  40.724  22.286  1.00  0.00     0.174 HD
ENDBRANCH   9  26
TORSDOF 6
ENDMDL
MODEL 3
REMARK VINA RESULT: -2.203694936     11.396     13.118
REMARK  6 active torsions:
REMARK  status: ('A' for Active; 'I' for Inactive)
REMARK    1  A    between atoms: O1_2  and  N1_3 
REMARK    2  A    between atoms: C2_4  and  C3_5 
REMARK    3  A    between atoms: C3_5  and  N2_6 
REMARK    4  A    between atoms: C3_5  and  O2_10 
REMARK    5  A    between atoms: C4_12  and  O3_13 
REMARK    6  A    between atoms: C7_20  and  N4_21 
ROOT
HETATM    1  N1  UNL     1      54.624  40.198  20.695  1.00  0.00    -0.212 N 
HETATM    2  C2  UNL     1      54.022  40.247  19.496  1.00  0.00     0.134 A 
HETATM    3  C4  UNL     1      54.734  39.820  18.362  1.00  0.00     0.148 A 
HETATM    4  C5  UNL     1      56.027  39.359  18.491  1.00  0.00     0.236 A 
HETATM    5  O4  UNL     1      56.673  38.972  17.458  1.00  0.00    -0.283 OA
HETATM    6  C6  UNL     1      56.626  39.316  19.728  1.00  0.00     0.137 A 
HETATM    7  N3  UNL     1      57.892  38.859  19.842  1.00  0.00    -0.185 N 
ATOM      8  H3  UNL     1      58.407  38.550  19.018  1.00  0.00     0.184 HD
HETATM    9  C7  UNL     1      58.462  38.818  21.057  1.00  0.00     0.679 A 
HETATM   10  N5  UNL     1      57.812  39.216  22.143  1.00  0.00    -0.154 N 
ATOM     11  H5  UNL     1      58.265  39.176  23.056  1.00  0.00     0.187 HD
HETATM   12  C8  UNL     1      56.559  39.667  22.032  1.00  0.00     0.291 A 
HETATM   13  O5  UNL     1      55.951  40.042  23.079  1.00  0.00    -0.265 OA
HETATM   14  C9  UNL     1      55.889  39.748  20.829  1.00  0.00     0.162 A 
ENDROOT
BRANCH   2  15
HETATM   15  C3  UNL     1      52.647  40.708  19.255  1.00  0.00     0.372 C 
BRANCH  15  16
HETATM   16  N2  UNL     1      52.624  41.864  18.373  1.00  0.00    -0.047 N 
ATOM     17  H23 UNL     1      52.829  42.725  18.879  1.00  0.00     0.277 HD
ATOM     18  H22 UNL     1      53.420  41.864  17.734  1.00  0.00     0.277 HD
ATOM     19  H21 UNL     1      51.740  41.929  17.869  1.00  0.00     0.277 HD
ENDBRANCH  15  16
BRANCH  15  20
HETATM   20  O2  UNL     1      51.896  39.651  18.686  1.00  0.00    -0.365 OA
ATOM     21  H2  UNL     1      50.973  39.801  18.852  1.00  0.00     0.212 HD
ENDBRANCH  15  20
ENDBRANCH   2  15
BRANCH   1  22
HETATM   22  O1  UNL     1      53.942  40.626  21.812  1.00  0.00    -0.278 OA
HETATM   23  C1  UNL     1      52.909  41.567  21.817  1.00  0.00     0.238 C 
ENDBRANCH   1  22
BRANCH   3  24
HETATM   24  O3  UNL     1      54.131  39.864  17.125  1.00  0.00    -0.355 OA
ATOM     25  H3  UNL     1      53.711  39.084  16.781  1.00  0.00     0.218 HD
ENDBRANCH   3  24
BRANCH   9  26
HETATM   26  N4  UNL     1      59.672  38.382  21.166  1.00  0.00    -0.234 N 
ATOM     27  H42 UNL     1      60.051  37.769  20.445  1.00  0.00     0.174 HD
ATOM     28  H41 UNL     1      60.227  38.661  21.975  1.00  0.00     0.174 HD
ENDBRANCH   9  26
TORSDOF 6
ENDMDL
MODEL 4
REMARK VINA RESULT: -2.096003664      9.660     11.223
REMARK  6 active torsions:
REMARK  status: ('A' for Active; 'I' for Inactive)
REMARK    1  A    between atoms: O1_2  and  N1_3 
REMARK    2  A    between atoms: C2_4  and  C3_5 
REMARK    3  A    between atoms: C3_5  and  N2_6 
REMARK    4  A    between atoms: C3_5  and  O2_10 
REMARK    5  A    between atoms: C4_12  and  O3_13 
REMARK    6  A    between atoms: C7_20  and  N4_21 
ROOT
HETATM    1  N1  UNL     1      55.779  38.478  21.866  1.00  0.00    -0.212 N 
HETATM    2  C2  UNL     1      55.254  39.337  20.976  1.00  0.00     0.134 A 
HETATM    3  C4  UNL     1      56.122  40.131  20.207  1.00  0.00     0.148 A 
HETATM    4  C5  UNL     1      57.486  40.021  20.370  1.00  0.00     0.236 A 
HETATM    5  O4  UNL     1      58.274  40.745  19.670  1.00  0.00    -0.283 OA
HETATM    6  C6  UNL     1      58.005  39.134  21.286  1.00  0.00     0.137 A 
HETATM    7  N3  UNL     1      59.343  39.033  21.434  1.00  0.00    -0.185 N 
ATOM      8  H3  UNL     1      59.971  39.610  20.875  1.00  0.00     0.184 HD
HETATM    9  C7  UNL     1      59.835  38.160  22.328  1.00  0.00     0.679 A 
HETATM   10  N5  UNL     1      59.037  37.399  23.066  1.00  0.00    -0.154 N 
ATOM     11  H5  UNL     1      59.432  36.743  23.740  1.00  0.00     0.187 HD
HETATM   12  C8  UNL     1      57.712  37.498  22.921  1.00  0.00     0.291 A 
HETATM   13  O5  UNL     1      56.964  36.763  23.633  1.00  0.00    -0.265 OA
HETATM   14  C9  UNL     1      57.113  38.365  22.031  1.00  0.00     0.162 A 
ENDROOT
BRANCH   2  15
HETATM   15  C3  UNL     1      53.819  39.520  20.719  1.00  0.00     0.372 C 
BRANCH  15  16
HETATM   16  N2  UNL     1      53.301  40.688  21.414  1.00  0.00    -0.047 N 
ATOM     17  H23 UNL     1      53.039  41.426  20.761  1.00  0.00     0.277 HD
ATOM     18  H22 UNL     1      52.384  40.505  21.822  1.00  0.00     0.277 HD
ATOM     19  H21 UNL     1      53.962  41.025  22.114  1.00  0.00     0.277 HD
ENDBRANCH  15  16
BRANCH  15  20
HETATM   20  O2  UNL     1      53.610  39.656  19.325  1.00  0.00    -0.365 OA
ATOM     21  H2  UNL     1      54.399  39.394  18.865  1.00  0.00     0.212 HD
ENDBRANCH  15  20
ENDBRANCH   2  15
BRANCH   1  22
HETATM   22  O1  UNL     1      54.939  37.704  22.635  1.00  0.00    -0.278 OA
HETATM   23  C1  UNL     1      54.636  36.360  22.399  1.00  0.00     0.238 C 
ENDBRANCH   1  22
BRANCH   3  24
HETATM   24  O3  UNL     1      55.600  41.016  19.291  1.00  0.00    -0.355 OA
ATOM     25  H3  UNL     1      55.203  41.824  19.595  1.00  0.00     0.218 HD
ENDBRANCH   3  24
BRANCH   9  26
HETATM   26  N4  UNL     1      61.114  38.064  22.470  1.00  0.00    -0.234 N 
ATOM     27  H42 UNL     1      61.548  38.382  23.336  1.00  0.00     0.174 HD
ATOM     28  H41 UNL     1      61.667  37.671  21.709  1.00  0.00     0.174 HD
ENDBRANCH   9  26
TORSDOF 6
ENDMDL
MODEL 5
REMARK VINA RESULT: -1.795912275      8.706      9.618
REMARK  6 active torsions:
REMARK  status: ('A' for Active; 'I' for Inactive)
REMARK    1  A    between atoms: O1_2  and  N1_3 
REMARK    2  A    between atoms: C2_4  and  C3_5 
REMARK    3  A    between atoms: C3_5  and  N2_6 
REMARK    4  A    between atoms: C3_5  and  O2_10 
REMARK    5  A    between atoms: C4_12  and  O3_13 
REMARK    6  A    between atoms: C7_20  and  N4_21 
ROOT
HETATM    1  N1  UNL     1      61.862  38.138  21.934  1.00  0.00    -0.212 N 
HETATM    2  C2  UNL     1      60.520  38.163  21.950  1.00  0.00     0.134 A 
HETATM    3  C4  UNL     1      59.816  37.390  21.011  1.00  0.00     0.148 A 
HETATM    4  C5  UNL     1      60.502  36.622  20.095  1.00  0.00     0.236 A 
HETATM    5  O4  UNL     1      59.860  35.920  19.241  1.00  0.00    -0.283 OA
HETATM    6  C6  UNL     1      61.878  36.609  20.095  1.00  0.00     0.137 A 
HETATM    7  N3  UNL     1      62.539  35.850  19.195  1.00  0.00    -0.185 N 
ATOM      8  H3  UNL     1      62.027  35.290  18.514  1.00  0.00     0.184 HD
HETATM    9  C7  UNL     1      63.882  35.844  19.210  1.00  0.00     0.679 A 
HETATM   10  N5  UNL     1      64.570  36.564  20.086  1.00  0.00    -0.154 N 
ATOM     11  H5  UNL     1      65.589  36.545  20.079  1.00  0.00     0.187 HD
HETATM   12  C8  UNL     1      63.917  37.316  20.977  1.00  0.00     0.291 A 
HETATM   13  O5  UNL     1      64.589  37.998  21.809  1.00  0.00    -0.265 OA
HETATM   14  C9  UNL     1      62.541  37.389  21.040  1.00  0.00     0.162 A 
ENDROOT
BRANCH   2  15
HETATM   15  C3  UNL     1      59.697  38.936  22.891  1.00  0.00     0.372 C 
BRANCH  15  16
HETATM   16  N2  UNL     1      58.841  39.882  22.192  1.00  0.00    -0.047 N 
ATOM     17  H23 UNL     1      58.913  39.774  21.180  1.00  0.00     0.277 HD
ATOM     18  H22 UNL     1      57.854  39.650  22.306  1.00  0.00     0.277 HD
ATOM     19  H21 UNL     1      59.036  40.841  22.479  1.00  0.00     0.277 HD
ENDBRANCH  15  16
BRANCH  15  20
HETATM   20  O2  UNL     1      58.907  38.046  23.658  1.00  0.00    -0.365 OA
ATOM     21  H2  UNL     1      57.988  38.220  23.489  1.00  0.00     0.212 HD
ENDBRANCH  15  20
ENDBRANCH   2  15
BRANCH   1  22
HETATM   22  O1  UNL     1      62.564  38.902  22.840  1.00  0.00    -0.278 OA
HETATM   23  C1  UNL     1      62.782  40.278  22.740  1.00  0.00     0.238 C 
ENDBRANCH   1  22
BRANCH   3  24
HETATM   24  O3  UNL     1      58.440  37.405  21.015  1.00  0.00    -0.355 OA
ATOM     25  H3  UNL     1      57.973  37.731  20.253  1.00  0.00     0.218 HD
ENDBRANCH   3  24
BRANCH   9  26
HETATM   26  N4  UNL     1      64.514  35.118  18.349  1.00  0.00    -0.234 N 
ATOM     27  H42 UNL     1      64.806  35.531  17.463  1.00  0.00     0.174 HD
ATOM     28  H41 UNL     1      64.707  34.142  18.572  1.00  0.00     0.174 HD
ENDBRANCH   9  26
TORSDOF 6
ENDMDL
