MODEL 1
REMARK VINA RESULT: -8.945171420      0.000      0.000
REMARK  5 active torsions:
REMARK  status: ('A' for Active; 'I' for Inactive)
REMARK    1  A    between atoms: N1_2  and  C2_4 
REMARK    2  A    between atoms: C3_7  and  C4_8 
REMARK    3  A    between atoms: C5_11  and  O1_12 
REMARK    4  A    between atoms: C7_14  and  O2_15 
REMARK    5  A    between atoms: C9_23  and  N6_24 
ROOT
HETATM    1  C2  UNL     1      59.184  39.219  21.327  1.00  0.00     0.694 A 
HETATM    2  N2  UNL     1      58.189  39.506  20.441  1.00  0.00    -0.173 N 
ATOM      3  H2  UNL     1      58.428  39.812  19.498  1.00  0.00     0.186 HD
HETATM    4  C3  UNL     1      56.908  39.394  20.788  1.00  0.00     0.169 A 
HETATM    5  N5  UNL     1      56.664  38.976  22.074  1.00  0.00    -0.173 N 
ATOM      6  H5  UNL     1      55.692  38.880  22.369  1.00  0.00     0.186 HD
HETATM    7  C9  UNL     1      57.615  38.687  22.961  1.00  0.00     0.692 A 
HETATM    8  N7  UNL     1      58.894  38.815  22.568  1.00  0.00    -0.023 N 
ATOM      9  H7  UNL     1      59.649  38.603  23.221  1.00  0.00     0.203 HD
ENDROOT
BRANCH   4  10
HETATM   10  C4  UNL     1      55.753  39.667  19.951  1.00  0.00     0.148 A 
HETATM   11  N3  UNL     1      54.624  40.194  20.522  1.00  0.00    -0.326 N 
HETATM   12  C5  UNL     1      53.528  40.468  19.810  1.00  0.00     0.195 A 
ATOM     13  H3  UNL     1      54.621  40.382  21.525  1.00  0.00     0.168 HD
HETATM   14  C7  UNL     1      53.476  40.233  18.453  1.00  0.00     0.195 A 
HETATM   15  N4  UNL     1      54.567  39.720  17.881  1.00  0.00    -0.299 N 
HETATM   16  C8  UNL     1      55.700  39.438  18.618  1.00  0.00     0.278 A 
ATOM     17  H4  UNL     1      54.565  39.533  16.878  1.00  0.00     0.171 HD
HETATM   18  O3  UNL     1      56.652  38.964  17.980  1.00  0.00    -0.265 OA
BRANCH  12  19
HETATM   19  O1  UNL     1      52.402  40.999  20.420  1.00  0.00    -0.338 OA
HETATM   20  C6  UNL     1      52.550  41.985  21.425  1.00  0.00     0.211 C 
ENDBRANCH  12  19
BRANCH  14  21
HETATM   21  O2  UNL     1      52.347  40.511  17.696  1.00  0.00    -0.343 OA
ATOM     22  H2  UNL     1      52.126  41.393  17.419  1.00  0.00     0.219 HD
ENDBRANCH  14  21
ENDBRANCH   4  10
BRANCH   1  23
HETATM   23  N1  UNL     1      60.402  39.343  20.944  1.00  0.00    -0.230 N 
HETATM   24  C1  UNL     1      61.478  38.820  21.750  1.00  0.00     0.165 C 
ATOM     25  H1  UNL     1      60.611  39.813  20.063  1.00  0.00     0.177 HD
ENDBRANCH   1  23
BRANCH   7  26
HETATM   26  N6  UNL     1      57.370  38.297  24.164  1.00  0.00    -0.234 N 
ATOM     27  H62 UNL     1      57.334  37.296  24.358  1.00  0.00     0.174 HD
ATOM     28  H61 UNL     1      57.210  38.937  24.943  1.00  0.00     0.174 HD
ENDBRANCH   7  26
TORSDOF 5
ENDMDL
MODEL 2
REMARK VINA RESULT: -8.216841481      4.259      7.654
REMARK  5 active torsions:
REMARK  status: ('A' for Active; 'I' for Inactive)
REMARK    1  A    between atoms: N1_2  and  C2_4 
REMARK    2  A    between atoms: C3_7  and  C4_8 
REMARK    3  A    between atoms: C5_11  and  O1_12 
REMARK    4  A    between atoms: C7_14  and  O2_15 
REMARK    5  A    between atoms: C9_23  and  N6_24 
ROOT
HETATM    1  C2  UNL     1      57.894  39.633  20.930  1.00  0.00     0.694 A 
HETATM    2  N2  UNL     1      59.211  39.369  20.699  1.00  0.00    -0.173 N 
ATOM      3  H2  UNL     1      59.632  39.650  19.814  1.00  0.00     0.186 HD
HETATM    4  C3  UNL     1      59.957  38.750  21.612  1.00  0.00     0.169 A 
HETATM    5  N5  UNL     1      59.320  38.403  22.780  1.00  0.00    -0.173 N 
ATOM      6  H5  UNL     1      59.866  37.928  23.498  1.00  0.00     0.186 HD
HETATM    7  C9  UNL     1      58.037  38.648  23.034  1.00  0.00     0.692 A 
HETATM    8  N7  UNL     1      57.321  39.275  22.084  1.00  0.00    -0.023 N 
ATOM      9  H7  UNL     1      56.334  39.478  22.244  1.00  0.00     0.203 HD
ENDROOT
BRANCH   4  10
HETATM   10  C4  UNL     1      61.363  38.407  21.499  1.00  0.00     0.148 A 
HETATM   11  N3  UNL     1      61.727  37.320  20.747  1.00  0.00    -0.326 N 
HETATM   12  C5  UNL     1      63.002  36.950  20.602  1.00  0.00     0.195 A 
ATOM     13  H3  UNL     1      61.000  36.776  20.283  1.00  0.00     0.168 HD
HETATM   14  C7  UNL     1      64.026  37.648  21.206  1.00  0.00     0.195 A 
HETATM   15  N4  UNL     1      63.689  38.709  21.942  1.00  0.00    -0.299 N 
HETATM   16  C8  UNL     1      62.370  39.090  22.091  1.00  0.00     0.278 A 
ATOM     17  H4  UNL     1      64.420  39.248  22.405  1.00  0.00     0.171 HD
HETATM   18  O3  UNL     1      62.177  40.091  22.797  1.00  0.00    -0.265 OA
BRANCH  12  19
HETATM   19  O1  UNL     1      63.336  35.845  19.835  1.00  0.00    -0.338 OA
HETATM   20  C6  UNL     1      63.740  36.022  18.489  1.00  0.00     0.211 C 
ENDBRANCH  12  19
BRANCH  14  21
HETATM   21  O2  UNL     1      65.356  37.280  21.068  1.00  0.00    -0.343 OA
ATOM     22  H2  UNL     1      65.757  36.612  21.612  1.00  0.00     0.219 HD
ENDBRANCH  14  21
ENDBRANCH   4  10
BRANCH   1  23
HETATM   23  N1  UNL     1      57.219  40.232  20.019  1.00  0.00    -0.230 N 
HETATM   24  C1  UNL     1      56.115  39.565  19.370  1.00  0.00     0.165 C 
ATOM     25  H1  UNL     1      57.463  41.185  19.751  1.00  0.00     0.177 HD
ENDBRANCH   1  23
BRANCH   7  26
HETATM   26  N6  UNL     1      57.453  38.317  24.134  1.00  0.00    -0.234 N 
ATOM     27  H62 UNL     1      57.629  38.873  24.971  1.00  0.00     0.174 HD
ATOM     28  H61 UNL     1      56.817  37.523  24.218  1.00  0.00     0.174 HD
ENDBRANCH   7  26
TORSDOF 5
ENDMDL
MODEL 3
REMARK VINA RESULT: -8.091277501      1.132      2.447
REMARK  5 active torsions:
REMARK  status: ('A' for Active; 'I' for Inactive)
REMARK    1  A    between atoms: N1_2  and  C2_4 
REMARK    2  A    between atoms: C3_7  and  C4_8 
REMARK    3  A    between atoms: C5_11  and  O1_12 
REMARK    4  A    between atoms: C7_14  and  O2_15 
REMARK    5  A    between atoms: C9_23  and  N6_24 
ROOT
HETATM    1  C2  UNL     1      57.413  37.250  22.443  1.00  0.00     0.694 A 
HETATM    2  N2  UNL     1      56.384  37.739  21.695  1.00  0.00    -0.173 N 
ATOM      3  H2  UNL     1      55.437  37.398  21.858  1.00  0.00     0.186 HD
HETATM    4  C3  UNL     1      56.597  38.655  20.752  1.00  0.00     0.169 A 
HETATM    5  N5  UNL     1      57.899  39.066  20.590  1.00  0.00    -0.173 N 
ATOM      6  H5  UNL     1      58.092  39.768  19.875  1.00  0.00     0.186 HD
HETATM    7  C9  UNL     1      58.923  38.608  21.306  1.00  0.00     0.692 A 
HETATM    8  N7  UNL     1      58.663  37.683  22.247  1.00  0.00    -0.023 N 
ATOM      9  H7  UNL     1      59.424  37.308  22.814  1.00  0.00     0.203 HD
ENDROOT
BRANCH   4  10
HETATM   10  C4  UNL     1      55.600  39.258  19.885  1.00  0.00     0.148 A 
HETATM   11  N3  UNL     1      54.505  39.862  20.445  1.00  0.00    -0.326 N 
HETATM   12  C5  UNL     1      53.552  40.435  19.705  1.00  0.00     0.195 A 
ATOM     13  H3  UNL     1      54.414  39.873  21.461  1.00  0.00     0.168 HD
HETATM   14  C7  UNL     1      53.622  40.449  18.329  1.00  0.00     0.195 A 
HETATM   15  N4  UNL     1      54.683  39.865  17.767  1.00  0.00    -0.299 N 
HETATM   16  C8  UNL     1      55.667  39.273  18.533  1.00  0.00     0.278 A 
ATOM     17  H4  UNL     1      54.767  39.855  16.751  1.00  0.00     0.171 HD
HETATM   18  O3  UNL     1      56.605  38.762  17.902  1.00  0.00    -0.265 OA
BRANCH  12  19
HETATM   19  O1  UNL     1      52.456  41.036  20.305  1.00  0.00    -0.338 OA
HETATM   20  C6  UNL     1      52.642  41.851  21.447  1.00  0.00     0.211 C 
ENDBRANCH  12  19
BRANCH  14  21
HETATM   21  O2  UNL     1      52.643  41.038  17.543  1.00  0.00    -0.343 OA
ATOM     22  H2  UNL     1      51.930  41.544  17.915  1.00  0.00     0.219 HD
ENDBRANCH  14  21
ENDBRANCH   4  10
BRANCH   1  23
HETATM   23  N1  UNL     1      57.156  36.369  23.339  1.00  0.00    -0.230 N 
HETATM   24  C1  UNL     1      55.833  35.802  23.447  1.00  0.00     0.165 C 
ATOM     25  H1  UNL     1      57.890  36.067  23.978  1.00  0.00     0.177 HD
ENDBRANCH   1  23
BRANCH   7  26
HETATM   26  N6  UNL     1      60.139  39.002  21.143  1.00  0.00    -0.234 N 
ATOM     27  H62 UNL     1      60.460  39.228  20.201  1.00  0.00     0.174 HD
ATOM     28  H61 UNL     1      60.807  39.103  21.908  1.00  0.00     0.174 HD
ENDBRANCH   7  26
TORSDOF 5
ENDMDL
MODEL 4
REMARK VINA RESULT: -7.413974242      4.547      7.819
REMARK  5 active torsions:
REMARK  status: ('A' for Active; 'I' for Inactive)
REMARK    1  A    between atoms: N1_2  and  C2_4 
REMARK    2  A    between atoms: C3_7  and  C4_8 
REMARK    3  A    between atoms: C5_11  and  O1_12 
REMARK    4  A    between atoms: C7_14  and  O2_15 
REMARK    5  A    between atoms: C9_23  and  N6_24 
ROOT
HETATM    1  C2  UNL     1      57.693  37.959  22.537  1.00  0.00     0.694 A 
HETATM    2  N2  UNL     1      59.031  37.699  22.511  1.00  0.00    -0.173 N 
ATOM      3  H2  UNL     1      59.423  37.020  23.163  1.00  0.00     0.186 HD
HETATM    4  C3  UNL     1      59.833  38.318  21.647  1.00  0.00     0.169 A 
HETATM    5  N5  UNL     1      59.231  39.218  20.800  1.00  0.00    -0.173 N 
ATOM      6  H5  UNL     1      59.820  39.707  20.126  1.00  0.00     0.186 HD
HETATM    7  C9  UNL     1      57.928  39.492  20.802  1.00  0.00     0.692 A 
HETATM    8  N7  UNL     1      57.155  38.844  21.692  1.00  0.00    -0.023 N 
ATOM      9  H7  UNL     1      56.153  39.030  21.722  1.00  0.00     0.203 HD
ENDROOT
BRANCH   4  10
HETATM   10  C4  UNL     1      61.267  38.139  21.510  1.00  0.00     0.148 A 
HETATM   11  N3  UNL     1      61.742  37.071  20.793  1.00  0.00    -0.326 N 
HETATM   12  C5  UNL     1      63.049  36.849  20.630  1.00  0.00     0.195 A 
ATOM     13  H3  UNL     1      61.075  36.425  20.371  1.00  0.00     0.168 HD
HETATM   14  C7  UNL     1      63.995  37.689  21.178  1.00  0.00     0.195 A 
HETATM   15  N4  UNL     1      63.549  38.733  21.880  1.00  0.00    -0.299 N 
HETATM   16  C8  UNL     1      62.198  38.962  22.048  1.00  0.00     0.278 A 
ATOM     17  H4  UNL     1      64.220  39.375  22.301  1.00  0.00     0.171 HD
HETATM   18  O3  UNL     1      61.902  39.962  22.718  1.00  0.00    -0.265 OA
BRANCH  12  19
HETATM   19  O1  UNL     1      63.496  35.759  19.899  1.00  0.00    -0.338 OA
HETATM   20  C6  UNL     1      63.849  35.925  18.538  1.00  0.00     0.211 C 
ENDBRANCH  12  19
BRANCH  14  21
HETATM   21  O2  UNL     1      65.356  37.475  21.020  1.00  0.00    -0.343 OA
ATOM     22  H2  UNL     1      65.886  37.996  20.427  1.00  0.00     0.219 HD
ENDBRANCH  14  21
ENDBRANCH   4  10
BRANCH   1  23
HETATM   23  N1  UNL     1      56.963  37.337  23.388  1.00  0.00    -0.230 N 
HETATM   24  C1  UNL     1      56.193  36.184  22.986  1.00  0.00     0.165 C 
ATOM     25  H1  UNL     1      56.927  37.657  24.356  1.00  0.00     0.177 HD
ENDBRANCH   1  23
BRANCH   7  26
HETATM   26  N6  UNL     1      57.378  40.339  20.002  1.00  0.00    -0.234 N 
ATOM     27  H62 UNL     1      56.363  40.326  19.894  1.00  0.00     0.174 HD
ATOM     28  H61 UNL     1      57.902  41.031  19.465  1.00  0.00     0.174 HD
ENDBRANCH   7  26
TORSDOF 5
ENDMDL
MODEL 5
REMARK VINA RESULT: -7.386389954      2.311      4.170
REMARK  5 active torsions:
REMARK  status: ('A' for Active; 'I' for Inactive)
REMARK    1  A    between atoms: N1_2  and  C2_4 
REMARK    2  A    between atoms: C3_7  and  C4_8 
REMARK    3  A    between atoms: C5_11  and  O1_12 
REMARK    4  A    between atoms: C7_14  and  O2_15 
REMARK    5  A    between atoms: C9_23  and  N6_24 
ROOT
HETATM    1  C2  UNL     1      61.951  37.473  20.810  1.00  0.00     0.694 A 
HETATM    2  N2  UNL     1      60.595  37.596  20.751  1.00  0.00    -0.173 N 
ATOM      3  H2  UNL     1      60.053  36.931  20.200  1.00  0.00     0.186 HD
HETATM    4  C3  UNL     1      59.966  38.573  21.404  1.00  0.00     0.169 A 
HETATM    5  N5  UNL     1      60.764  39.428  22.126  1.00  0.00    -0.173 N 
ATOM      6  H5  UNL     1      60.310  40.187  22.636  1.00  0.00     0.186 HD
HETATM    7  C9  UNL     1      62.089  39.332  22.202  1.00  0.00     0.692 A 
HETATM    8  N7  UNL     1      62.682  38.332  21.527  1.00  0.00    -0.023 N 
ATOM      9  H7  UNL     1      63.696  38.228  21.562  1.00  0.00     0.203 HD
ENDROOT
BRANCH   4  10
HETATM   10  C4  UNL     1      58.536  38.822  21.429  1.00  0.00     0.148 A 
HETATM   11  N3  UNL     1      57.946  39.437  20.355  1.00  0.00    -0.326 N 
HETATM   12  C5  UNL     1      56.637  39.695  20.314  1.00  0.00     0.195 A 
ATOM     13  H3  UNL     1      58.527  39.706  19.561  1.00  0.00     0.168 HD
HETATM   14  C7  UNL     1      55.804  39.354  21.358  1.00  0.00     0.195 A 
HETATM   15  N4  UNL     1      56.363  38.755  22.412  1.00  0.00    -0.299 N 
HETATM   16  C8  UNL     1      57.717  38.487  22.453  1.00  0.00     0.278 A 
ATOM     17  H4  UNL     1      55.777  38.489  23.204  1.00  0.00     0.171 HD
HETATM   18  O3  UNL     1      58.123  37.927  23.482  1.00  0.00    -0.265 OA
BRANCH  12  19
HETATM   19  O1  UNL     1      56.072  40.319  19.213  1.00  0.00    -0.338 OA
HETATM   20  C6  UNL     1      55.390  39.546  18.243  1.00  0.00     0.211 C 
ENDBRANCH  12  19
BRANCH  14  21
HETATM   21  O2  UNL     1      54.442  39.614  21.335  1.00  0.00    -0.343 OA
ATOM     22  H2  UNL     1      54.052  40.223  20.719  1.00  0.00     0.219 HD
ENDBRANCH  14  21
ENDBRANCH   4  10
BRANCH   1  23
HETATM   23  N1  UNL     1      62.508  36.516  20.163  1.00  0.00    -0.230 N 
HETATM   24  C1  UNL     1      63.943  36.475  20.011  1.00  0.00     0.165 C 
ATOM     25  H1  UNL     1      61.934  35.778  19.755  1.00  0.00     0.177 HD
ENDBRANCH   1  23
BRANCH   7  26
HETATM   26  N6  UNL     1      62.824  40.143  22.883  1.00  0.00    -0.234 N 
ATOM     27  H62 UNL     1      62.407  41.005  23.235  1.00  0.00     0.174 HD
ATOM     28  H61 UNL     1      63.808  39.972  23.092  1.00  0.00     0.174 HD
ENDBRANCH   7  26
TORSDOF 5
ENDMDL
