MODEL 1
REMARK VINA RESULT: -8.689811647      0.000      0.000
REMARK  10 active torsions:
REMARK  status: ('A' for Active; 'I' for Inactive)
REMARK    1  A    between atoms: C2_2  and  C3_3 
REMARK    2  A    between atoms: C2_2  and  C5_5 
REMARK    3  A    between atoms: C5_5  and  C6_6 
REMARK    4  A    between atoms: C6_6  and  O1_7 
REMARK    5  A    between atoms: C6_6  and  C7_9 
REMARK    6  A    between atoms: C7_9  and  O2_10 
REMARK    7  A    between atoms: C7_9  and  C8_12 
REMARK    8  A    between atoms: C14_18  and  O3_19 
REMARK    9  A    between atoms: C15_21  and  O4_22 
REMARK   10  A    between atoms: C18_26  and  O5_27 
ROOT
HETATM    1  C8  UNL     1      49.588  54.976  21.423  1.00  0.00     0.026 C 
HETATM    2  C9  UNL     1      48.214  54.357  21.076  1.00  0.00     0.008 C 
HETATM    3  C10 UNL     1      48.257  54.187  19.609  1.00  0.00     0.006 C 
HETATM    4  C11 UNL     1      49.703  53.812  19.330  1.00  0.00    -0.001 C 
HETATM    5  C12 UNL     1      49.718  52.334  19.245  1.00  0.00     0.006 C 
HETATM    6  C13 UNL     1      49.089  51.780  17.998  1.00  0.00     0.040 C 
HETATM    7  C14 UNL     1      49.546  50.341  18.005  1.00  0.00     0.148 C 
HETATM    8  C15 UNL     1      50.655  50.238  19.059  1.00  0.00     0.158 C 
HETATM    9  C16 UNL     1      51.067  51.682  19.211  1.00  0.00     0.014 C 
HETATM   10  C17 UNL     1      51.902  52.050  18.030  1.00  0.00     0.021 C 
HETATM   11  C18 UNL     1      51.700  51.997  20.538  1.00  0.00     0.130 C 
HETATM   12  C19 UNL     1      50.960  52.989  21.326  1.00  0.00     0.042 C 
HETATM   13  C20 UNL     1      50.512  54.260  20.563  1.00  0.00    -0.032 C 
HETATM   14  C21 UNL     1      51.786  54.896  20.126  1.00  0.00     0.016 C 
ENDROOT
BRANCH   1  15
HETATM   15  C7  UNL     1      49.497  56.419  21.630  1.00  0.00     0.155 C 
BRANCH  15  16
HETATM   16  C6  UNL     1      49.296  57.354  20.532  1.00  0.00     0.170 C 
BRANCH  16  17
HETATM   17  C5  UNL     1      48.446  58.567  20.747  1.00  0.00     0.013 C 
BRANCH  17  18
HETATM   18  C2  UNL     1      47.126  58.685  20.197  1.00  0.00    -0.069 C 
HETATM   19  C1  UNL     1      46.848  59.683  19.356  1.00  0.00     0.018 C 
BRANCH  18  20
HETATM   20  C3  UNL     1      46.016  57.800  20.590  1.00  0.00     0.033 C 
HETATM   21  C4  UNL     1      44.657  58.426  20.267  1.00  0.00     0.010 C 
ENDBRANCH  18  20
ENDBRANCH  17  18
ENDBRANCH  16  17
BRANCH  16  22
HETATM   22  O1  UNL     1      50.567  57.990  20.308  1.00  0.00    -0.389 OA
ATOM     23  H1  UNL     1      50.714  57.736  19.404  1.00  0.00     0.210 HD
ENDBRANCH  16  22
ENDBRANCH  15  16
BRANCH  15  24
HETATM   24  O2  UNL     1      50.522  56.817  22.486  1.00  0.00    -0.392 OA
ATOM     25  H2  UNL     1      50.199  57.308  23.233  1.00  0.00     0.210 HD
ENDBRANCH  15  24
ENDBRANCH   1  15
BRANCH  11  26
HETATM   26  O5  UNL     1      51.751  50.834  21.356  1.00  0.00    -0.395 OA
ATOM     27  H5  UNL     1      50.945  50.736  21.848  1.00  0.00     0.210 HD
ENDBRANCH  11  26
BRANCH   7  28
HETATM   28  O3  UNL     1      49.997  49.901  16.774  1.00  0.00    -0.393 OA
ATOM     29  H3  UNL     1      50.942  49.922  16.688  1.00  0.00     0.210 HD
ENDBRANCH   7  28
BRANCH   8  30
HETATM   30  O4  UNL     1      50.062  49.688  20.173  1.00  0.00    -0.392 OA
ATOM     31  H4  UNL     1      50.618  48.961  20.428  1.00  0.00     0.210 HD
ENDBRANCH   8  30
TORSDOF 10
ENDMDL
MODEL 2
REMARK VINA RESULT: -8.600814599      2.250      6.849
REMARK  10 active torsions:
REMARK  status: ('A' for Active; 'I' for Inactive)
REMARK    1  A    between atoms: C2_2  and  C3_3 
REMARK    2  A    between atoms: C2_2  and  C5_5 
REMARK    3  A    between atoms: C5_5  and  C6_6 
REMARK    4  A    between atoms: C6_6  and  O1_7 
REMARK    5  A    between atoms: C6_6  and  C7_9 
REMARK    6  A    between atoms: C7_9  and  O2_10 
REMARK    7  A    between atoms: C7_9  and  C8_12 
REMARK    8  A    between atoms: C14_18  and  O3_19 
REMARK    9  A    between atoms: C15_21  and  O4_22 
REMARK   10  A    between atoms: C18_26  and  O5_27 
ROOT
HETATM    1  C8  UNL     1      50.468  51.661  18.657  1.00  0.00     0.026 C 
HETATM    2  C9  UNL     1      51.965  52.026  18.784  1.00  0.00     0.008 C 
HETATM    3  C10 UNL     1      52.015  53.464  18.445  1.00  0.00     0.006 C 
HETATM    4  C11 UNL     1      50.723  54.017  19.024  1.00  0.00    -0.001 C 
HETATM    5  C12 UNL     1      51.090  54.577  20.344  1.00  0.00     0.006 C 
HETATM    6  C13 UNL     1      51.880  55.854  20.275  1.00  0.00     0.040 C 
HETATM    7  C14 UNL     1      51.808  56.367  21.693  1.00  0.00     0.148 C 
HETATM    8  C15 UNL     1      50.730  55.541  22.405  1.00  0.00     0.158 C 
HETATM    9  C16 UNL     1      49.956  54.979  21.237  1.00  0.00     0.014 C 
HETATM   10  C17 UNL     1      49.093  56.066  20.690  1.00  0.00     0.021 C 
HETATM   11  C18 UNL     1      49.222  53.705  21.552  1.00  0.00     0.130 C 
HETATM   12  C19 UNL     1      49.657  52.556  20.748  1.00  0.00     0.042 C 
HETATM   13  C20 UNL     1      49.787  52.808  19.226  1.00  0.00    -0.032 C 
HETATM   14  C21 UNL     1      48.407  53.162  18.791  1.00  0.00     0.016 C 
ENDROOT
BRANCH   1  15
HETATM   15  C7  UNL     1      50.179  50.988  17.393  1.00  0.00     0.155 C 
BRANCH  15  16
HETATM   16  C6  UNL     1      49.292  49.837  17.305  1.00  0.00     0.170 C 
BRANCH  16  17
HETATM   17  C5  UNL     1      47.816  50.055  17.186  1.00  0.00     0.013 C 
BRANCH  17  18
HETATM   18  C2  UNL     1      46.863  49.022  17.476  1.00  0.00    -0.069 C 
HETATM   19  C1  UNL     1      45.917  48.728  16.585  1.00  0.00     0.018 C 
BRANCH  18  20
HETATM   20  C3  UNL     1      46.818  48.320  18.770  1.00  0.00     0.033 C 
HETATM   21  C4  UNL     1      45.469  47.631  18.989  1.00  0.00     0.010 C 
ENDBRANCH  18  20
ENDBRANCH  17  18
ENDBRANCH  16  17
BRANCH  16  22
HETATM   22  O1  UNL     1      49.548  49.229  16.026  1.00  0.00    -0.389 OA
ATOM     23  H1  UNL     1      50.056  48.477  16.308  1.00  0.00     0.210 HD
ENDBRANCH  16  22
ENDBRANCH  15  16
BRANCH  15  24
HETATM   24  O2  UNL     1      51.376  50.790  16.705  1.00  0.00    -0.392 OA
ATOM     25  H2  UNL     1      51.274  50.206  15.963  1.00  0.00     0.210 HD
ENDBRANCH  15  24
ENDBRANCH   1  15
BRANCH  11  26
HETATM   26  O5  UNL     1      49.444  53.321  22.903  1.00  0.00    -0.395 OA
ATOM     27  H5  UNL     1      49.890  52.483  22.943  1.00  0.00     0.210 HD
ENDBRANCH  11  26
BRANCH   7  28
HETATM   28  O3  UNL     1      51.525  57.718  21.775  1.00  0.00    -0.393 OA
ATOM     29  H3  UNL     1      50.959  57.942  22.504  1.00  0.00     0.210 HD
ENDBRANCH   7  28
BRANCH   8  30
HETATM   30  O4  UNL     1      51.408  54.605  23.151  1.00  0.00    -0.392 OA
ATOM     31  H4  UNL     1      50.994  53.771  22.957  1.00  0.00     0.210 HD
ENDBRANCH   8  30
TORSDOF 10
ENDMDL
MODEL 3
REMARK VINA RESULT: -8.543144359      1.426      2.091
REMARK  10 active torsions:
REMARK  status: ('A' for Active; 'I' for Inactive)
REMARK    1  A    between atoms: C2_2  and  C3_3 
REMARK    2  A    between atoms: C2_2  and  C5_5 
REMARK    3  A    between atoms: C5_5  and  C6_6 
REMARK    4  A    between atoms: C6_6  and  O1_7 
REMARK    5  A    between atoms: C6_6  and  C7_9 
REMARK    6  A    between atoms: C7_9  and  O2_10 
REMARK    7  A    between atoms: C7_9  and  C8_12 
REMARK    8  A    between atoms: C14_18  and  O3_19 
REMARK    9  A    between atoms: C15_21  and  O4_22 
REMARK   10  A    between atoms: C18_26  and  O5_27 
ROOT
HETATM    1  C8  UNL     1      50.030  53.647  21.314  1.00  0.00     0.026 C 
HETATM    2  C9  UNL     1      48.530  53.770  20.956  1.00  0.00     0.008 C 
HETATM    3  C10 UNL     1      48.527  54.000  19.496  1.00  0.00     0.006 C 
HETATM    4  C11 UNL     1      49.684  53.151  18.994  1.00  0.00    -0.001 C 
HETATM    5  C12 UNL     1      49.073  51.882  18.538  1.00  0.00     0.006 C 
HETATM    6  C13 UNL     1      48.294  51.996  17.258  1.00  0.00     0.040 C 
HETATM    7  C14 UNL     1      48.098  50.554  16.858  1.00  0.00     0.148 C 
HETATM    8  C15 UNL     1      49.037  49.721  17.740  1.00  0.00     0.158 C 
HETATM    9  C16 UNL     1      50.019  50.766  18.211  1.00  0.00     0.014 C 
HETATM   10  C17 UNL     1      50.955  51.059  17.087  1.00  0.00     0.021 C 
HETATM   11  C18 UNL     1      50.697  50.421  19.508  1.00  0.00     0.130 C 
HETATM   12  C19 UNL     1      50.431  51.379  20.589  1.00  0.00     0.042 C 
HETATM   13  C20 UNL     1      50.580  52.874  20.217  1.00  0.00    -0.032 C 
HETATM   14  C21 UNL     1      52.012  53.019  19.834  1.00  0.00     0.016 C 
ENDROOT
BRANCH   1  15
HETATM   15  C7  UNL     1      50.553  54.885  21.886  1.00  0.00     0.155 C 
BRANCH  15  16
HETATM   16  C6  UNL     1      51.239  55.888  21.084  1.00  0.00     0.170 C 
BRANCH  16  17
HETATM   17  C5  UNL     1      50.474  57.071  20.578  1.00  0.00     0.013 C 
BRANCH  17  18
HETATM   18  C2  UNL     1      49.360  57.627  21.291  1.00  0.00    -0.069 C 
HETATM   19  C1  UNL     1      49.566  58.586  22.194  1.00  0.00     0.018 C 
BRANCH  18  20
HETATM   20  C3  UNL     1      47.985  57.120  21.141  1.00  0.00     0.033 C 
HETATM   21  C4  UNL     1      47.011  58.239  20.767  1.00  0.00     0.010 C 
ENDBRANCH  18  20
ENDBRANCH  17  18
ENDBRANCH  16  17
BRANCH  16  22
HETATM   22  O1  UNL     1      52.154  56.555  21.970  1.00  0.00    -0.389 OA
ATOM     23  H1  UNL     1      52.379  55.830  22.541  1.00  0.00     0.210 HD
ENDBRANCH  16  22
ENDBRANCH  15  16
BRANCH  15  24
HETATM   24  O2  UNL     1      51.243  54.582  23.059  1.00  0.00    -0.392 OA
ATOM     25  H2  UNL     1      50.676  54.215  23.728  1.00  0.00     0.210 HD
ENDBRANCH  15  24
ENDBRANCH   1  15
BRANCH  11  26
HETATM   26  O5  UNL     1      50.234  49.169  19.997  1.00  0.00    -0.395 OA
ATOM     27  H5  UNL     1      49.994  49.236  20.914  1.00  0.00     0.210 HD
ENDBRANCH  11  26
BRANCH   7  28
HETATM   28  O3  UNL     1      48.345  50.316  15.518  1.00  0.00    -0.393 OA
ATOM     29  H3  UNL     1      49.169  50.679  15.216  1.00  0.00     0.210 HD
ENDBRANCH   7  28
BRANCH   8  30
HETATM   30  O4  UNL     1      48.244  49.189  18.731  1.00  0.00    -0.392 OA
ATOM     31  H4  UNL     1      48.219  48.253  18.566  1.00  0.00     0.210 HD
ENDBRANCH   8  30
TORSDOF 10
ENDMDL
MODEL 4
REMARK VINA RESULT: -8.342817618      1.363      2.312
REMARK  10 active torsions:
REMARK  status: ('A' for Active; 'I' for Inactive)
REMARK    1  A    between atoms: C2_2  and  C3_3 
REMARK    2  A    between atoms: C2_2  and  C5_5 
REMARK    3  A    between atoms: C5_5  and  C6_6 
REMARK    4  A    between atoms: C6_6  and  O1_7 
REMARK    5  A    between atoms: C6_6  and  C7_9 
REMARK    6  A    between atoms: C7_9  and  O2_10 
REMARK    7  A    between atoms: C7_9  and  C8_12 
REMARK    8  A    between atoms: C14_18  and  O3_19 
REMARK    9  A    between atoms: C15_21  and  O4_22 
REMARK   10  A    between atoms: C18_26  and  O5_27 
ROOT
HETATM    1  C8  UNL     1      50.265  55.455  21.085  1.00  0.00     0.026 C 
HETATM    2  C9  UNL     1      50.707  54.661  22.337  1.00  0.00     0.008 C 
HETATM    3  C10 UNL     1      49.788  53.504  22.372  1.00  0.00     0.006 C 
HETATM    4  C11 UNL     1      49.577  53.165  20.906  1.00  0.00    -0.001 C 
HETATM    5  C12 UNL     1      50.532  52.072  20.613  1.00  0.00     0.006 C 
HETATM    6  C13 UNL     1      50.158  50.747  21.215  1.00  0.00     0.040 C 
HETATM    7  C14 UNL     1      51.067  49.783  20.492  1.00  0.00     0.148 C 
HETATM    8  C15 UNL     1      51.667  50.551  19.307  1.00  0.00     0.158 C 
HETATM    9  C16 UNL     1      50.702  51.704  19.170  1.00  0.00     0.014 C 
HETATM   10  C17 UNL     1      49.465  51.193  18.512  1.00  0.00     0.021 C 
HETATM   11  C18 UNL     1      51.297  52.918  18.513  1.00  0.00     0.130 C 
HETATM   12  C19 UNL     1      51.306  54.110  19.369  1.00  0.00     0.042 C 
HETATM   13  C20 UNL     1      49.981  54.421  20.108  1.00  0.00    -0.032 C 
HETATM   14  C21 UNL     1      48.997  54.662  19.017  1.00  0.00     0.016 C 
ENDROOT
BRANCH   1  15
HETATM   15  C7  UNL     1      49.435  56.603  21.437  1.00  0.00     0.155 C 
BRANCH  15  16
HETATM   16  C6  UNL     1      48.643  57.326  20.452  1.00  0.00     0.170 C 
BRANCH  16  17
HETATM   17  C5  UNL     1      47.606  58.301  20.916  1.00  0.00     0.013 C 
BRANCH  17  18
HETATM   18  C2  UNL     1      46.370  58.498  20.214  1.00  0.00    -0.069 C 
HETATM   19  C1  UNL     1      45.268  57.873  20.630  1.00  0.00     0.018 C 
BRANCH  18  20
HETATM   20  C3  UNL     1      46.273  59.296  18.980  1.00  0.00     0.033 C 
HETATM   21  C4  UNL     1      47.020  60.625  19.110  1.00  0.00     0.010 C 
ENDBRANCH  18  20
ENDBRANCH  17  18
ENDBRANCH  16  17
BRANCH  16  22
HETATM   22  O1  UNL     1      49.547  58.232  19.795  1.00  0.00    -0.389 OA
ATOM     23  H1  UNL     1      50.371  57.800  19.988  1.00  0.00     0.210 HD
ENDBRANCH  16  22
ENDBRANCH  15  16
BRANCH  15  24
HETATM   24  O2  UNL     1      50.172  57.457  22.256  1.00  0.00    -0.392 OA
ATOM     25  H2  UNL     1      50.398  57.056  23.087  1.00  0.00     0.210 HD
ENDBRANCH  15  24
ENDBRANCH   1  15
BRANCH  11  26
HETATM   26  O5  UNL     1      52.660  52.689  18.178  1.00  0.00    -0.395 OA
ATOM     27  H5  UNL     1      53.010  51.963  18.682  1.00  0.00     0.210 HD
ENDBRANCH  11  26
BRANCH   7  28
HETATM   28  O3  UNL     1      50.422  48.639  20.058  1.00  0.00    -0.393 OA
ATOM     29  H3  UNL     1      49.477  48.682  20.144  1.00  0.00     0.210 HD
ENDBRANCH   7  28
BRANCH   8  30
HETATM   30  O4  UNL     1      52.938  50.907  19.699  1.00  0.00    -0.392 OA
ATOM     31  H4  UNL     1      53.326  50.119  20.064  1.00  0.00     0.210 HD
ENDBRANCH   8  30
TORSDOF 10
ENDMDL
MODEL 5
REMARK VINA RESULT: -8.206952093      1.666      2.832
REMARK  10 active torsions:
REMARK  status: ('A' for Active; 'I' for Inactive)
REMARK    1  A    between atoms: C2_2  and  C3_3 
REMARK    2  A    between atoms: C2_2  and  C5_5 
REMARK    3  A    between atoms: C5_5  and  C6_6 
REMARK    4  A    between atoms: C6_6  and  O1_7 
REMARK    5  A    between atoms: C6_6  and  C7_9 
REMARK    6  A    between atoms: C7_9  and  O2_10 
REMARK    7  A    between atoms: C7_9  and  C8_12 
REMARK    8  A    between atoms: C14_18  and  O3_19 
REMARK    9  A    between atoms: C15_21  and  O4_22 
REMARK   10  A    between atoms: C18_26  and  O5_27 
ROOT
HETATM    1  C8  UNL     1      50.056  53.578  19.739  1.00  0.00     0.026 C 
HETATM    2  C9  UNL     1      48.523  53.765  19.652  1.00  0.00     0.008 C 
HETATM    3  C10 UNL     1      48.225  53.627  18.212  1.00  0.00     0.006 C 
HETATM    4  C11 UNL     1      49.204  52.564  17.740  1.00  0.00    -0.001 C 
HETATM    5  C12 UNL     1      48.444  51.293  17.759  1.00  0.00     0.006 C 
HETATM    6  C13 UNL     1      47.421  51.168  16.666  1.00  0.00     0.040 C 
HETATM    7  C14 UNL     1      47.069  49.701  16.705  1.00  0.00     0.148 C 
HETATM    8  C15 UNL     1      48.127  49.018  17.580  1.00  0.00     0.158 C 
HETATM    9  C16 UNL     1      49.240  50.038  17.564  1.00  0.00     0.014 C 
HETATM   10  C17 UNL     1      49.933  49.944  16.246  1.00  0.00     0.021 C 
HETATM   11  C18 UNL     1      50.158  49.954  18.752  1.00  0.00     0.130 C 
HETATM   12  C19 UNL     1      50.176  51.171  19.573  1.00  0.00     0.042 C 
HETATM   13  C20 UNL     1      50.322  52.505  18.800  1.00  0.00    -0.032 C 
HETATM   14  C21 UNL     1      51.647  52.399  18.127  1.00  0.00     0.016 C 
ENDROOT
BRANCH   1  15
HETATM   15  C7  UNL     1      50.753  54.856  19.854  1.00  0.00     0.155 C 
BRANCH  15  16
HETATM   16  C6  UNL     1      50.905  55.552  21.124  1.00  0.00     0.170 C 
BRANCH  16  17
HETATM   17  C5  UNL     1      49.684  55.964  21.886  1.00  0.00     0.013 C 
BRANCH  17  18
HETATM   18  C2  UNL     1      48.875  57.082  21.491  1.00  0.00    -0.069 C 
HETATM   19  C1  UNL     1      49.274  58.320  21.781  1.00  0.00     0.018 C 
BRANCH  18  20
HETATM   20  C3  UNL     1      47.558  56.925  20.851  1.00  0.00     0.033 C 
HETATM   21  C4  UNL     1      46.800  58.254  20.794  1.00  0.00     0.010 C 
ENDBRANCH  18  20
ENDBRANCH  17  18
ENDBRANCH  16  17
BRANCH  16  22
HETATM   22  O1  UNL     1      51.449  54.591  22.046  1.00  0.00    -0.389 OA
ATOM     23  H1  UNL     1      50.829  54.688  22.760  1.00  0.00     0.210 HD
ENDBRANCH  16  22
ENDBRANCH  15  16
BRANCH  15  24
HETATM   24  O2  UNL     1      50.316  55.701  18.835  1.00  0.00    -0.392 OA
ATOM     25  H2  UNL     1      50.688  55.472  17.991  1.00  0.00     0.210 HD
ENDBRANCH  15  24
ENDBRANCH   1  15
BRANCH  11  26
HETATM   26  O5  UNL     1      49.743  48.917  19.632  1.00  0.00    -0.395 OA
ATOM     27  H5  UNL     1      50.119  49.041  20.496  1.00  0.00     0.210 HD
ENDBRANCH  11  26
BRANCH   7  28
HETATM   28  O3  UNL     1      47.015  49.115  15.453  1.00  0.00    -0.393 OA
ATOM     29  H3  UNL     1      47.838  48.725  15.183  1.00  0.00     0.210 HD
ENDBRANCH   7  28
BRANCH   8  30
HETATM   30  O4  UNL     1      47.534  48.833  18.808  1.00  0.00    -0.392 OA
ATOM     31  H4  UNL     1      47.516  47.893  18.946  1.00  0.00     0.210 HD
ENDBRANCH   8  30
TORSDOF 10
ENDMDL
