MODEL 1
REMARK VINA RESULT: -9.199977796      0.000      0.000
REMARK  6 active torsions:
REMARK  status: ('A' for Active; 'I' for Inactive)
REMARK    1  A    between atoms: N1_1  and  C1_4 
REMARK    2  A    between atoms: C2_7  and  C3_8 
REMARK    3  A    between atoms: C3_8  and  S1_9 
REMARK    4  A    between atoms: S1_9  and  C4_10 
REMARK    5  A    between atoms: C10_16  and  C11_17 
REMARK    6  A    between atoms: C11_17  and  N3_18 
ROOT
HETATM    1  C1  UNL     1      51.532  50.196  20.241  1.00  0.00     0.677 A 
HETATM    2  N2  UNL     1      50.714  50.511  19.214  1.00  0.00    -0.194 N 
ATOM      3  H2  UNL     1      50.615  49.844  18.449  1.00  0.00     0.184 HD
HETATM    4  C2  UNL     1      50.038  51.636  19.155  1.00  0.00     0.047 A 
HETATM    5  C10 UNL     1      50.114  52.586  20.161  1.00  0.00     0.038 A 
HETATM    6  C17 UNL     1      50.927  52.296  21.205  1.00  0.00     0.124 A 
HETATM    7  N5  UNL     1      51.027  53.111  22.178  1.00  0.00    -0.385 N 
ATOM      8  H51 UNL     1      51.640  52.893  22.964  1.00  0.00     0.157 HD
ATOM      9  H52 UNL     1      50.508  53.988  22.154  1.00  0.00     0.157 HD
HETATM   10  N6  UNL     1      51.629  51.109  21.238  1.00  0.00    -0.177 N 
ATOM     11  H6  UNL     1      52.237  50.914  22.033  1.00  0.00     0.185 HD
ENDROOT
BRANCH   5  12
HETATM   12  C11 UNL     1      49.151  53.742  20.110  1.00  0.00     0.317 C 
BRANCH  12  13
HETATM   13  N3  UNL     1      49.604  54.986  20.622  1.00  0.00     0.101 N 
HETATM   14  C12 UNL     1      48.410  55.820  20.685  1.00  0.00     0.275 C 
HETATM   15  C13 UNL     1      48.717  57.250  20.925  1.00  0.00     0.050 C 
HETATM   16  C14 UNL     1      49.816  57.464  21.948  1.00  0.00     0.124 C 
HETATM   17  N4  UNL     1      51.095  57.358  21.249  1.00  0.00    -0.360 N 
HETATM   18  C15 UNL     1      51.399  56.480  20.134  1.00  0.00     0.246 C 
ATOM     19  H4  UNL     1      51.849  57.961  21.577  1.00  0.00     0.162 HD
HETATM   20  O1  UNL     1      52.559  56.489  19.703  1.00  0.00    -0.272 OA
HETATM   21  C16 UNL     1      50.409  55.598  19.509  1.00  0.00     0.374 C 
ENDBRANCH  12  13
ENDBRANCH   5  12
BRANCH   4  22
HETATM   22  C3  UNL     1      49.214  52.014  17.950  1.00  0.00     0.132 C 
BRANCH  22  23
HETATM   23  S1  UNL     1      49.045  50.522  17.014  1.00  0.00    -0.158 SA
BRANCH  23  24
HETATM   24  C4  UNL     1      47.630  49.517  17.259  1.00  0.00     0.047 C 
HETATM   25  C5  UNL     1      47.349  48.525  16.178  1.00  0.00     0.015 C 
HETATM   26  C6  UNL     1      45.804  48.383  16.218  1.00  0.00     0.001 C 
HETATM   27  C7  UNL     1      45.345  48.576  17.628  1.00  0.00     0.000 C 
HETATM   28  C8  UNL     1      46.367  48.000  18.613  1.00  0.00     0.001 C 
HETATM   29  C9  UNL     1      47.664  48.784  18.599  1.00  0.00     0.015 C 
ENDBRANCH  23  24
ENDBRANCH  22  23
ENDBRANCH   4  22
BRANCH   1  30
HETATM   30  N1  UNL     1      52.235  49.094  20.283  1.00  0.00    -0.234 N 
ATOM     31  H12 UNL     1      52.550  48.651  19.420  1.00  0.00     0.174 HD
ATOM     32  H11 UNL     1      52.475  48.618  21.153  1.00  0.00     0.174 HD
ENDBRANCH   1  30
TORSDOF 6
ENDMDL
MODEL 2
REMARK VINA RESULT: -9.104966992      3.047      7.102
REMARK  6 active torsions:
REMARK  status: ('A' for Active; 'I' for Inactive)
REMARK    1  A    between atoms: N1_1  and  C1_4 
REMARK    2  A    between atoms: C2_7  and  C3_8 
REMARK    3  A    between atoms: C3_8  and  S1_9 
REMARK    4  A    between atoms: S1_9  and  C4_10 
REMARK    5  A    between atoms: C10_16  and  C11_17 
REMARK    6  A    between atoms: C11_17  and  N3_18 
ROOT
HETATM    1  C1  UNL     1      51.281  57.125  21.469  1.00  0.00     0.677 A 
HETATM    2  N2  UNL     1      50.412  56.981  20.445  1.00  0.00    -0.194 N 
ATOM      3  H2  UNL     1      50.245  57.780  19.834  1.00  0.00     0.184 HD
HETATM    4  C2  UNL     1      49.774  55.860  20.200  1.00  0.00     0.047 A 
HETATM    5  C10 UNL     1      49.957  54.730  20.980  1.00  0.00     0.038 A 
HETATM    6  C17 UNL     1      50.825  54.845  22.014  1.00  0.00     0.124 A 
HETATM    7  N5  UNL     1      51.063  53.841  22.759  1.00  0.00    -0.385 N 
ATOM      8  H51 UNL     1      51.716  53.927  23.538  1.00  0.00     0.157 HD
ATOM      9  H52 UNL     1      50.580  52.959  22.583  1.00  0.00     0.157 HD
HETATM   10  N6  UNL     1      51.478  56.036  22.253  1.00  0.00    -0.177 N 
ATOM     11  H6  UNL     1      52.124  56.100  23.038  1.00  0.00     0.185 HD
ENDROOT
BRANCH   5  12
HETATM   12  C11 UNL     1      49.348  53.439  20.503  1.00  0.00     0.317 C 
BRANCH  12  13
HETATM   13  N3  UNL     1      50.146  52.617  19.665  1.00  0.00     0.101 N 
HETATM   14  C12 UNL     1      49.230  52.125  18.643  1.00  0.00     0.275 C 
HETATM   15  C13 UNL     1      49.803  51.023  17.835  1.00  0.00     0.050 C 
HETATM   16  C14 UNL     1      51.259  51.241  17.471  1.00  0.00     0.124 C 
HETATM   17  N4  UNL     1      52.069  50.773  18.594  1.00  0.00    -0.360 N 
HETATM   18  C15 UNL     1      51.726  50.861  20.001  1.00  0.00     0.246 C 
ATOM     19  H4  UNL     1      52.965  50.343  18.366  1.00  0.00     0.162 HD
HETATM   20  O1  UNL     1      52.564  50.458  20.817  1.00  0.00    -0.272 OA
HETATM   21  C16 UNL     1      50.451  51.396  20.488  1.00  0.00     0.374 C 
ENDBRANCH  12  13
ENDBRANCH   5  12
BRANCH   4  22
HETATM   22  C3  UNL     1      48.730  55.753  19.117  1.00  0.00     0.132 C 
BRANCH  22  23
HETATM   23  S1  UNL     1      48.425  57.416  18.595  1.00  0.00    -0.158 SA
BRANCH  23  24
HETATM   24  C4  UNL     1      46.929  58.197  19.070  1.00  0.00     0.047 C 
HETATM   25  C5  UNL     1      46.580  58.094  20.519  1.00  0.00     0.015 C 
HETATM   26  C6  UNL     1      45.028  58.121  20.514  1.00  0.00     0.001 C 
HETATM   27  C7  UNL     1      44.571  58.967  19.368  1.00  0.00     0.000 C 
HETATM   28  C8  UNL     1      45.532  60.139  19.145  1.00  0.00     0.001 C 
HETATM   29  C9  UNL     1      46.889  59.668  18.661  1.00  0.00     0.015 C 
ENDBRANCH  23  24
ENDBRANCH  22  23
ENDBRANCH   4  22
BRANCH   1  30
HETATM   30  N1  UNL     1      51.889  58.252  21.738  1.00  0.00    -0.234 N 
ATOM     31  H12 UNL     1      51.349  59.084  21.975  1.00  0.00     0.174 HD
ATOM     32  H11 UNL     1      52.902  58.363  21.700  1.00  0.00     0.174 HD
ENDBRANCH   1  30
TORSDOF 6
ENDMDL
MODEL 3
REMARK VINA RESULT: -8.673384464      1.131      1.395
REMARK  6 active torsions:
REMARK  status: ('A' for Active; 'I' for Inactive)
REMARK    1  A    between atoms: N1_1  and  C1_4 
REMARK    2  A    between atoms: C2_7  and  C3_8 
REMARK    3  A    between atoms: C3_8  and  S1_9 
REMARK    4  A    between atoms: S1_9  and  C4_10 
REMARK    5  A    between atoms: C10_16  and  C11_17 
REMARK    6  A    between atoms: C11_17  and  N3_18 
ROOT
HETATM    1  C1  UNL     1      50.801  49.230  20.692  1.00  0.00     0.677 A 
HETATM    2  N2  UNL     1      50.558  49.453  19.383  1.00  0.00    -0.194 N 
ATOM      3  H2  UNL     1      50.375  48.652  18.780  1.00  0.00     0.184 HD
HETATM    4  C2  UNL     1      50.544  50.654  18.851  1.00  0.00     0.047 A 
HETATM    5  C10 UNL     1      50.772  51.790  19.610  1.00  0.00     0.038 A 
HETATM    6  C17 UNL     1      51.018  51.598  20.927  1.00  0.00     0.124 A 
HETATM    7  N5  UNL     1      51.212  52.597  21.691  1.00  0.00    -0.385 N 
ATOM      8  H51 UNL     1      51.398  52.452  22.684  1.00  0.00     0.157 HD
ATOM      9  H52 UNL     1      51.202  53.538  21.298  1.00  0.00     0.157 HD
HETATM   10  N6  UNL     1      51.032  50.325  21.459  1.00  0.00    -0.177 N 
ATOM     11  H6  UNL     1      51.222  50.204  22.453  1.00  0.00     0.185 HD
ENDROOT
BRANCH   5  12
HETATM   12  C11 UNL     1      50.531  53.127  18.962  1.00  0.00     0.317 C 
BRANCH  12  13
HETATM   13  N3  UNL     1      50.249  54.222  19.821  1.00  0.00     0.101 N 
HETATM   14  C12 UNL     1      48.956  54.724  19.372  1.00  0.00     0.275 C 
HETATM   15  C13 UNL     1      48.615  56.044  19.955  1.00  0.00     0.050 C 
HETATM   16  C14 UNL     1      48.979  56.162  21.422  1.00  0.00     0.124 C 
HETATM   17  N4  UNL     1      50.386  56.548  21.498  1.00  0.00    -0.360 N 
HETATM   18  C15 UNL     1      51.443  56.138  20.592  1.00  0.00     0.246 C 
ATOM     19  H4  UNL     1      50.652  57.167  22.264  1.00  0.00     0.162 HD
HETATM   20  O1  UNL     1      52.591  56.524  20.846  1.00  0.00    -0.272 OA
HETATM   21  C16 UNL     1      51.213  55.301  19.411  1.00  0.00     0.374 C 
ENDBRANCH  12  13
ENDBRANCH   5  12
BRANCH   4  22
HETATM   22  C3  UNL     1      50.375  50.871  17.368  1.00  0.00     0.132 C 
BRANCH  22  23
HETATM   23  S1  UNL     1      48.629  51.002  17.111  1.00  0.00    -0.158 SA
BRANCH  23  24
HETATM   24  C4  UNL     1      47.626  49.584  17.339  1.00  0.00     0.047 C 
HETATM   25  C5  UNL     1      46.203  49.724  16.903  1.00  0.00     0.015 C 
HETATM   26  C6  UNL     1      45.442  48.768  17.860  1.00  0.00     0.001 C 
HETATM   27  C7  UNL     1      46.341  47.622  18.202  1.00  0.00     0.000 C 
HETATM   28  C8  UNL     1      47.220  47.249  17.004  1.00  0.00     0.001 C 
HETATM   29  C9  UNL     1      48.220  48.341  16.679  1.00  0.00     0.015 C 
ENDBRANCH  23  24
ENDBRANCH  22  23
ENDBRANCH   4  22
BRANCH   1  30
HETATM   30  N1  UNL     1      50.853  48.033  21.217  1.00  0.00    -0.234 N 
ATOM     31  H12 UNL     1      51.502  47.833  21.978  1.00  0.00     0.174 HD
ATOM     32  H11 UNL     1      50.286  47.253  20.885  1.00  0.00     0.174 HD
ENDBRANCH   1  30
TORSDOF 6
ENDMDL
MODEL 4
REMARK VINA RESULT: -8.639890670      3.111      6.970
REMARK  6 active torsions:
REMARK  status: ('A' for Active; 'I' for Inactive)
REMARK    1  A    between atoms: N1_1  and  C1_4 
REMARK    2  A    between atoms: C2_7  and  C3_8 
REMARK    3  A    between atoms: C3_8  and  S1_9 
REMARK    4  A    between atoms: S1_9  and  C4_10 
REMARK    5  A    between atoms: C10_16  and  C11_17 
REMARK    6  A    between atoms: C11_17  and  N3_18 
ROOT
HETATM    1  C1  UNL     1      51.509  57.349  21.514  1.00  0.00     0.677 A 
HETATM    2  N2  UNL     1      50.628  57.285  20.492  1.00  0.00    -0.194 N 
ATOM      3  H2  UNL     1      50.511  58.106  19.899  1.00  0.00     0.184 HD
HETATM    4  C2  UNL     1      49.916  56.214  20.227  1.00  0.00     0.047 A 
HETATM    5  C10 UNL     1      50.028  55.058  20.982  1.00  0.00     0.038 A 
HETATM    6  C17 UNL     1      50.906  55.093  22.013  1.00  0.00     0.124 A 
HETATM    7  N5  UNL     1      51.080  54.059  22.735  1.00  0.00    -0.385 N 
ATOM      8  H51 UNL     1      51.741  54.085  23.512  1.00  0.00     0.157 HD
ATOM      9  H52 UNL     1      50.540  53.215  22.543  1.00  0.00     0.157 HD
HETATM   10  N6  UNL     1      51.637  56.233  22.273  1.00  0.00    -0.177 N 
ATOM     11  H6  UNL     1      52.290  56.237  23.056  1.00  0.00     0.185 HD
ENDROOT
BRANCH   5  12
HETATM   12  C11 UNL     1      49.333  53.821  20.480  1.00  0.00     0.317 C 
BRANCH  12  13
HETATM   13  N3  UNL     1      50.095  52.928  19.680  1.00  0.00     0.101 N 
HETATM   14  C12 UNL     1      49.158  52.437  18.676  1.00  0.00     0.275 C 
HETATM   15  C13 UNL     1      49.683  51.277  17.917  1.00  0.00     0.050 C 
HETATM   16  C14 UNL     1      51.147  51.414  17.550  1.00  0.00     0.124 C 
HETATM   17  N4  UNL     1      51.934  50.957  18.694  1.00  0.00    -0.360 N 
HETATM   18  C15 UNL     1      51.592  51.119  20.095  1.00  0.00     0.246 C 
ATOM     19  H4  UNL     1      52.810  50.477  18.487  1.00  0.00     0.162 HD
HETATM   20  O1  UNL     1      52.410  50.713  20.930  1.00  0.00    -0.272 OA
HETATM   21  C16 UNL     1      50.342  51.731  20.555  1.00  0.00     0.374 C 
ENDBRANCH  12  13
ENDBRANCH   5  12
BRANCH   4  22
HETATM   22  C3  UNL     1      48.862  56.199  19.148  1.00  0.00     0.132 C 
BRANCH  22  23
HETATM   23  S1  UNL     1      48.438  57.897  18.887  1.00  0.00    -0.158 SA
BRANCH  23  24
HETATM   24  C4  UNL     1      46.770  58.398  19.083  1.00  0.00     0.047 C 
HETATM   25  C5  UNL     1      45.864  58.086  17.936  1.00  0.00     0.015 C 
HETATM   26  C6  UNL     1      44.811  59.224  17.995  1.00  0.00     0.001 C 
HETATM   27  C7  UNL     1      44.618  59.621  19.424  1.00  0.00     0.000 C 
HETATM   28  C8  UNL     1      44.735  58.402  20.343  1.00  0.00     0.001 C 
HETATM   29  C9  UNL     1      46.145  57.847  20.363  1.00  0.00     0.015 C 
ENDBRANCH  23  24
ENDBRANCH  22  23
ENDBRANCH   4  22
BRANCH   1  30
HETATM   30  N1  UNL     1      52.191  58.427  21.804  1.00  0.00    -0.234 N 
ATOM     31  H12 UNL     1      53.049  58.645  21.297  1.00  0.00     0.174 HD
ATOM     32  H11 UNL     1      51.925  59.073  22.547  1.00  0.00     0.174 HD
ENDBRANCH   1  30
TORSDOF 6
ENDMDL
MODEL 5
REMARK VINA RESULT: -8.548190583      2.959      7.136
REMARK  6 active torsions:
REMARK  status: ('A' for Active; 'I' for Inactive)
REMARK    1  A    between atoms: N1_1  and  C1_4 
REMARK    2  A    between atoms: C2_7  and  C3_8 
REMARK    3  A    between atoms: C3_8  and  S1_9 
REMARK    4  A    between atoms: S1_9  and  C4_10 
REMARK    5  A    between atoms: C10_16  and  C11_17 
REMARK    6  A    between atoms: C11_17  and  N3_18 
ROOT
HETATM    1  C1  UNL     1      50.790  54.179  22.140  1.00  0.00     0.677 A 
HETATM    2  N2  UNL     1      50.130  54.834  21.161  1.00  0.00    -0.194 N 
ATOM      3  H2  UNL     1      49.818  55.788  21.340  1.00  0.00     0.184 HD
HETATM    4  C2  UNL     1      49.872  54.300  19.989  1.00  0.00     0.047 A 
HETATM    5  C10 UNL     1      50.273  53.013  19.670  1.00  0.00     0.038 A 
HETATM    6  C17 UNL     1      50.939  52.332  20.632  1.00  0.00     0.124 A 
HETATM    7  N5  UNL     1      51.361  51.153  20.402  1.00  0.00    -0.385 N 
ATOM      8  H51 UNL     1      51.862  50.640  21.126  1.00  0.00     0.157 HD
ATOM      9  H52 UNL     1      51.174  50.722  19.496  1.00  0.00     0.157 HD
HETATM   10  N6  UNL     1      51.192  52.915  21.857  1.00  0.00    -0.177 N 
ATOM     11  H6  UNL     1      51.693  52.382  22.567  1.00  0.00     0.185 HD
ENDROOT
BRANCH   5  12
HETATM   12  C11 UNL     1      50.120  52.563  18.242  1.00  0.00     0.317 C 
BRANCH  12  13
HETATM   13  N3  UNL     1      49.188  51.523  17.986  1.00  0.00     0.101 N 
HETATM   14  C12 UNL     1      49.921  50.556  17.178  1.00  0.00     0.275 C 
HETATM   15  C13 UNL     1      49.043  49.530  16.567  1.00  0.00     0.050 C 
HETATM   16  C14 UNL     1      47.960  49.033  17.505  1.00  0.00     0.124 C 
HETATM   17  N4  UNL     1      46.841  49.969  17.423  1.00  0.00    -0.360 N 
HETATM   18  C15 UNL     1      46.929  51.404  17.228  1.00  0.00     0.246 C 
ATOM     19  H4  UNL     1      45.905  49.574  17.512  1.00  0.00     0.162 HD
HETATM   20  O1  UNL     1      45.871  52.045  17.239  1.00  0.00    -0.272 OA
HETATM   21  C16 UNL     1      48.195  52.114  17.023  1.00  0.00     0.374 C 
ENDBRANCH  12  13
ENDBRANCH   5  12
BRANCH   4  22
HETATM   22  C3  UNL     1      49.041  55.011  18.950  1.00  0.00     0.132 C 
BRANCH  22  23
HETATM   23  S1  UNL     1      49.170  56.731  19.346  1.00  0.00    -0.158 SA
BRANCH  23  24
HETATM   24  C4  UNL     1      47.705  57.681  19.499  1.00  0.00     0.047 C 
HETATM   25  C5  UNL     1      47.138  57.773  20.878  1.00  0.00     0.015 C 
HETATM   26  C6  UNL     1      45.614  57.927  20.627  1.00  0.00     0.001 C 
HETATM   27  C7  UNL     1      45.416  58.671  19.344  1.00  0.00     0.000 C 
HETATM   28  C8  UNL     1      46.510  59.727  19.159  1.00  0.00     0.001 C 
HETATM   29  C9  UNL     1      47.870  59.094  18.943  1.00  0.00     0.015 C 
ENDBRANCH  23  24
ENDBRANCH  22  23
ENDBRANCH   4  22
BRANCH   1  30
HETATM   30  N1  UNL     1      51.015  54.694  23.321  1.00  0.00    -0.234 N 
ATOM     31  H12 UNL     1      50.300  55.259  23.780  1.00  0.00     0.174 HD
ATOM     32  H11 UNL     1      51.899  54.587  23.818  1.00  0.00     0.174 HD
ENDBRANCH   1  30
TORSDOF 6
ENDMDL
