MODEL 1
REMARK VINA RESULT: -5.842440041      0.000      0.000
REMARK  7 active torsions:
REMARK  status: ('A' for Active; 'I' for Inactive)
REMARK    1  A    between atoms: C2_2  and  N1_3 
REMARK    2  A    between atoms: N1_3  and  C3_4 
REMARK    3  A    between atoms: N1_3  and  C8_10 
REMARK    4  A    between atoms: C3_4  and  C4_5 
REMARK    5  A    between atoms: C4_5  and  C5_6 
REMARK    6  A    between atoms: C5_6  and  N2_7 
REMARK    7  A    between atoms: C8_10  and  C9_11 
ROOT
HETATM    1  C9  UNL     1      49.068  50.493  17.779  1.00  0.00     0.122 C 
HETATM    2  C10 UNL     1      48.479  51.277  18.960  1.00  0.00     0.041 C 
HETATM    3  C11 UNL     1      49.510  52.211  19.554  1.00  0.00     0.084 C 
HETATM    4  S1  UNL     1      51.106  51.300  19.622  1.00  0.00    -0.095 SA
HETATM    5  C12 UNL     1      50.653  49.567  19.389  1.00  0.00     0.134 C 
HETATM    6  N3  UNL     1      51.172  48.631  20.069  1.00  0.00    -0.380 N 
ATOM      7  H31 UNL     1      50.916  47.653  19.938  1.00  0.00     0.158 HD
ATOM      8  H32 UNL     1      51.876  48.809  20.786  1.00  0.00     0.158 HD
HETATM    9  N4  UNL     1      49.656  49.314  18.374  1.00  0.00    -0.362 N 
ATOM     10  H4  UNL     1      49.386  48.370  18.097  1.00  0.00     0.162 HD
ENDROOT
BRANCH   1  11
HETATM   11  C8  UNL     1      47.992  50.249  16.796  1.00  0.00     0.083 C 
BRANCH  11  12
HETATM   12  N1  UNL     1      46.691  49.986  17.241  1.00  0.00    -0.391 N 
BRANCH  12  13
HETATM   13  C2  UNL     1      45.712  50.995  17.029  1.00  0.00     0.117 C 
HETATM   14  C1  UNL     1      46.025  51.884  15.853  1.00  0.00     0.026 C 
ENDBRANCH  12  13
BRANCH  12  15
HETATM   15  C3  UNL     1      46.209  48.649  17.177  1.00  0.00     0.127 C 
BRANCH  15  16
HETATM   16  C4  UNL     1      44.842  48.430  17.771  1.00  0.00     0.064 C 
BRANCH  16  17
HETATM   17  C5  UNL     1      44.827  47.551  18.981  1.00  0.00     0.058 C 
BRANCH  17  18
HETATM   18  N2  UNL     1      43.800  46.595  18.877  1.00  0.00    -0.402 N 
HETATM   19  C6  UNL     1      43.277  46.270  17.610  1.00  0.00     0.148 C 
HETATM   20  C7  UNL     1      43.144  46.149  20.035  1.00  0.00     0.148 C 
ENDBRANCH  17  18
ENDBRANCH  16  17
ENDBRANCH  15  16
ENDBRANCH  12  15
ENDBRANCH  11  12
ENDBRANCH   1  11
TORSDOF 7
ENDMDL
MODEL 2
REMARK VINA RESULT: -5.839503913      5.508      7.899
REMARK  7 active torsions:
REMARK  status: ('A' for Active; 'I' for Inactive)
REMARK    1  A    between atoms: C2_2  and  N1_3 
REMARK    2  A    between atoms: N1_3  and  C3_4 
REMARK    3  A    between atoms: N1_3  and  C8_10 
REMARK    4  A    between atoms: C3_4  and  C4_5 
REMARK    5  A    between atoms: C4_5  and  C5_6 
REMARK    6  A    between atoms: C5_6  and  N2_7 
REMARK    7  A    between atoms: C8_10  and  C9_11 
ROOT
HETATM    1  C9  UNL     1      49.961  53.610  21.394  1.00  0.00     0.122 C 
HETATM    2  C10 UNL     1      50.752  53.584  20.078  1.00  0.00     0.041 C 
HETATM    3  C11 UNL     1      50.031  52.761  19.033  1.00  0.00     0.084 C 
HETATM    4  S1  UNL     1      49.379  51.258  19.867  1.00  0.00    -0.095 SA
HETATM    5  C12 UNL     1      50.264  51.187  21.439  1.00  0.00     0.134 C 
HETATM    6  N3  UNL     1      50.721  50.104  21.914  1.00  0.00    -0.380 N 
ATOM      7  H31 UNL     1      51.222  50.064  22.802  1.00  0.00     0.158 HD
ATOM      8  H32 UNL     1      50.611  49.212  21.431  1.00  0.00     0.158 HD
HETATM    9  N4  UNL     1      50.421  52.450  22.125  1.00  0.00    -0.362 N 
ATOM     10  H4  UNL     1      50.827  52.519  23.057  1.00  0.00     0.162 HD
ENDROOT
BRANCH   1  11
HETATM   11  C8  UNL     1      50.188  54.914  22.050  1.00  0.00     0.083 C 
BRANCH  11  12
HETATM   12  N1  UNL     1      49.541  56.057  21.567  1.00  0.00    -0.391 N 
BRANCH  12  13
HETATM   13  C2  UNL     1      50.352  57.068  20.982  1.00  0.00     0.117 C 
HETATM   14  C1  UNL     1      51.815  56.918  21.313  1.00  0.00     0.026 C 
ENDBRANCH  12  13
BRANCH  12  15
HETATM   15  C3  UNL     1      48.245  55.914  20.998  1.00  0.00     0.127 C 
BRANCH  15  16
HETATM   16  C4  UNL     1      47.417  57.172  20.964  1.00  0.00     0.064 C 
BRANCH  16  17
HETATM   17  C5  UNL     1      46.030  56.986  20.433  1.00  0.00     0.058 C 
BRANCH  17  18
HETATM   18  N2  UNL     1      45.790  57.877  19.371  1.00  0.00    -0.402 N 
HETATM   19  C6  UNL     1      46.847  58.658  18.865  1.00  0.00     0.148 C 
HETATM   20  C7  UNL     1      44.470  58.157  18.983  1.00  0.00     0.148 C 
ENDBRANCH  17  18
ENDBRANCH  16  17
ENDBRANCH  15  16
ENDBRANCH  12  15
ENDBRANCH  11  12
ENDBRANCH   1  11
TORSDOF 7
ENDMDL
MODEL 3
REMARK VINA RESULT: -5.789224241      1.380      1.955
REMARK  7 active torsions:
REMARK  status: ('A' for Active; 'I' for Inactive)
REMARK    1  A    between atoms: C2_2  and  N1_3 
REMARK    2  A    between atoms: N1_3  and  C3_4 
REMARK    3  A    between atoms: N1_3  and  C8_10 
REMARK    4  A    between atoms: C3_4  and  C4_5 
REMARK    5  A    between atoms: C4_5  and  C5_6 
REMARK    6  A    between atoms: C5_6  and  N2_7 
REMARK    7  A    between atoms: C8_10  and  C9_11 
ROOT
HETATM    1  C9  UNL     1      49.230  49.566  17.980  1.00  0.00     0.122 C 
HETATM    2  C10 UNL     1      48.480  50.826  18.435  1.00  0.00     0.041 C 
HETATM    3  C11 UNL     1      49.356  52.052  18.302  1.00  0.00     0.084 C 
HETATM    4  S1  UNL     1      51.039  51.593  18.886  1.00  0.00    -0.095 SA
HETATM    5  C12 UNL     1      50.804  50.044  19.784  1.00  0.00     0.134 C 
HETATM    6  N3  UNL     1      51.383  49.803  20.886  1.00  0.00    -0.380 N 
ATOM      7  H31 UNL     1      51.251  48.929  21.394  1.00  0.00     0.158 HD
ATOM      8  H32 UNL     1      52.014  50.474  21.324  1.00  0.00     0.158 HD
HETATM    9  N4  UNL     1      49.911  49.092  19.164  1.00  0.00    -0.362 N 
ATOM     10  H4  UNL     1      49.769  48.153  19.536  1.00  0.00     0.162 HD
ENDROOT
BRANCH   1  11
HETATM   11  C8  UNL     1      48.254  48.631  17.382  1.00  0.00     0.083 C 
BRANCH  11  12
HETATM   12  N1  UNL     1      47.406  49.071  16.360  1.00  0.00    -0.391 N 
BRANCH  12  13
HETATM   13  C2  UNL     1      47.951  49.151  15.048  1.00  0.00     0.117 C 
HETATM   14  C1  UNL     1      48.743  47.928  14.662  1.00  0.00     0.026 C 
ENDBRANCH  12  13
BRANCH  12  15
HETATM   15  C3  UNL     1      46.028  48.723  16.424  1.00  0.00     0.127 C 
BRANCH  15  16
HETATM   16  C4  UNL     1      45.593  48.058  17.704  1.00  0.00     0.064 C 
BRANCH  16  17
HETATM   17  C5  UNL     1      44.139  48.212  18.018  1.00  0.00     0.058 C 
BRANCH  17  18
HETATM   18  N2  UNL     1      43.541  46.951  18.196  1.00  0.00    -0.402 N 
HETATM   19  C6  UNL     1      43.422  46.414  19.492  1.00  0.00     0.148 C 
HETATM   20  C7  UNL     1      43.285  46.139  17.080  1.00  0.00     0.148 C 
ENDBRANCH  17  18
ENDBRANCH  16  17
ENDBRANCH  15  16
ENDBRANCH  12  15
ENDBRANCH  11  12
ENDBRANCH   1  11
TORSDOF 7
ENDMDL
MODEL 4
REMARK VINA RESULT: -5.773297848      3.062      5.638
REMARK  7 active torsions:
REMARK  status: ('A' for Active; 'I' for Inactive)
REMARK    1  A    between atoms: C2_2  and  N1_3 
REMARK    2  A    between atoms: N1_3  and  C3_4 
REMARK    3  A    between atoms: N1_3  and  C8_10 
REMARK    4  A    between atoms: C3_4  and  C4_5 
REMARK    5  A    between atoms: C4_5  and  C5_6 
REMARK    6  A    between atoms: C5_6  and  N2_7 
REMARK    7  A    between atoms: C8_10  and  C9_11 
ROOT
HETATM    1  C9  UNL     1      48.217  51.199  18.351  1.00  0.00     0.122 C 
HETATM    2  C10 UNL     1      46.850  50.927  17.708  1.00  0.00     0.041 C 
HETATM    3  C11 UNL     1      46.460  49.474  17.867  1.00  0.00     0.084 C 
HETATM    4  S1  UNL     1      47.962  48.461  17.552  1.00  0.00    -0.095 SA
HETATM    5  C12 UNL     1      49.116  49.593  16.746  1.00  0.00     0.134 C 
HETATM    6  N3  UNL     1      49.825  49.248  15.753  1.00  0.00    -0.380 N 
ATOM      7  H31 UNL     1      50.476  49.888  15.298  1.00  0.00     0.158 HD
ATOM      8  H32 UNL     1      49.780  48.310  15.357  1.00  0.00     0.158 HD
HETATM    9  N4  UNL     1      49.179  50.923  17.308  1.00  0.00    -0.362 N 
ATOM     10  H4  UNL     1      49.854  51.619  16.990  1.00  0.00     0.162 HD
ENDROOT
BRANCH   1  11
HETATM   11  C8  UNL     1      48.219  52.580  18.878  1.00  0.00     0.083 C 
BRANCH  11  12
HETATM   12  N1  UNL     1      49.268  53.008  19.700  1.00  0.00    -0.391 N 
BRANCH  12  13
HETATM   13  C2  UNL     1      50.123  54.024  19.191  1.00  0.00     0.117 C 
HETATM   14  C1  UNL     1      50.822  54.806  20.273  1.00  0.00     0.026 C 
ENDBRANCH  12  13
BRANCH  12  15
HETATM   15  C3  UNL     1      49.059  53.040  21.107  1.00  0.00     0.127 C 
BRANCH  15  16
HETATM   16  C4  UNL     1      49.346  51.748  21.827  1.00  0.00     0.064 C 
BRANCH  16  17
HETATM   17  C5  UNL     1      50.668  51.133  21.492  1.00  0.00     0.058 C 
BRANCH  17  18
HETATM   18  N2  UNL     1      50.481  49.920  20.804  1.00  0.00    -0.402 N 
HETATM   19  C6  UNL     1      49.484  49.023  21.231  1.00  0.00     0.148 C 
HETATM   20  C7  UNL     1      51.431  49.505  19.856  1.00  0.00     0.148 C 
ENDBRANCH  17  18
ENDBRANCH  16  17
ENDBRANCH  15  16
ENDBRANCH  12  15
ENDBRANCH  11  12
ENDBRANCH   1  11
TORSDOF 7
ENDMDL
MODEL 5
REMARK VINA RESULT: -5.747120127      1.155      1.468
REMARK  7 active torsions:
REMARK  status: ('A' for Active; 'I' for Inactive)
REMARK    1  A    between atoms: C2_2  and  N1_3 
REMARK    2  A    between atoms: N1_3  and  C3_4 
REMARK    3  A    between atoms: N1_3  and  C8_10 
REMARK    4  A    between atoms: C3_4  and  C4_5 
REMARK    5  A    between atoms: C4_5  and  C5_6 
REMARK    6  A    between atoms: C5_6  and  N2_7 
REMARK    7  A    between atoms: C8_10  and  C9_11 
ROOT
HETATM    1  C9  UNL     1      49.317  49.745  18.457  1.00  0.00     0.122 C 
HETATM    2  C10 UNL     1      48.652  51.000  19.042  1.00  0.00     0.041 C 
HETATM    3  C11 UNL     1      49.632  51.785  19.885  1.00  0.00     0.084 C 
HETATM    4  S1  UNL     1      50.595  50.576  20.882  1.00  0.00    -0.095 SA
HETATM    5  C12 UNL     1      49.654  49.039  20.770  1.00  0.00     0.134 C 
HETATM    6  N3  UNL     1      49.465  48.284  21.771  1.00  0.00    -0.380 N 
ATOM      7  H31 UNL     1      48.933  47.416  21.709  1.00  0.00     0.158 HD
ATOM      8  H32 UNL     1      49.836  48.506  22.694  1.00  0.00     0.158 HD
HETATM    9  N4  UNL     1      49.127  48.723  19.462  1.00  0.00    -0.362 N 
ATOM     10  H4  UNL     1      48.655  47.842  19.262  1.00  0.00     0.162 HD
ENDROOT
BRANCH   1  11
HETATM   11  C8  UNL     1      48.714  49.468  17.137  1.00  0.00     0.083 C 
BRANCH  11  12
HETATM   12  N1  UNL     1      47.322  49.421  17.005  1.00  0.00    -0.391 N 
BRANCH  12  13
HETATM   13  C2  UNL     1      46.723  50.311  16.072  1.00  0.00     0.117 C 
HETATM   14  C1  UNL     1      45.826  51.334  16.722  1.00  0.00     0.026 C 
ENDBRANCH  12  13
BRANCH  12  15
HETATM   15  C3  UNL     1      46.669  48.165  17.150  1.00  0.00     0.127 C 
BRANCH  15  16
HETATM   16  C4  UNL     1      45.733  48.060  18.326  1.00  0.00     0.064 C 
BRANCH  16  17
HETATM   17  C5  UNL     1      44.283  48.175  17.975  1.00  0.00     0.058 C 
BRANCH  17  18
HETATM   18  N2  UNL     1      43.628  46.950  18.196  1.00  0.00    -0.402 N 
HETATM   19  C6  UNL     1      43.466  46.475  19.512  1.00  0.00     0.148 C 
HETATM   20  C7  UNL     1      43.354  46.101  17.111  1.00  0.00     0.148 C 
ENDBRANCH  17  18
ENDBRANCH  16  17
ENDBRANCH  15  16
ENDBRANCH  12  15
ENDBRANCH  11  12
ENDBRANCH   1  11
TORSDOF 7
ENDMDL
