MODEL 1
REMARK VINA RESULT: -6.480619975      0.000      0.000
REMARK  5 active torsions:
REMARK  status: ('A' for Active; 'I' for Inactive)
REMARK    1  A    between atoms: C1_2  and  C2_4 
REMARK       I    between atoms: C2_4  and  N1_6 
REMARK    2  A    between atoms: N1_6  and  C3_8 
REMARK    3  A    between atoms: C8_13  and  O3_14 
REMARK    4  A    between atoms: O3_14  and  C9_15 
REMARK    5  A    between atoms: C9_15  and  C10_16 
ROOT
HETATM    1  C3  UNL     1      47.997  48.459  16.181  1.00  0.00     0.114 C 
HETATM    2  C4  UNL     1      48.688  47.784  15.011  1.00  0.00     0.028 C 
HETATM    3  C5  UNL     1      47.915  48.179  13.797  1.00  0.00     0.002 C 
HETATM    4  C6  UNL     1      46.490  47.770  13.855  1.00  0.00     0.003 C 
HETATM    5  C7  UNL     1      45.790  47.940  15.130  1.00  0.00     0.034 C 
HETATM    6  C8  UNL     1      46.648  47.891  16.380  1.00  0.00     0.144 C 
ENDROOT
BRANCH   1   7
HETATM    7  N1  UNL     1      48.822  48.515  17.333  1.00  0.00    -0.347 N 
HETATM    8  C2  UNL     1      49.214  49.732  17.957  1.00  0.00     0.299 C 
HETATM    9  O2  UNL     1      48.797  50.802  17.444  1.00  0.00    -0.263 OA
ATOM     10  H1  UNL     1      49.150  47.638  17.734  1.00  0.00     0.163 HD
BRANCH   8  11
HETATM   11  C1  UNL     1      50.061  49.780  19.140  1.00  0.00     0.287 C 
HETATM   12  O1  UNL     1      51.181  50.347  19.109  1.00  0.00    -0.274 OA
HETATM   13  S1  UNL     1      49.519  49.029  20.664  1.00  0.00    -0.001 SA
ENDBRANCH   8  11
ENDBRANCH   1   7
BRANCH   6  14
HETATM   14  O3  UNL     1      46.000  48.583  17.382  1.00  0.00    -0.383 OA
BRANCH  14  15
HETATM   15  C9  UNL     1      45.504  47.890  18.431  1.00  0.00     0.172 C 
BRANCH  15  16
HETATM   16  C10 UNL     1      44.035  47.668  18.458  1.00  0.00     0.009 A 
HETATM   17  C11 UNL     1      43.633  46.543  19.425  1.00  0.00     0.007 A 
HETATM   18  C12 UNL     1      43.351  46.476  17.957  1.00  0.00     0.007 A 
ENDBRANCH  15  16
ENDBRANCH  14  15
ENDBRANCH   6  14
TORSDOF 5
ENDMDL
MODEL 2
REMARK VINA RESULT: -6.286104786      4.516      6.975
REMARK  5 active torsions:
REMARK  status: ('A' for Active; 'I' for Inactive)
REMARK    1  A    between atoms: C1_2  and  C2_4 
REMARK       I    between atoms: C2_4  and  N1_6 
REMARK    2  A    between atoms: N1_6  and  C3_8 
REMARK    3  A    between atoms: C8_13  and  O3_14 
REMARK    4  A    between atoms: O3_14  and  C9_15 
REMARK    5  A    between atoms: C9_15  and  C10_16 
ROOT
HETATM    1  C3  UNL     1      49.530  54.018  20.893  1.00  0.00     0.114 C 
HETATM    2  C4  UNL     1      50.500  55.080  21.377  1.00  0.00     0.028 C 
HETATM    3  C5  UNL     1      49.673  56.088  22.103  1.00  0.00     0.002 C 
HETATM    4  C6  UNL     1      48.624  56.703  21.252  1.00  0.00     0.003 C 
HETATM    5  C7  UNL     1      47.887  55.821  20.345  1.00  0.00     0.034 C 
HETATM    6  C8  UNL     1      48.620  54.578  19.873  1.00  0.00     0.144 C 
ENDROOT
BRANCH   1   7
HETATM    7  N1  UNL     1      50.185  52.811  20.543  1.00  0.00    -0.347 N 
HETATM    8  C2  UNL     1      50.009  51.590  21.252  1.00  0.00     0.299 C 
HETATM    9  O2  UNL     1      49.227  51.604  22.237  1.00  0.00    -0.263 OA
ATOM     10  H1  UNL     1      50.815  52.818  19.742  1.00  0.00     0.163 HD
BRANCH   8  11
HETATM   11  C1  UNL     1      50.686  50.355  20.885  1.00  0.00     0.287 C 
HETATM   12  O1  UNL     1      51.914  50.344  20.624  1.00  0.00    -0.274 OA
HETATM   13  S1  UNL     1      49.776  48.823  20.799  1.00  0.00    -0.001 SA
ENDBRANCH   8  11
ENDBRANCH   1   7
BRANCH   6  14
HETATM   14  O3  UNL     1      47.684  53.628  19.519  1.00  0.00    -0.383 OA
BRANCH  14  15
HETATM   15  C9  UNL     1      47.587  53.270  18.219  1.00  0.00     0.172 C 
BRANCH  15  16
HETATM   16  C10 UNL     1      47.295  51.840  17.935  1.00  0.00     0.009 A 
HETATM   17  C11 UNL     1      46.956  51.597  16.456  1.00  0.00     0.007 A 
HETATM   18  C12 UNL     1      45.988  51.303  17.559  1.00  0.00     0.007 A 
ENDBRANCH  15  16
ENDBRANCH  14  15
ENDBRANCH   6  14
TORSDOF 5
ENDMDL
MODEL 3
REMARK VINA RESULT: -6.084789078      2.662      3.810
REMARK  5 active torsions:
REMARK  status: ('A' for Active; 'I' for Inactive)
REMARK    1  A    between atoms: C1_2  and  C2_4 
REMARK       I    between atoms: C2_4  and  N1_6 
REMARK    2  A    between atoms: N1_6  and  C3_8 
REMARK    3  A    between atoms: C8_13  and  O3_14 
REMARK    4  A    between atoms: O3_14  and  C9_15 
REMARK    5  A    between atoms: C9_15  and  C10_16 
ROOT
HETATM    1  C3  UNL     1      48.572  49.177  16.899  1.00  0.00     0.114 C 
HETATM    2  C4  UNL     1      48.181  47.811  16.367  1.00  0.00     0.028 C 
HETATM    3  C5  UNL     1      48.098  47.958  14.884  1.00  0.00     0.002 C 
HETATM    4  C6  UNL     1      47.108  48.977  14.454  1.00  0.00     0.003 C 
HETATM    5  C7  UNL     1      47.052  50.227  15.215  1.00  0.00     0.034 C 
HETATM    6  C8  UNL     1      47.485  50.150  16.668  1.00  0.00     0.144 C 
ENDROOT
BRANCH   1   7
HETATM    7  N1  UNL     1      49.077  49.114  18.221  1.00  0.00    -0.347 N 
HETATM    8  C2  UNL     1      50.278  49.754  18.634  1.00  0.00     0.299 C 
HETATM    9  O2  UNL     1      50.910  50.406  17.763  1.00  0.00    -0.263 OA
ATOM     10  H1  UNL     1      48.550  48.581  18.914  1.00  0.00     0.163 HD
BRANCH   8  11
HETATM   11  C1  UNL     1      50.788  49.685  19.995  1.00  0.00     0.287 C 
HETATM   12  O1  UNL     1      51.989  49.951  20.248  1.00  0.00    -0.274 OA
HETATM   13  S1  UNL     1      49.710  49.216  21.336  1.00  0.00    -0.001 SA
ENDBRANCH   8  11
ENDBRANCH   1   7
BRANCH   6  14
HETATM   14  O3  UNL     1      47.897  51.404  17.067  1.00  0.00    -0.383 OA
BRANCH  14  15
HETATM   15  C9  UNL     1      47.309  51.965  18.148  1.00  0.00     0.172 C 
BRANCH  15  16
HETATM   16  C10 UNL     1      48.028  53.091  18.798  1.00  0.00     0.009 A 
HETATM   17  C11 UNL     1      48.549  52.720  20.196  1.00  0.00     0.007 A 
HETATM   18  C12 UNL     1      47.563  53.823  19.975  1.00  0.00     0.007 A 
ENDBRANCH  15  16
ENDBRANCH  14  15
ENDBRANCH   6  14
TORSDOF 5
ENDMDL
MODEL 4
REMARK VINA RESULT: -6.064698791      2.961      5.526
REMARK  5 active torsions:
REMARK  status: ('A' for Active; 'I' for Inactive)
REMARK    1  A    between atoms: C1_2  and  C2_4 
REMARK       I    between atoms: C2_4  and  N1_6 
REMARK    2  A    between atoms: N1_6  and  C3_8 
REMARK    3  A    between atoms: C8_13  and  O3_14 
REMARK    4  A    between atoms: O3_14  and  C9_15 
REMARK    5  A    between atoms: C9_15  and  C10_16 
ROOT
HETATM    1  C3  UNL     1      45.596  49.754  17.269  1.00  0.00     0.114 C 
HETATM    2  C4  UNL     1      44.897  51.098  17.193  1.00  0.00     0.028 C 
HETATM    3  C5  UNL     1      45.685  51.914  16.222  1.00  0.00     0.002 C 
HETATM    4  C6  UNL     1      47.101  52.095  16.628  1.00  0.00     0.003 C 
HETATM    5  C7  UNL     1      47.798  50.935  17.186  1.00  0.00     0.034 C 
HETATM    6  C8  UNL     1      46.932  49.902  17.883  1.00  0.00     0.144 C 
ENDROOT
BRANCH   1   7
HETATM    7  N1  UNL     1      44.767  48.748  17.825  1.00  0.00    -0.347 N 
HETATM    8  C2  UNL     1      44.267  47.644  17.081  1.00  0.00     0.299 C 
HETATM    9  O2  UNL     1      44.591  47.575  15.866  1.00  0.00    -0.263 OA
ATOM     10  H1  UNL     1      44.515  48.820  18.811  1.00  0.00     0.163 HD
BRANCH   8  11
HETATM   11  C1  UNL     1      43.416  46.615  17.660  1.00  0.00     0.287 C 
HETATM   12  O1  UNL     1      42.671  45.911  16.935  1.00  0.00    -0.274 OA
HETATM   13  S1  UNL     1      43.417  46.334  19.421  1.00  0.00    -0.001 SA
ENDBRANCH   8  11
ENDBRANCH   1   7
BRANCH   6  14
HETATM   14  O3  UNL     1      47.589  48.689  17.854  1.00  0.00    -0.383 OA
BRANCH  14  15
HETATM   15  C9  UNL     1      48.537  48.491  16.911  1.00  0.00     0.172 C 
BRANCH  15  16
HETATM   16  C10 UNL     1      48.172  47.623  15.761  1.00  0.00     0.009 A 
HETATM   17  C11 UNL     1      49.205  47.692  14.626  1.00  0.00     0.007 A 
HETATM   18  C12 UNL     1      47.777  48.098  14.435  1.00  0.00     0.007 A 
ENDBRANCH  15  16
ENDBRANCH  14  15
ENDBRANCH   6  14
TORSDOF 5
ENDMDL
MODEL 5
REMARK VINA RESULT: -6.048597704      3.030      5.597
REMARK  5 active torsions:
REMARK  status: ('A' for Active; 'I' for Inactive)
REMARK    1  A    between atoms: C1_2  and  C2_4 
REMARK       I    between atoms: C2_4  and  N1_6 
REMARK    2  A    between atoms: N1_6  and  C3_8 
REMARK    3  A    between atoms: C8_13  and  O3_14 
REMARK    4  A    between atoms: O3_14  and  C9_15 
REMARK    5  A    between atoms: C9_15  and  C10_16 
ROOT
HETATM    1  C3  UNL     1      49.363  49.865  19.372  1.00  0.00     0.114 C 
HETATM    2  C4  UNL     1      50.728  49.600  19.980  1.00  0.00     0.028 C 
HETATM    3  C5  UNL     1      50.689  50.194  21.349  1.00  0.00     0.002 C 
HETATM    4  C6  UNL     1      50.406  51.651  21.343  1.00  0.00     0.003 C 
HETATM    5  C7  UNL     1      49.380  52.136  20.417  1.00  0.00     0.034 C 
HETATM    6  C8  UNL     1      49.167  51.314  19.160  1.00  0.00     0.144 C 
ENDROOT
BRANCH   1   7
HETATM    7  N1  UNL     1      49.102  49.033  18.255  1.00  0.00    -0.347 N 
HETATM    8  C2  UNL     1      47.909  48.273  18.106  1.00  0.00     0.299 C 
HETATM    9  O2  UNL     1      47.054  48.357  19.026  1.00  0.00    -0.263 OA
ATOM     10  H1  UNL     1      49.806  48.978  17.519  1.00  0.00     0.163 HD
BRANCH   8  11
HETATM   11  C1  UNL     1      47.648  47.422  16.955  1.00  0.00     0.287 C 
HETATM   12  O1  UNL     1      46.971  46.371  17.070  1.00  0.00    -0.274 OA
HETATM   13  S1  UNL     1      48.291  47.859  15.350  1.00  0.00    -0.001 SA
ENDBRANCH   8  11
ENDBRANCH   1   7
BRANCH   6  14
HETATM   14  O3  UNL     1      47.886  51.542  18.701  1.00  0.00    -0.383 OA
BRANCH  14  15
HETATM   15  C9  UNL     1      47.726  52.214  17.539  1.00  0.00     0.172 C 
BRANCH  15  16
HETATM   16  C10 UNL     1      47.103  51.472  16.412  1.00  0.00     0.009 A 
HETATM   17  C11 UNL     1      45.931  52.242  15.783  1.00  0.00     0.007 A 
HETATM   18  C12 UNL     1      45.757  50.899  16.419  1.00  0.00     0.007 A 
ENDBRANCH  15  16
ENDBRANCH  14  15
ENDBRANCH   6  14
TORSDOF 5
ENDMDL
