MODEL 1
REMARK VINA RESULT: -7.725802733      0.000      0.000
REMARK  14 active torsions:
REMARK  status: ('A' for Active; 'I' for Inactive)
REMARK    1  A    between atoms: C5_5  and  O1_6 
REMARK    2  A    between atoms: O1_6  and  C6_7 
REMARK    3  A    between atoms: C6_7  and  C7_9 
REMARK    4  A    between atoms: C7_9  and  C8_10 
REMARK    5  A    between atoms: C8_10  and  C9_11 
REMARK    6  A    between atoms: C13_15  and  O3_16 
REMARK    7  A    between atoms: O3_16  and  C14_17 
REMARK    8  A    between atoms: C14_17  and  C15_19 
REMARK    9  A    between atoms: C15_19  and  C16_20 
REMARK   10  A    between atoms: C16_20  and  C17_21 
REMARK   11  A    between atoms: C17_21  and  C18_22 
REMARK   12  A    between atoms: C18_22  and  C19_23 
REMARK   13  A    between atoms: C23_29  and  O7_30 
REMARK   14  A    between atoms: C27_36  and  O9_37 
ROOT
HETATM    1  C1  UNL     1      51.219  54.751  22.227  1.00  0.00     0.017 C 
HETATM    2  C2  UNL     1      51.028  54.345  20.985  1.00  0.00    -0.047 C 
HETATM    3  C3  UNL     1      51.576  55.108  19.832  1.00  0.00     0.039 C 
HETATM    4  C4  UNL     1      50.483  55.648  18.926  1.00  0.00     0.037 C 
HETATM    5  C5  UNL     1      49.298  54.731  19.087  1.00  0.00     0.140 C 
HETATM    6  C11 UNL     1      49.840  53.318  19.182  1.00  0.00     0.064 C 
HETATM    7  C12 UNL     1      48.877  52.297  18.681  1.00  0.00     0.048 C 
HETATM    8  C13 UNL     1      49.412  51.374  17.637  1.00  0.00     0.161 C 
HETATM    9  C20 UNL     1      50.809  50.923  17.855  1.00  0.00    -0.056 C 
HETATM   10  C21 UNL     1      51.829  51.324  16.827  1.00  0.00     0.046 C 
HETATM   11  C22 UNL     1      51.207  50.200  18.881  1.00  0.00     0.010 C 
HETATM   12  C23 UNL     1      50.370  49.705  19.995  1.00  0.00     0.152 C 
HETATM   13  C24 UNL     1      50.663  50.547  21.198  1.00  0.00     0.087 C 
HETATM   14  C25 UNL     1      49.533  50.595  22.194  1.00  0.00     0.021 C 
HETATM   15  C26 UNL     1      51.127  51.927  20.806  1.00  0.00     0.172 C 
HETATM   16  O8  UNL     1      52.327  52.091  20.607  1.00  0.00    -0.294 OA
HETATM   17  C27 UNL     1      50.254  53.091  20.645  1.00  0.00     0.147 C 
ENDROOT
BRANCH   8  18
HETATM   18  O3  UNL     1      48.511  50.258  17.554  1.00  0.00    -0.311 OA
BRANCH  18  19
HETATM   19  C14 UNL     1      48.528  49.377  16.481  1.00  0.00     0.259 C 
HETATM   20  O4  UNL     1      48.497  49.904  15.338  1.00  0.00    -0.265 OA
BRANCH  19  21
HETATM   21  C15 UNL     1      48.581  47.905  16.656  1.00  0.00     0.111 C 
BRANCH  21  22
HETATM   22  C16 UNL     1      48.072  47.494  18.020  1.00  0.00     0.010 C 
BRANCH  22  23
HETATM   23  C17 UNL     1      46.583  47.575  18.106  1.00  0.00     0.011 C 
BRANCH  23  24
HETATM   24  C18 UNL     1      46.045  48.119  19.390  1.00  0.00     0.113 C 
BRANCH  24  25
HETATM   25  C19 UNL     1      44.993  47.321  20.027  1.00  0.00     0.172 C 
HETATM   26  O5  UNL     1      44.909  47.090  21.249  1.00  0.00    -0.648 OA
HETATM   27  O6  UNL     1      44.011  46.776  19.209  1.00  0.00    -0.648 OA
ENDBRANCH  24  25
ENDBRANCH  23  24
ENDBRANCH  22  23
ENDBRANCH  21  22
ENDBRANCH  19  21
ENDBRANCH  18  19
ENDBRANCH   8  18
BRANCH   5  28
HETATM   28  O1  UNL     1      48.292  54.908  18.157  1.00  0.00    -0.316 OA
BRANCH  28  29
HETATM   29  C6  UNL     1      47.779  56.124  17.775  1.00  0.00     0.259 C 
HETATM   30  O2  UNL     1      48.071  56.488  16.603  1.00  0.00    -0.265 OA
BRANCH  29  31
HETATM   31  C7  UNL     1      46.931  56.976  18.667  1.00  0.00     0.111 C 
BRANCH  31  32
HETATM   32  C8  UNL     1      47.796  57.917  19.461  1.00  0.00     0.009 C 
BRANCH  32  33
HETATM   33  C9  UNL     1      47.645  57.546  20.938  1.00  0.00    -0.004 C 
HETATM   34  C10 UNL     1      48.971  57.654  21.657  1.00  0.00     0.005 C 
ENDBRANCH  32  33
ENDBRANCH  31  32
ENDBRANCH  29  31
ENDBRANCH  28  29
ENDBRANCH   5  28
BRANCH  17  35
HETATM   35  O9  UNL     1      49.135  53.097  21.443  1.00  0.00    -0.377 OA
ATOM     36  H9  UNL     1      48.414  53.379  20.893  1.00  0.00     0.211 HD
ENDBRANCH  17  35
BRANCH  12  37
HETATM   37  O7  UNL     1      50.792  48.388  20.290  1.00  0.00    -0.391 OA
ATOM     38  H7  UNL     1      50.726  48.271  21.231  1.00  0.00     0.210 HD
ENDBRANCH  12  37
TORSDOF 14
ENDMDL
MODEL 2
REMARK VINA RESULT: -7.344002180      1.526      2.424
REMARK  14 active torsions:
REMARK  status: ('A' for Active; 'I' for Inactive)
REMARK    1  A    between atoms: C5_5  and  O1_6 
REMARK    2  A    between atoms: O1_6  and  C6_7 
REMARK    3  A    between atoms: C6_7  and  C7_9 
REMARK    4  A    between atoms: C7_9  and  C8_10 
REMARK    5  A    between atoms: C8_10  and  C9_11 
REMARK    6  A    between atoms: C13_15  and  O3_16 
REMARK    7  A    between atoms: O3_16  and  C14_17 
REMARK    8  A    between atoms: C14_17  and  C15_19 
REMARK    9  A    between atoms: C15_19  and  C16_20 
REMARK   10  A    between atoms: C16_20  and  C17_21 
REMARK   11  A    between atoms: C17_21  and  C18_22 
REMARK   12  A    between atoms: C18_22  and  C19_23 
REMARK   13  A    between atoms: C23_29  and  O7_30 
REMARK   14  A    between atoms: C27_36  and  O9_37 
ROOT
HETATM    1  C1  UNL     1      50.918  54.873  21.700  1.00  0.00     0.017 C 
HETATM    2  C2  UNL     1      50.705  54.327  20.516  1.00  0.00    -0.047 C 
HETATM    3  C3  UNL     1      50.835  55.123  19.266  1.00  0.00     0.039 C 
HETATM    4  C4  UNL     1      49.522  55.232  18.512  1.00  0.00     0.037 C 
HETATM    5  C5  UNL     1      48.711  54.016  18.880  1.00  0.00     0.140 C 
HETATM    6  C11 UNL     1      49.673  52.845  18.949  1.00  0.00     0.064 C 
HETATM    7  C12 UNL     1      49.017  51.544  18.635  1.00  0.00     0.048 C 
HETATM    8  C13 UNL     1      49.674  50.743  17.560  1.00  0.00     0.161 C 
HETATM    9  C20 UNL     1      51.158  50.754  17.586  1.00  0.00    -0.056 C 
HETATM   10  C21 UNL     1      51.862  51.358  16.405  1.00  0.00     0.046 C 
HETATM   11  C22 UNL     1      51.889  50.272  18.569  1.00  0.00     0.010 C 
HETATM   12  C23 UNL     1      51.397  49.640  19.813  1.00  0.00     0.152 C 
HETATM   13  C24 UNL     1      51.567  50.627  20.927  1.00  0.00     0.087 C 
HETATM   14  C25 UNL     1      50.615  50.413  22.076  1.00  0.00     0.021 C 
HETATM   15  C26 UNL     1      51.525  52.046  20.417  1.00  0.00     0.172 C 
HETATM   16  O8  UNL     1      52.579  52.548  20.037  1.00  0.00    -0.294 OA
HETATM   17  C27 UNL     1      50.321  52.875  20.342  1.00  0.00     0.147 C 
ENDROOT
BRANCH   8  18
HETATM   18  O3  UNL     1      49.161  49.404  17.654  1.00  0.00    -0.311 OA
BRANCH  18  19
HETATM   19  C14 UNL     1      48.526  48.783  16.586  1.00  0.00     0.259 C 
HETATM   20  O4  UNL     1      48.712  49.308  15.458  1.00  0.00    -0.265 OA
BRANCH  19  21
HETATM   21  C15 UNL     1      47.681  47.575  16.753  1.00  0.00     0.111 C 
BRANCH  21  22
HETATM   22  C16 UNL     1      46.210  47.928  16.755  1.00  0.00     0.010 C 
BRANCH  22  23
HETATM   23  C17 UNL     1      45.822  48.690  17.980  1.00  0.00     0.011 C 
BRANCH  23  24
HETATM   24  C18 UNL     1      46.071  47.988  19.276  1.00  0.00     0.113 C 
BRANCH  24  25
HETATM   25  C19 UNL     1      44.910  47.316  19.867  1.00  0.00     0.172 C 
HETATM   26  O5  UNL     1      43.925  46.893  19.230  1.00  0.00    -0.648 OA
HETATM   27  O6  UNL     1      44.901  47.133  21.244  1.00  0.00    -0.648 OA
ENDBRANCH  24  25
ENDBRANCH  23  24
ENDBRANCH  22  23
ENDBRANCH  21  22
ENDBRANCH  19  21
ENDBRANCH  18  19
ENDBRANCH   8  18
BRANCH   5  28
HETATM   28  O1  UNL     1      47.589  53.804  18.104  1.00  0.00    -0.316 OA
BRANCH  28  29
HETATM   29  C6  UNL     1      47.448  54.208  16.798  1.00  0.00     0.259 C 
HETATM   30  O2  UNL     1      47.479  53.282  15.941  1.00  0.00    -0.265 OA
BRANCH  29  31
HETATM   31  C7  UNL     1      47.270  55.638  16.394  1.00  0.00     0.111 C 
BRANCH  31  32
HETATM   32  C8  UNL     1      46.304  55.734  15.244  1.00  0.00     0.009 C 
BRANCH  32  33
HETATM   33  C9  UNL     1      46.849  56.785  14.272  1.00  0.00    -0.004 C 
HETATM   34  C10 UNL     1      45.950  56.914  13.063  1.00  0.00     0.005 C 
ENDBRANCH  32  33
ENDBRANCH  31  32
ENDBRANCH  29  31
ENDBRANCH  28  29
ENDBRANCH   5  28
BRANCH  17  35
HETATM   35  O9  UNL     1      49.368  52.608  21.297  1.00  0.00    -0.377 OA
ATOM     36  H9  UNL     1      49.618  51.787  21.704  1.00  0.00     0.211 HD
ENDBRANCH  17  35
BRANCH  12  37
HETATM   37  O7  UNL     1      52.242  48.541  20.093  1.00  0.00    -0.391 OA
ATOM     38  H7  UNL     1      52.273  47.998  19.313  1.00  0.00     0.210 HD
ENDBRANCH  12  37
TORSDOF 14
ENDMDL
MODEL 3
REMARK VINA RESULT: -7.335420043      1.085      1.430
REMARK  14 active torsions:
REMARK  status: ('A' for Active; 'I' for Inactive)
REMARK    1  A    between atoms: C5_5  and  O1_6 
REMARK    2  A    between atoms: O1_6  and  C6_7 
REMARK    3  A    between atoms: C6_7  and  C7_9 
REMARK    4  A    between atoms: C7_9  and  C8_10 
REMARK    5  A    between atoms: C8_10  and  C9_11 
REMARK    6  A    between atoms: C13_15  and  O3_16 
REMARK    7  A    between atoms: O3_16  and  C14_17 
REMARK    8  A    between atoms: C14_17  and  C15_19 
REMARK    9  A    between atoms: C15_19  and  C16_20 
REMARK   10  A    between atoms: C16_20  and  C17_21 
REMARK   11  A    between atoms: C17_21  and  C18_22 
REMARK   12  A    between atoms: C18_22  and  C19_23 
REMARK   13  A    between atoms: C23_29  and  O7_30 
REMARK   14  A    between atoms: C27_36  and  O9_37 
ROOT
HETATM    1  C1  UNL     1      51.021  54.822  22.013  1.00  0.00     0.017 C 
HETATM    2  C2  UNL     1      50.878  54.356  20.786  1.00  0.00    -0.047 C 
HETATM    3  C3  UNL     1      51.357  55.128  19.607  1.00  0.00     0.039 C 
HETATM    4  C4  UNL     1      50.222  55.528  18.681  1.00  0.00     0.037 C 
HETATM    5  C5  UNL     1      49.131  54.506  18.870  1.00  0.00     0.140 C 
HETATM    6  C11 UNL     1      49.806  53.156  19.016  1.00  0.00     0.064 C 
HETATM    7  C12 UNL     1      48.949  52.030  18.549  1.00  0.00     0.048 C 
HETATM    8  C13 UNL     1      49.578  51.128  17.540  1.00  0.00     0.161 C 
HETATM    9  C20 UNL     1      51.011  50.822  17.777  1.00  0.00    -0.056 C 
HETATM   10  C21 UNL     1      51.993  51.284  16.739  1.00  0.00     0.046 C 
HETATM   11  C22 UNL     1      51.470  50.177  18.829  1.00  0.00     0.010 C 
HETATM   12  C23 UNL     1      50.678  49.642  19.957  1.00  0.00     0.152 C 
HETATM   13  C24 UNL     1      50.881  50.550  21.131  1.00  0.00     0.087 C 
HETATM   14  C25 UNL     1      49.745  50.523  22.122  1.00  0.00     0.021 C 
HETATM   15  C26 UNL     1      51.212  51.954  20.692  1.00  0.00     0.172 C 
HETATM   16  O8  UNL     1      52.392  52.227  20.490  1.00  0.00    -0.294 OA
HETATM   17  C27 UNL     1      50.231  53.022  20.487  1.00  0.00     0.147 C 
ENDROOT
BRANCH   8  18
HETATM   18  O3  UNL     1      48.790  49.927  17.494  1.00  0.00    -0.311 OA
BRANCH  18  19
HETATM   19  C14 UNL     1      48.127  49.525  16.341  1.00  0.00     0.259 C 
HETATM   20  O4  UNL     1      48.818  49.514  15.288  1.00  0.00    -0.265 OA
BRANCH  19  21
HETATM   21  C15 UNL     1      46.698  49.130  16.337  1.00  0.00     0.111 C 
BRANCH  21  22
HETATM   22  C16 UNL     1      46.029  49.469  17.651  1.00  0.00     0.010 C 
BRANCH  22  23
HETATM   23  C17 UNL     1      45.381  48.274  18.271  1.00  0.00     0.011 C 
BRANCH  23  24
HETATM   24  C18 UNL     1      45.824  47.956  19.662  1.00  0.00     0.113 C 
BRANCH  24  25
HETATM   25  C19 UNL     1      44.876  47.182  20.469  1.00  0.00     0.172 C 
HETATM   26  O5  UNL     1      43.834  46.649  20.038  1.00  0.00    -0.648 OA
HETATM   27  O6  UNL     1      45.154  47.027  21.822  1.00  0.00    -0.648 OA
ENDBRANCH  24  25
ENDBRANCH  23  24
ENDBRANCH  22  23
ENDBRANCH  21  22
ENDBRANCH  19  21
ENDBRANCH  18  19
ENDBRANCH   8  18
BRANCH   5  28
HETATM   28  O1  UNL     1      48.118  54.552  17.932  1.00  0.00    -0.316 OA
BRANCH  28  29
HETATM   29  C6  UNL     1      47.678  55.693  17.305  1.00  0.00     0.259 C 
HETATM   30  O2  UNL     1      47.527  55.597  16.056  1.00  0.00    -0.265 OA
BRANCH  29  31
HETATM   31  C7  UNL     1      47.389  56.970  18.029  1.00  0.00     0.111 C 
BRANCH  31  32
HETATM   32  C8  UNL     1      46.466  57.833  17.211  1.00  0.00     0.009 C 
BRANCH  32  33
HETATM   33  C9  UNL     1      45.876  58.891  18.146  1.00  0.00    -0.004 C 
HETATM   34  C10 UNL     1      44.967  58.253  19.172  1.00  0.00     0.005 C 
ENDBRANCH  32  33
ENDBRANCH  31  32
ENDBRANCH  29  31
ENDBRANCH  28  29
ENDBRANCH   5  28
BRANCH  17  35
HETATM   35  O9  UNL     1      49.112  52.947  21.282  1.00  0.00    -0.377 OA
ATOM     36  H9  UNL     1      48.713  52.104  21.104  1.00  0.00     0.211 HD
ENDBRANCH  17  35
BRANCH  12  37
HETATM   37  O7  UNL     1      51.225  48.383  20.300  1.00  0.00    -0.391 OA
ATOM     38  H7  UNL     1      50.698  48.027  21.007  1.00  0.00     0.210 HD
ENDBRANCH  12  37
TORSDOF 14
ENDMDL
MODEL 4
REMARK VINA RESULT: -7.297435795      1.976      7.185
REMARK  14 active torsions:
REMARK  status: ('A' for Active; 'I' for Inactive)
REMARK    1  A    between atoms: C5_5  and  O1_6 
REMARK    2  A    between atoms: O1_6  and  C6_7 
REMARK    3  A    between atoms: C6_7  and  C7_9 
REMARK    4  A    between atoms: C7_9  and  C8_10 
REMARK    5  A    between atoms: C8_10  and  C9_11 
REMARK    6  A    between atoms: C13_15  and  O3_16 
REMARK    7  A    between atoms: O3_16  and  C14_17 
REMARK    8  A    between atoms: C14_17  and  C15_19 
REMARK    9  A    between atoms: C15_19  and  C16_20 
REMARK   10  A    between atoms: C16_20  and  C17_21 
REMARK   11  A    between atoms: C17_21  and  C18_22 
REMARK   12  A    between atoms: C18_22  and  C19_23 
REMARK   13  A    between atoms: C23_29  and  O7_30 
REMARK   14  A    between atoms: C27_36  and  O9_37 
ROOT
HETATM    1  C1  UNL     1      51.531  49.090  20.162  1.00  0.00     0.017 C 
HETATM    2  C2  UNL     1      50.470  49.842  19.932  1.00  0.00    -0.047 C 
HETATM    3  C3  UNL     1      49.139  49.490  20.495  1.00  0.00     0.039 C 
HETATM    4  C4  UNL     1      48.115  49.193  19.413  1.00  0.00     0.037 C 
HETATM    5  C5  UNL     1      48.546  49.960  18.190  1.00  0.00     0.140 C 
HETATM    6  C11 UNL     1      49.062  51.304  18.667  1.00  0.00     0.064 C 
HETATM    7  C12 UNL     1      48.894  52.379  17.649  1.00  0.00     0.048 C 
HETATM    8  C13 UNL     1      48.176  53.599  18.123  1.00  0.00     0.161 C 
HETATM    9  C20 UNL     1      48.517  54.032  19.501  1.00  0.00    -0.056 C 
HETATM   10  C21 UNL     1      47.414  54.010  20.521  1.00  0.00     0.046 C 
HETATM   11  C22 UNL     1      49.712  54.431  19.881  1.00  0.00     0.010 C 
HETATM   12  C23 UNL     1      50.925  54.527  19.040  1.00  0.00     0.152 C 
HETATM   13  C24 UNL     1      51.819  53.377  19.393  1.00  0.00     0.087 C 
HETATM   14  C25 UNL     1      52.756  52.975  18.283  1.00  0.00     0.021 C 
HETATM   15  C26 UNL     1      51.027  52.204  19.915  1.00  0.00     0.172 C 
HETATM   16  O8  UNL     1      50.786  52.167  21.118  1.00  0.00    -0.294 OA
HETATM   17  C27 UNL     1      50.524  51.100  19.094  1.00  0.00     0.147 C 
ENDROOT
BRANCH   8  18
HETATM   18  O3  UNL     1      48.435  54.642  17.169  1.00  0.00    -0.311 OA
BRANCH  18  19
HETATM   19  C14 UNL     1      47.410  55.306  16.508  1.00  0.00     0.259 C 
HETATM   20  O4  UNL     1      46.629  54.580  15.839  1.00  0.00    -0.265 OA
BRANCH  19  21
HETATM   21  C15 UNL     1      47.234  56.777  16.580  1.00  0.00     0.111 C 
BRANCH  21  22
HETATM   22  C16 UNL     1      46.671  57.200  17.919  1.00  0.00     0.010 C 
BRANCH  22  23
HETATM   23  C17 UNL     1      47.738  57.697  18.840  1.00  0.00     0.011 C 
BRANCH  23  24
HETATM   24  C18 UNL     1      47.428  57.584  20.298  1.00  0.00     0.113 C 
BRANCH  24  25
HETATM   25  C19 UNL     1      48.556  57.810  21.206  1.00  0.00     0.172 C 
HETATM   26  O5  UNL     1      48.459  58.185  22.391  1.00  0.00    -0.648 OA
HETATM   27  O6  UNL     1      49.837  57.591  20.712  1.00  0.00    -0.648 OA
ENDBRANCH  24  25
ENDBRANCH  23  24
ENDBRANCH  22  23
ENDBRANCH  21  22
ENDBRANCH  19  21
ENDBRANCH  18  19
ENDBRANCH   8  18
BRANCH   5  28
HETATM   28  O1  UNL     1      47.609  50.021  17.178  1.00  0.00    -0.316 OA
BRANCH  28  29
HETATM   29  C6  UNL     1      46.609  49.100  16.975  1.00  0.00     0.259 C 
HETATM   30  O2  UNL     1      46.778  48.329  15.990  1.00  0.00    -0.265 OA
BRANCH  29  31
HETATM   31  C7  UNL     1      45.396  48.998  17.845  1.00  0.00     0.111 C 
BRANCH  31  32
HETATM   32  C8  UNL     1      44.881  47.584  17.852  1.00  0.00     0.009 C 
BRANCH  32  33
HETATM   33  C9  UNL     1      44.059  47.400  19.130  1.00  0.00    -0.004 C 
HETATM   34  C10 UNL     1      44.963  47.276  20.336  1.00  0.00     0.005 C 
ENDBRANCH  32  33
ENDBRANCH  31  32
ENDBRANCH  29  31
ENDBRANCH  28  29
ENDBRANCH   5  28
BRANCH  17  35
HETATM   35  O9  UNL     1      51.286  50.799  17.990  1.00  0.00    -0.377 OA
ATOM     36  H9  UNL     1      52.186  50.995  18.223  1.00  0.00     0.211 HD
ENDBRANCH  17  35
BRANCH  12  37
HETATM   37  O7  UNL     1      51.603  55.713  19.406  1.00  0.00    -0.391 OA
ATOM     38  H7  UNL     1      51.516  55.813  20.347  1.00  0.00     0.210 HD
ENDBRANCH  12  37
TORSDOF 14
ENDMDL
MODEL 5
REMARK VINA RESULT: -7.287007641      2.310      7.650
REMARK  14 active torsions:
REMARK  status: ('A' for Active; 'I' for Inactive)
REMARK    1  A    between atoms: C5_5  and  O1_6 
REMARK    2  A    between atoms: O1_6  and  C6_7 
REMARK    3  A    between atoms: C6_7  and  C7_9 
REMARK    4  A    between atoms: C7_9  and  C8_10 
REMARK    5  A    between atoms: C8_10  and  C9_11 
REMARK    6  A    between atoms: C13_15  and  O3_16 
REMARK    7  A    between atoms: O3_16  and  C14_17 
REMARK    8  A    between atoms: C14_17  and  C15_19 
REMARK    9  A    between atoms: C15_19  and  C16_20 
REMARK   10  A    between atoms: C16_20  and  C17_21 
REMARK   11  A    between atoms: C17_21  and  C18_22 
REMARK   12  A    between atoms: C18_22  and  C19_23 
REMARK   13  A    between atoms: C23_29  and  O7_30 
REMARK   14  A    between atoms: C27_36  and  O9_37 
ROOT
HETATM    1  C1  UNL     1      51.942  50.640  20.666  1.00  0.00     0.017 C 
HETATM    2  C2  UNL     1      50.817  51.176  20.231  1.00  0.00    -0.047 C 
HETATM    3  C3  UNL     1      49.522  50.453  20.349  1.00  0.00     0.039 C 
HETATM    4  C4  UNL     1      48.909  50.143  18.994  1.00  0.00     0.037 C 
HETATM    5  C5  UNL     1      49.422  51.190  18.040  1.00  0.00     0.140 C 
HETATM    6  C11 UNL     1      49.445  52.506  18.793  1.00  0.00     0.064 C 
HETATM    7  C12 UNL     1      49.268  53.684  17.898  1.00  0.00     0.048 C 
HETATM    8  C13 UNL     1      48.169  54.618  18.284  1.00  0.00     0.161 C 
HETATM    9  C20 UNL     1      48.035  54.861  19.742  1.00  0.00    -0.056 C 
HETATM   10  C21 UNL     1      46.756  54.423  20.397  1.00  0.00     0.046 C 
HETATM   11  C22 UNL     1      48.956  55.432  20.489  1.00  0.00     0.010 C 
HETATM   12  C23 UNL     1      50.275  55.932  20.045  1.00  0.00     0.152 C 
HETATM   13  C24 UNL     1      51.314  54.955  20.504  1.00  0.00     0.087 C 
HETATM   14  C25 UNL     1      52.568  54.968  19.668  1.00  0.00     0.021 C 
HETATM   15  C26 UNL     1      50.743  53.567  20.642  1.00  0.00     0.172 C 
HETATM   16  O8  UNL     1      50.227  53.265  21.714  1.00  0.00    -0.294 OA
HETATM   17  C27 UNL     1      50.757  52.546  19.592  1.00  0.00     0.147 C 
ENDROOT
BRANCH   8  18
HETATM   18  O3  UNL     1      48.384  55.846  17.569  1.00  0.00    -0.311 OA
BRANCH  18  19
HETATM   19  C14 UNL     1      47.477  56.318  16.628  1.00  0.00     0.259 C 
HETATM   20  O4  UNL     1      47.286  55.574  15.630  1.00  0.00    -0.265 OA
BRANCH  19  21
HETATM   21  C15 UNL     1      46.770  57.613  16.779  1.00  0.00     0.111 C 
BRANCH  21  22
HETATM   22  C16 UNL     1      46.196  57.767  18.170  1.00  0.00     0.010 C 
BRANCH  22  23
HETATM   23  C17 UNL     1      46.914  58.816  18.956  1.00  0.00     0.011 C 
BRANCH  23  24
HETATM   24  C18 UNL     1      47.247  60.063  18.203  1.00  0.00     0.113 C 
BRANCH  24  25
HETATM   25  C19 UNL     1      46.153  61.027  18.055  1.00  0.00     0.172 C 
HETATM   26  O5  UNL     1      45.744  61.791  18.951  1.00  0.00    -0.648 OA
HETATM   27  O6  UNL     1      45.517  61.099  16.821  1.00  0.00    -0.648 OA
ENDBRANCH  24  25
ENDBRANCH  23  24
ENDBRANCH  22  23
ENDBRANCH  21  22
ENDBRANCH  19  21
ENDBRANCH  18  19
ENDBRANCH   8  18
BRANCH   5  28
HETATM   28  O1  UNL     1      48.782  51.229  16.816  1.00  0.00    -0.316 OA
BRANCH  28  29
HETATM   29  C6  UNL     1      48.366  50.127  16.110  1.00  0.00     0.259 C 
HETATM   30  O2  UNL     1      49.290  49.396  15.658  1.00  0.00    -0.265 OA
BRANCH  29  31
HETATM   31  C7  UNL     1      46.925  49.793  15.881  1.00  0.00     0.111 C 
BRANCH  31  32
HETATM   32  C8  UNL     1      46.540  48.581  16.686  1.00  0.00     0.009 C 
BRANCH  32  33
HETATM   33  C9  UNL     1      45.661  49.059  17.845  1.00  0.00    -0.004 C 
HETATM   34  C10 UNL     1      45.696  48.069  18.988  1.00  0.00     0.005 C 
ENDBRANCH  32  33
ENDBRANCH  31  32
ENDBRANCH  29  31
ENDBRANCH  28  29
ENDBRANCH   5  28
BRANCH  17  35
HETATM   35  O9  UNL     1      51.820  52.616  18.724  1.00  0.00    -0.377 OA
ATOM     36  H9  UNL     1      52.149  53.506  18.774  1.00  0.00     0.211 HD
ENDBRANCH  17  35
BRANCH  12  37
HETATM   37  O7  UNL     1      50.517  57.151  20.721  1.00  0.00    -0.391 OA
ATOM     38  H7  UNL     1      50.533  56.962  21.652  1.00  0.00     0.210 HD
ENDBRANCH  12  37
TORSDOF 14
ENDMDL
