MODEL 1
REMARK VINA RESULT: -8.555978977      0.000      0.000
REMARK  14 active torsions:
REMARK  status: ('A' for Active; 'I' for Inactive)
REMARK    1  A    between atoms: C2_2  and  C3_3 
REMARK    2  A    between atoms: C3_3  and  C4_5 
REMARK    3  A    between atoms: C4_5  and  O3_7 
REMARK    4  A    between atoms: O3_7  and  C5_8 
REMARK    5  A    between atoms: C15_19  and  C17_21 
REMARK    6  A    between atoms: C17_21  and  C18_22 
REMARK    7  A    between atoms: C18_22  and  C19_24 
REMARK    8  A    between atoms: C20_25  and  C21_26 
REMARK    9  A    between atoms: C21_26  and  O6_27 
REMARK   10  A    between atoms: C21_26  and  C22_29 
REMARK   11  A    between atoms: C22_29  and  C23_30 
REMARK   12  A    between atoms: C22_29  and  C24_33 
REMARK   13  A    between atoms: C23_30  and  O7_31 
REMARK   14  A    between atoms: C24_33  and  O8_35 
ROOT
HETATM    1  C5  UNL     1      46.196  49.175  17.046  1.00  0.00     0.177 C 
HETATM    2  C6  UNL     1      45.934  48.583  18.409  1.00  0.00     0.021 C 
HETATM    3  C7  UNL     1      46.867  48.569  19.343  1.00  0.00    -0.059 C 
HETATM    4  C8  UNL     1      46.387  47.939  20.598  1.00  0.00     0.043 C 
HETATM    5  C9  UNL     1      45.140  47.219  20.212  1.00  0.00     0.088 C 
HETATM    6  C10 UNL     1      44.743  47.946  18.994  1.00  0.00     0.158 C 
HETATM    7  O4  UNL     1      43.582  48.023  18.513  1.00  0.00    -0.293 OA
HETATM    8  C11 UNL     1      48.227  49.165  19.018  1.00  0.00    -0.018 C 
HETATM    9  C12 UNL     1      49.075  48.091  18.527  1.00  0.00     0.020 C 
HETATM   10  C13 UNL     1      48.804  49.529  20.409  1.00  0.00     0.020 C 
HETATM   11  C14 UNL     1      47.990  50.417  18.332  1.00  0.00     0.017 C 
HETATM   12  C15 UNL     1      48.968  51.114  17.467  1.00  0.00    -0.031 C 
HETATM   13  C16 UNL     1      48.870  52.640  17.688  1.00  0.00     0.016 C 
HETATM   14  C26 UNL     1      48.141  50.675  16.275  1.00  0.00     0.022 C 
HETATM   15  C27 UNL     1      46.988  50.423  17.192  1.00  0.00    -0.007 C 
HETATM   16  C28 UNL     1      46.058  51.635  17.159  1.00  0.00     0.018 C 
ENDROOT
BRANCH  12  17
HETATM   17  C17 UNL     1      50.378  50.772  17.434  1.00  0.00     0.092 C 
BRANCH  17  18
HETATM   18  C18 UNL     1      51.196  51.816  18.107  1.00  0.00     0.149 C 
HETATM   19  O5  UNL     1      52.147  52.378  17.510  1.00  0.00    -0.293 OA
BRANCH  18  20
HETATM   20  C19 UNL     1      50.936  52.233  19.483  1.00  0.00     0.048 C 
HETATM   21  C20 UNL     1      51.314  53.427  19.957  1.00  0.00     0.009 C 
BRANCH  21  22
HETATM   22  C21 UNL     1      51.005  53.742  21.349  1.00  0.00     0.149 C 
BRANCH  22  23
HETATM   23  O6  UNL     1      50.157  52.739  21.827  1.00  0.00    -0.391 OA
ATOM     24  H6  UNL     1      49.978  52.929  22.740  1.00  0.00     0.210 HD
ENDBRANCH  22  23
BRANCH  22  25
HETATM   25  C22 UNL     1      50.347  55.044  21.606  1.00  0.00     0.070 C 
BRANCH  25  26
HETATM   26  C23 UNL     1      51.420  56.130  21.433  1.00  0.00     0.174 C 
BRANCH  26  27
HETATM   27  O7  UNL     1      52.191  56.286  22.557  1.00  0.00    -0.400 OA
ATOM     28  H7  UNL     1      53.117  56.351  22.355  1.00  0.00     0.209 HD
ENDBRANCH  26  27
ENDBRANCH  25  26
BRANCH  25  29
HETATM   29  C24 UNL     1      49.272  55.409  20.581  1.00  0.00     0.123 C 
HETATM   30  C25 UNL     1      48.784  56.826  20.899  1.00  0.00     0.040 C 
BRANCH  29  31
HETATM   31  O8  UNL     1      48.216  54.530  20.554  1.00  0.00    -0.395 OA
ATOM     32  H8  UNL     1      47.368  54.955  20.512  1.00  0.00     0.210 HD
ENDBRANCH  29  31
ENDBRANCH  25  29
ENDBRANCH  22  25
ENDBRANCH  21  22
ENDBRANCH  18  20
ENDBRANCH  17  18
ENDBRANCH  12  17
BRANCH   1  33
HETATM   33  O3  UNL     1      46.700  48.241  16.156  1.00  0.00    -0.304 OA
BRANCH  33  34
HETATM   34  C4  UNL     1      46.301  46.926  16.167  1.00  0.00     0.330 C 
HETATM   35  O2  UNL     1      47.011  46.119  16.843  1.00  0.00    -0.256 OA
BRANCH  34  36
HETATM   36  C3  UNL     1      45.126  46.440  15.452  1.00  0.00     0.223 C 
HETATM   37  O1  UNL     1      44.133  45.984  16.060  1.00  0.00    -0.287 OA
BRANCH  36  38
HETATM   38  C2  UNL     1      45.103  46.487  13.974  1.00  0.00     0.085 C 
HETATM   39  C1  UNL     1      44.728  45.150  13.363  1.00  0.00     0.013 C 
ENDBRANCH  36  38
ENDBRANCH  34  36
ENDBRANCH  33  34
ENDBRANCH   1  33
TORSDOF 14
ENDMDL
MODEL 2
REMARK VINA RESULT: -8.298827341      2.739      5.732
REMARK  14 active torsions:
REMARK  status: ('A' for Active; 'I' for Inactive)
REMARK    1  A    between atoms: C2_2  and  C3_3 
REMARK    2  A    between atoms: C3_3  and  C4_5 
REMARK    3  A    between atoms: C4_5  and  O3_7 
REMARK    4  A    between atoms: O3_7  and  C5_8 
REMARK    5  A    between atoms: C15_19  and  C17_21 
REMARK    6  A    between atoms: C17_21  and  C18_22 
REMARK    7  A    between atoms: C18_22  and  C19_24 
REMARK    8  A    between atoms: C20_25  and  C21_26 
REMARK    9  A    between atoms: C21_26  and  O6_27 
REMARK   10  A    between atoms: C21_26  and  C22_29 
REMARK   11  A    between atoms: C22_29  and  C23_30 
REMARK   12  A    between atoms: C22_29  and  C24_33 
REMARK   13  A    between atoms: C23_30  and  O7_31 
REMARK   14  A    between atoms: C24_33  and  O8_35 
ROOT
HETATM    1  C5  UNL     1      49.780  51.372  18.554  1.00  0.00     0.177 C 
HETATM    2  C6  UNL     1      48.812  51.735  17.455  1.00  0.00     0.021 C 
HETATM    3  C7  UNL     1      48.207  52.908  17.433  1.00  0.00    -0.059 C 
HETATM    4  C8  UNL     1      47.302  53.043  16.264  1.00  0.00     0.043 C 
HETATM    5  C9  UNL     1      47.131  51.655  15.749  1.00  0.00     0.088 C 
HETATM    6  C10 UNL     1      48.338  50.993  16.276  1.00  0.00     0.158 C 
HETATM    7  O4  UNL     1      48.889  49.962  15.809  1.00  0.00    -0.293 OA
HETATM    8  C11 UNL     1      48.503  53.899  18.546  1.00  0.00    -0.018 C 
HETATM    9  C12 UNL     1      47.510  53.702  19.589  1.00  0.00     0.020 C 
HETATM   10  C13 UNL     1      48.157  55.269  17.913  1.00  0.00     0.020 C 
HETATM   11  C14 UNL     1      49.936  53.892  18.751  1.00  0.00     0.017 C 
HETATM   12  C15 UNL     1      50.625  54.352  19.977  1.00  0.00    -0.031 C 
HETATM   13  C16 UNL     1      51.926  55.097  19.602  1.00  0.00     0.016 C 
HETATM   14  C26 UNL     1      50.896  52.897  20.303  1.00  0.00     0.022 C 
HETATM   15  C27 UNL     1      50.629  52.548  18.874  1.00  0.00    -0.007 C 
HETATM   16  C28 UNL     1      51.963  52.442  18.136  1.00  0.00     0.018 C 
ENDROOT
BRANCH  12  17
HETATM   17  C17 UNL     1      49.965  55.131  21.010  1.00  0.00     0.092 C 
BRANCH  17  18
HETATM   18  C18 UNL     1      50.094  56.588  20.744  1.00  0.00     0.149 C 
HETATM   19  O5  UNL     1      51.168  57.196  20.971  1.00  0.00    -0.293 OA
BRANCH  18  20
HETATM   20  C19 UNL     1      48.985  57.376  20.210  1.00  0.00     0.048 C 
HETATM   21  C20 UNL     1      47.774  57.395  20.782  1.00  0.00     0.009 C 
BRANCH  21  22
HETATM   22  C21 UNL     1      46.736  58.217  20.165  1.00  0.00     0.149 C 
BRANCH  22  23
HETATM   23  O6  UNL     1      45.569  57.448  20.114  1.00  0.00    -0.391 OA
ATOM     24  H6  UNL     1      44.868  58.015  19.815  1.00  0.00     0.210 HD
ENDBRANCH  22  23
BRANCH  22  25
HETATM   25  C22 UNL     1      47.006  58.712  18.796  1.00  0.00     0.070 C 
BRANCH  25  26
HETATM   26  C23 UNL     1      45.880  58.180  17.897  1.00  0.00     0.174 C 
BRANCH  26  27
HETATM   27  O7  UNL     1      46.291  57.991  16.601  1.00  0.00    -0.400 OA
ATOM     28  H7  UNL     1      46.051  57.135  16.267  1.00  0.00     0.209 HD
ENDBRANCH  26  27
ENDBRANCH  25  26
BRANCH  25  29
HETATM   29  C24 UNL     1      46.914  60.232  18.656  1.00  0.00     0.123 C 
HETATM   30  C25 UNL     1      45.433  60.601  18.519  1.00  0.00     0.040 C 
BRANCH  29  31
HETATM   31  O8  UNL     1      47.635  60.731  17.598  1.00  0.00    -0.395 OA
ATOM     32  H8  UNL     1      48.170  61.483  17.823  1.00  0.00     0.210 HD
ENDBRANCH  29  31
ENDBRANCH  25  29
ENDBRANCH  22  25
ENDBRANCH  21  22
ENDBRANCH  18  20
ENDBRANCH  17  18
ENDBRANCH  12  17
BRANCH   1  33
HETATM   33  O3  UNL     1      49.151  50.771  19.630  1.00  0.00    -0.304 OA
BRANCH  33  34
HETATM   34  C4  UNL     1      49.139  49.408  19.807  1.00  0.00     0.330 C 
HETATM   35  O2  UNL     1      49.932  48.938  20.680  1.00  0.00    -0.256 OA
BRANCH  34  36
HETATM   36  C3  UNL     1      48.271  48.511  19.051  1.00  0.00     0.223 C 
HETATM   37  O1  UNL     1      48.716  47.800  18.124  1.00  0.00    -0.287 OA
BRANCH  36  38
HETATM   38  C2  UNL     1      46.833  48.437  19.386  1.00  0.00     0.085 C 
HETATM   39  C1  UNL     1      45.953  48.916  18.247  1.00  0.00     0.013 C 
ENDBRANCH  36  38
ENDBRANCH  34  36
ENDBRANCH  33  34
ENDBRANCH   1  33
TORSDOF 14
ENDMDL
MODEL 3
REMARK VINA RESULT: -8.225823601      0.951      1.636
REMARK  14 active torsions:
REMARK  status: ('A' for Active; 'I' for Inactive)
REMARK    1  A    between atoms: C2_2  and  C3_3 
REMARK    2  A    between atoms: C3_3  and  C4_5 
REMARK    3  A    between atoms: C4_5  and  O3_7 
REMARK    4  A    between atoms: O3_7  and  C5_8 
REMARK    5  A    between atoms: C15_19  and  C17_21 
REMARK    6  A    between atoms: C17_21  and  C18_22 
REMARK    7  A    between atoms: C18_22  and  C19_24 
REMARK    8  A    between atoms: C20_25  and  C21_26 
REMARK    9  A    between atoms: C21_26  and  O6_27 
REMARK   10  A    between atoms: C21_26  and  C22_29 
REMARK   11  A    between atoms: C22_29  and  C23_30 
REMARK   12  A    between atoms: C22_29  and  C24_33 
REMARK   13  A    between atoms: C23_30  and  O7_31 
REMARK   14  A    between atoms: C24_33  and  O8_35 
ROOT
HETATM    1  C5  UNL     1      46.311  49.229  17.023  1.00  0.00     0.177 C 
HETATM    2  C6  UNL     1      45.966  48.601  18.351  1.00  0.00     0.021 C 
HETATM    3  C7  UNL     1      46.848  48.539  19.331  1.00  0.00    -0.059 C 
HETATM    4  C8  UNL     1      46.290  47.881  20.539  1.00  0.00     0.043 C 
HETATM    5  C9  UNL     1      45.053  47.198  20.066  1.00  0.00     0.088 C 
HETATM    6  C10 UNL     1      44.734  47.970  18.851  1.00  0.00     0.158 C 
HETATM    7  O4  UNL     1      43.601  48.085  18.313  1.00  0.00    -0.293 OA
HETATM    8  C11 UNL     1      48.234  49.117  19.097  1.00  0.00    -0.018 C 
HETATM    9  C12 UNL     1      49.086  48.042  18.617  1.00  0.00     0.020 C 
HETATM   10  C13 UNL     1      48.742  49.428  20.527  1.00  0.00     0.020 C 
HETATM   11  C14 UNL     1      48.057  50.394  18.440  1.00  0.00     0.017 C 
HETATM   12  C15 UNL     1      49.092  51.098  17.650  1.00  0.00    -0.031 C 
HETATM   13  C16 UNL     1      49.011  52.618  17.913  1.00  0.00     0.016 C 
HETATM   14  C26 UNL     1      48.321  50.712  16.403  1.00  0.00     0.022 C 
HETATM   15  C27 UNL     1      47.117  50.455  17.250  1.00  0.00    -0.007 C 
HETATM   16  C28 UNL     1      46.213  51.686  17.205  1.00  0.00     0.018 C 
ENDROOT
BRANCH  12  17
HETATM   17  C17 UNL     1      50.495  50.729  17.680  1.00  0.00     0.092 C 
BRANCH  17  18
HETATM   18  C18 UNL     1      51.353  51.912  17.954  1.00  0.00     0.149 C 
HETATM   19  O5  UNL     1      52.262  52.252  17.158  1.00  0.00    -0.293 OA
BRANCH  18  20
HETATM   20  C19 UNL     1      51.180  52.730  19.153  1.00  0.00     0.048 C 
HETATM   21  C20 UNL     1      51.724  53.947  19.279  1.00  0.00     0.009 C 
BRANCH  21  22
HETATM   22  C21 UNL     1      51.490  54.678  20.522  1.00  0.00     0.149 C 
BRANCH  22  23
HETATM   23  O6  UNL     1      50.359  54.122  21.127  1.00  0.00    -0.391 OA
ATOM     24  H6  UNL     1      50.389  53.185  20.976  1.00  0.00     0.210 HD
ENDBRANCH  22  23
BRANCH  22  25
HETATM   25  C22 UNL     1      51.261  56.136  20.402  1.00  0.00     0.070 C 
BRANCH  25  26
HETATM   26  C23 UNL     1      49.784  56.388  20.746  1.00  0.00     0.174 C 
BRANCH  26  27
HETATM   27  O7  UNL     1      49.630  57.025  21.952  1.00  0.00    -0.400 OA
ATOM     28  H7  UNL     1      50.029  56.544  22.668  1.00  0.00     0.209 HD
ENDBRANCH  26  27
ENDBRANCH  25  26
BRANCH  25  29
HETATM   29  C24 UNL     1      52.033  56.973  21.422  1.00  0.00     0.123 C 
HETATM   30  C25 UNL     1      53.330  57.445  20.756  1.00  0.00     0.040 C 
BRANCH  29  31
HETATM   31  O8  UNL     1      52.307  56.301  22.589  1.00  0.00    -0.395 OA
ATOM     32  H8  UNL     1      53.214  56.367  22.862  1.00  0.00     0.210 HD
ENDBRANCH  29  31
ENDBRANCH  25  29
ENDBRANCH  22  25
ENDBRANCH  21  22
ENDBRANCH  18  20
ENDBRANCH  17  18
ENDBRANCH  12  17
BRANCH   1  33
HETATM   33  O3  UNL     1      46.844  48.313  16.131  1.00  0.00    -0.304 OA
BRANCH  33  34
HETATM   34  C4  UNL     1      46.204  47.963  14.967  1.00  0.00     0.330 C 
HETATM   35  O2  UNL     1      46.319  48.764  13.988  1.00  0.00    -0.256 OA
BRANCH  34  36
HETATM   36  C3  UNL     1      45.421  46.740  14.820  1.00  0.00     0.223 C 
HETATM   37  O1  UNL     1      45.057  46.074  15.814  1.00  0.00    -0.287 OA
BRANCH  36  38
HETATM   38  C2  UNL     1      45.046  46.274  13.468  1.00  0.00     0.085 C 
HETATM   39  C1  UNL     1      44.549  44.840  13.472  1.00  0.00     0.013 C 
ENDBRANCH  36  38
ENDBRANCH  34  36
ENDBRANCH  33  34
ENDBRANCH   1  33
TORSDOF 14
ENDMDL
MODEL 4
REMARK VINA RESULT: -8.196750722      3.309      5.582
REMARK  14 active torsions:
REMARK  status: ('A' for Active; 'I' for Inactive)
REMARK    1  A    between atoms: C2_2  and  C3_3 
REMARK    2  A    between atoms: C3_3  and  C4_5 
REMARK    3  A    between atoms: C4_5  and  O3_7 
REMARK    4  A    between atoms: O3_7  and  C5_8 
REMARK    5  A    between atoms: C15_19  and  C17_21 
REMARK    6  A    between atoms: C17_21  and  C18_22 
REMARK    7  A    between atoms: C18_22  and  C19_24 
REMARK    8  A    between atoms: C20_25  and  C21_26 
REMARK    9  A    between atoms: C21_26  and  O6_27 
REMARK   10  A    between atoms: C21_26  and  C22_29 
REMARK   11  A    between atoms: C22_29  and  C23_30 
REMARK   12  A    between atoms: C22_29  and  C24_33 
REMARK   13  A    between atoms: C23_30  and  O7_31 
REMARK   14  A    between atoms: C24_33  and  O8_35 
ROOT
HETATM    1  C5  UNL     1      49.267  50.502  18.144  1.00  0.00     0.177 C 
HETATM    2  C6  UNL     1      48.638  50.491  16.772  1.00  0.00     0.021 C 
HETATM    3  C7  UNL     1      47.855  51.475  16.369  1.00  0.00    -0.059 C 
HETATM    4  C8  UNL     1      47.349  51.252  14.991  1.00  0.00     0.043 C 
HETATM    5  C9  UNL     1      47.617  49.813  14.713  1.00  0.00     0.088 C 
HETATM    6  C10 UNL     1      48.705  49.524  15.665  1.00  0.00     0.158 C 
HETATM    7  O4  UNL     1      49.561  48.606  15.568  1.00  0.00    -0.293 OA
HETATM    8  C11 UNL     1      47.595  52.632  17.319  1.00  0.00    -0.018 C 
HETATM    9  C12 UNL     1      46.384  52.329  18.064  1.00  0.00     0.020 C 
HETATM   10  C13 UNL     1      47.205  53.796  16.374  1.00  0.00     0.020 C 
HETATM   11  C14 UNL     1      48.866  52.992  17.909  1.00  0.00     0.017 C 
HETATM   12  C15 UNL     1      49.038  53.744  19.172  1.00  0.00    -0.031 C 
HETATM   13  C16 UNL     1      50.222  54.728  19.041  1.00  0.00     0.016 C 
HETATM   14  C26 UNL     1      49.469  52.444  19.821  1.00  0.00     0.022 C 
HETATM   15  C27 UNL     1      49.732  51.876  18.464  1.00  0.00    -0.007 C 
HETATM   16  C28 UNL     1      51.223  52.005  18.157  1.00  0.00     0.018 C 
ENDROOT
BRANCH  12  17
HETATM   17  C17 UNL     1      47.953  54.459  19.820  1.00  0.00     0.092 C 
BRANCH  17  18
HETATM   18  C18 UNL     1      48.300  55.892  20.015  1.00  0.00     0.149 C 
HETATM   19  O5  UNL     1      48.960  56.269  21.014  1.00  0.00    -0.293 OA
BRANCH  18  20
HETATM   20  C19 UNL     1      47.891  56.921  19.062  1.00  0.00     0.048 C 
HETATM   21  C20 UNL     1      46.807  57.685  19.249  1.00  0.00     0.009 C 
BRANCH  21  22
HETATM   22  C21 UNL     1      46.487  58.685  18.233  1.00  0.00     0.149 C 
BRANCH  22  23
HETATM   23  O6  UNL     1      47.672  59.361  17.925  1.00  0.00    -0.391 OA
ATOM     24  H6  UNL     1      47.466  60.005  17.258  1.00  0.00     0.210 HD
ENDBRANCH  22  23
BRANCH  22  25
HETATM   25  C22 UNL     1      45.474  59.701  18.595  1.00  0.00     0.070 C 
BRANCH  25  26
HETATM   26  C23 UNL     1      46.071  61.074  18.248  1.00  0.00     0.174 C 
BRANCH  26  27
HETATM   27  O7  UNL     1      45.779  61.461  16.964  1.00  0.00    -0.400 OA
ATOM     28  H7  UNL     1      45.192  62.208  16.937  1.00  0.00     0.209 HD
ENDBRANCH  26  27
ENDBRANCH  25  26
BRANCH  25  29
HETATM   29  C24 UNL     1      44.194  59.626  17.763  1.00  0.00     0.123 C 
HETATM   30  C25 UNL     1      43.090  59.042  18.651  1.00  0.00     0.040 C 
BRANCH  29  31
HETATM   31  O8  UNL     1      44.328  58.887  16.612  1.00  0.00    -0.395 OA
ATOM     32  H8  UNL     1      43.595  58.306  16.445  1.00  0.00     0.210 HD
ENDBRANCH  29  31
ENDBRANCH  25  29
ENDBRANCH  22  25
ENDBRANCH  21  22
ENDBRANCH  18  20
ENDBRANCH  17  18
ENDBRANCH  12  17
BRANCH   1  33
HETATM   33  O3  UNL     1      48.463  49.900  19.096  1.00  0.00    -0.304 OA
BRANCH  33  34
HETATM   34  C4  UNL     1      47.939  48.641  18.925  1.00  0.00     0.330 C 
HETATM   35  O2  UNL     1      48.764  47.704  18.694  1.00  0.00    -0.256 OA
BRANCH  34  36
HETATM   36  C3  UNL     1      46.510  48.352  18.999  1.00  0.00     0.223 C 
HETATM   37  O1  UNL     1      45.980  47.942  20.055  1.00  0.00    -0.287 OA
BRANCH  36  38
HETATM   38  C2  UNL     1      45.666  48.548  17.801  1.00  0.00     0.085 C 
HETATM   39  C1  UNL     1      45.793  47.402  16.814  1.00  0.00     0.013 C 
ENDBRANCH  36  38
ENDBRANCH  34  36
ENDBRANCH  33  34
ENDBRANCH   1  33
TORSDOF 14
ENDMDL
MODEL 5
REMARK VINA RESULT: -8.182460318      3.367      5.673
REMARK  14 active torsions:
REMARK  status: ('A' for Active; 'I' for Inactive)
REMARK    1  A    between atoms: C2_2  and  C3_3 
REMARK    2  A    between atoms: C3_3  and  C4_5 
REMARK    3  A    between atoms: C4_5  and  O3_7 
REMARK    4  A    between atoms: O3_7  and  C5_8 
REMARK    5  A    between atoms: C15_19  and  C17_21 
REMARK    6  A    between atoms: C17_21  and  C18_22 
REMARK    7  A    between atoms: C18_22  and  C19_24 
REMARK    8  A    between atoms: C20_25  and  C21_26 
REMARK    9  A    between atoms: C21_26  and  O6_27 
REMARK   10  A    between atoms: C21_26  and  C22_29 
REMARK   11  A    between atoms: C22_29  and  C23_30 
REMARK   12  A    between atoms: C22_29  and  C24_33 
REMARK   13  A    between atoms: C23_30  and  O7_31 
REMARK   14  A    between atoms: C24_33  and  O8_35 
ROOT
HETATM    1  C5  UNL     1      49.282  50.516  18.121  1.00  0.00     0.177 C 
HETATM    2  C6  UNL     1      48.621  50.512  16.765  1.00  0.00     0.021 C 
HETATM    3  C7  UNL     1      47.837  51.502  16.379  1.00  0.00    -0.059 C 
HETATM    4  C8  UNL     1      47.299  51.284  15.013  1.00  0.00     0.043 C 
HETATM    5  C9  UNL     1      47.549  49.843  14.728  1.00  0.00     0.088 C 
HETATM    6  C10 UNL     1      48.656  49.545  15.656  1.00  0.00     0.158 C 
HETATM    7  O4  UNL     1      49.502  48.620  15.538  1.00  0.00    -0.293 OA
HETATM    8  C11 UNL     1      47.608  52.660  17.336  1.00  0.00    -0.018 C 
HETATM    9  C12 UNL     1      46.412  52.365  18.108  1.00  0.00     0.020 C 
HETATM   10  C13 UNL     1      47.206  53.828  16.401  1.00  0.00     0.020 C 
HETATM   11  C14 UNL     1      48.895  53.009  17.898  1.00  0.00     0.017 C 
HETATM   12  C15 UNL     1      49.101  53.759  19.158  1.00  0.00    -0.031 C 
HETATM   13  C16 UNL     1      50.290  54.733  19.001  1.00  0.00     0.016 C 
HETATM   14  C26 UNL     1      49.537  52.455  19.796  1.00  0.00     0.022 C 
HETATM   15  C27 UNL     1      49.764  51.886  18.433  1.00  0.00    -0.007 C 
HETATM   16  C28 UNL     1      51.249  52.003  18.092  1.00  0.00     0.018 C 
ENDROOT
BRANCH  12  17
HETATM   17  C17 UNL     1      48.037  54.481  19.830  1.00  0.00     0.092 C 
BRANCH  17  18
HETATM   18  C18 UNL     1      48.279  55.948  19.789  1.00  0.00     0.149 C 
HETATM   19  O5  UNL     1      49.109  56.490  20.558  1.00  0.00    -0.293 OA
BRANCH  18  20
HETATM   20  C19 UNL     1      47.566  56.821  18.859  1.00  0.00     0.048 C 
HETATM   21  C20 UNL     1      47.368  58.124  19.102  1.00  0.00     0.009 C 
BRANCH  21  22
HETATM   22  C21 UNL     1      46.642  58.906  18.105  1.00  0.00     0.149 C 
BRANCH  22  23
HETATM   23  O6  UNL     1      46.417  60.173  18.651  1.00  0.00    -0.391 OA
ATOM     24  H6  UNL     1      45.998  60.701  17.982  1.00  0.00     0.210 HD
ENDBRANCH  22  23
BRANCH  22  25
HETATM   25  C22 UNL     1      45.333  58.371  17.665  1.00  0.00     0.070 C 
BRANCH  25  26
HETATM   26  C23 UNL     1      44.299  58.791  18.721  1.00  0.00     0.174 C 
BRANCH  26  27
HETATM   27  O7  UNL     1      43.508  59.828  18.293  1.00  0.00    -0.400 OA
ATOM     28  H7  UNL     1      42.850  59.547  17.669  1.00  0.00     0.209 HD
ENDBRANCH  26  27
ENDBRANCH  25  26
BRANCH  25  29
HETATM   29  C24 UNL     1      44.816  58.986  16.365  1.00  0.00     0.123 C 
HETATM   30  C25 UNL     1      45.304  58.110  15.205  1.00  0.00     0.040 C 
BRANCH  29  31
HETATM   31  O8  UNL     1      45.205  60.291  16.180  1.00  0.00    -0.395 OA
ATOM     32  H8  UNL     1      45.554  60.465  15.314  1.00  0.00     0.210 HD
ENDBRANCH  29  31
ENDBRANCH  25  29
ENDBRANCH  22  25
ENDBRANCH  21  22
ENDBRANCH  18  20
ENDBRANCH  17  18
ENDBRANCH  12  17
BRANCH   1  33
HETATM   33  O3  UNL     1      48.494  49.919  19.091  1.00  0.00    -0.304 OA
BRANCH  33  34
HETATM   34  C4  UNL     1      47.956  48.665  18.930  1.00  0.00     0.330 C 
HETATM   35  O2  UNL     1      48.768  47.721  18.681  1.00  0.00    -0.256 OA
BRANCH  34  36
HETATM   36  C3  UNL     1      46.527  48.388  19.035  1.00  0.00     0.223 C 
HETATM   37  O1  UNL     1      46.014  47.994  20.105  1.00  0.00    -0.287 OA
BRANCH  36  38
HETATM   38  C2  UNL     1      45.660  48.579  17.851  1.00  0.00     0.085 C 
HETATM   39  C1  UNL     1      45.779  47.433  16.863  1.00  0.00     0.013 C 
ENDBRANCH  36  38
ENDBRANCH  34  36
ENDBRANCH  33  34
ENDBRANCH   1  33
TORSDOF 14
ENDMDL
