MODEL 1
REMARK VINA RESULT: -7.279714863      0.000      0.000
REMARK  14 active torsions:
REMARK  status: ('A' for Active; 'I' for Inactive)
REMARK    1  A    between atoms: C2_2  and  N1_3 
REMARK    2  A    between atoms: N1_3  and  C3_4 
REMARK    3  A    between atoms: N1_3  and  C4_7 
REMARK    4  A    between atoms: C3_4  and  O1_5 
REMARK    5  A    between atoms: C4_7  and  C5_8 
REMARK    6  A    between atoms: C5_8  and  O2_9 
REMARK    7  A    between atoms: C5_8  and  C6_11 
REMARK    8  A    between atoms: C6_11  and  O3_12 
REMARK    9  A    between atoms: O3_12  and  C7_13 
REMARK   10  A    between atoms: C11_18  and  C12_19 
REMARK   11  A    between atoms: C12_19  and  O5_22 
REMARK   12  A    between atoms: C23_32  and  C24_33 
REMARK   13  A    between atoms: C25_34  and  C26_35 
REMARK   14  A    between atoms: C26_35  and  O7_37 
ROOT
HETATM    1  C7  UNL     1      48.383  53.355  19.093  1.00  0.00     0.178 C 
HETATM    2  C8  UNL     1      49.157  52.344  18.222  1.00  0.00     0.205 C 
HETATM    3  O4  UNL     1      48.496  51.166  18.340  1.00  0.00    -0.376 OA
HETATM    4  C9  UNL     1      47.979  50.573  17.246  1.00  0.00     0.074 C 
HETATM    5  C10 UNL     1      49.001  50.479  16.108  1.00  0.00     0.047 C 
HETATM    6  C11 UNL     1      47.365  49.263  17.552  1.00  0.00     0.054 C 
HETATM    7  C15 UNL     1      46.750  48.869  16.262  1.00  0.00     0.012 C 
HETATM    8  C16 UNL     1      46.298  50.156  15.680  1.00  0.00     0.017 C 
HETATM    9  C17 UNL     1      46.770  51.296  16.634  1.00  0.00     0.005 C 
HETATM   10  C18 UNL     1      45.622  51.501  17.537  1.00  0.00     0.022 C 
HETATM   11  C19 UNL     1      47.218  52.454  15.846  1.00  0.00    -0.014 C 
HETATM   12  C20 UNL     1      47.541  53.672  16.059  1.00  0.00     0.004 C 
HETATM   13  C21 UNL     1      47.676  54.643  17.097  1.00  0.00    -0.053 C 
HETATM   14  C22 UNL     1      47.333  56.077  16.656  1.00  0.00     0.049 C 
HETATM   15  C23 UNL     1      48.032  54.576  18.404  1.00  0.00    -0.021 C 
ENDROOT
BRANCH   1  16
HETATM   16  O3  UNL     1      49.087  53.413  20.294  1.00  0.00    -0.377 OA
BRANCH  16  17
HETATM   17  C6  UNL     1      50.481  53.432  20.032  1.00  0.00     0.202 C 
BRANCH  17  18
HETATM   18  C5  UNL     1      51.245  52.959  21.206  1.00  0.00     0.170 C 
BRANCH  18  19
HETATM   19  C4  UNL     1      50.987  51.568  21.687  1.00  0.00     0.308 C 
BRANCH  19  20
HETATM   20  N1  UNL     1      50.832  50.538  20.715  1.00  0.00     0.113 N 
BRANCH  20  21
HETATM   21  C2  UNL     1      50.625  49.240  21.423  1.00  0.00     0.270 C 
HETATM   22  C1  UNL     1      49.484  49.339  22.377  1.00  0.00     0.037 C 
ENDBRANCH  20  21
BRANCH  20  23
HETATM   23  C3  UNL     1      52.159  50.302  20.095  1.00  0.00     0.437 C 
BRANCH  23  24
HETATM   24  O1  UNL     1      52.280  48.911  19.836  1.00  0.00    -0.373 OA
ATOM     25  H1  UNL     1      52.746  48.805  19.015  1.00  0.00     0.211 HD
ENDBRANCH  23  24
ENDBRANCH  20  23
ENDBRANCH  19  20
ENDBRANCH  18  19
BRANCH  18  26
HETATM   26  O2  UNL     1      51.256  53.897  22.228  1.00  0.00    -0.392 OA
ATOM     27  H2  UNL     1      50.565  54.545  22.149  1.00  0.00     0.210 HD
ENDBRANCH  18  26
ENDBRANCH  17  18
ENDBRANCH  16  17
ENDBRANCH   1  16
BRANCH  15  28
HETATM   28  C24 UNL     1      48.073  55.844  19.173  1.00  0.00     0.016 C 
HETATM   29  C25 UNL     1      47.430  56.269  20.178  1.00  0.00     0.083 C 
BRANCH  29  30
HETATM   30  C26 UNL     1      47.787  57.647  20.656  1.00  0.00     0.282 C 
HETATM   31  O6  UNL     1      48.156  57.778  21.822  1.00  0.00    -0.260 OA
BRANCH  30  32
HETATM   32  O7  UNL     1      47.718  58.748  19.847  1.00  0.00    -0.323 OA
HETATM   33  C27 UNL     1      46.685  59.071  18.968  1.00  0.00     0.213 C 
ENDBRANCH  30  32
ENDBRANCH  29  30
ENDBRANCH  15  28
BRANCH   6  34
HETATM   34  C12 UNL     1      48.207  48.251  18.220  1.00  0.00     0.057 C 
HETATM   35  C13 UNL     1      47.757  48.178  19.687  1.00  0.00     0.045 C 
HETATM   36  C14 UNL     1      48.260  46.882  17.694  1.00  0.00     0.045 C 
BRANCH  34  37
HETATM   37  O5  UNL     1      49.529  48.759  18.263  1.00  0.00    -0.390 OA
ATOM     38  H5  UNL     1      49.610  49.277  19.055  1.00  0.00     0.210 HD
ENDBRANCH  34  37
ENDBRANCH   6  34
TORSDOF 14
ENDMDL
MODEL 2
REMARK VINA RESULT: -7.139304813      2.727      5.789
REMARK  14 active torsions:
REMARK  status: ('A' for Active; 'I' for Inactive)
REMARK    1  A    between atoms: C2_2  and  N1_3 
REMARK    2  A    between atoms: N1_3  and  C3_4 
REMARK    3  A    between atoms: N1_3  and  C4_7 
REMARK    4  A    between atoms: C3_4  and  O1_5 
REMARK    5  A    between atoms: C4_7  and  C5_8 
REMARK    6  A    between atoms: C5_8  and  O2_9 
REMARK    7  A    between atoms: C5_8  and  C6_11 
REMARK    8  A    between atoms: C6_11  and  O3_12 
REMARK    9  A    between atoms: O3_12  and  C7_13 
REMARK   10  A    between atoms: C11_18  and  C12_19 
REMARK   11  A    between atoms: C12_19  and  O5_22 
REMARK   12  A    between atoms: C23_32  and  C24_33 
REMARK   13  A    between atoms: C25_34  and  C26_35 
REMARK   14  A    between atoms: C26_35  and  O7_37 
ROOT
HETATM    1  C7  UNL     1      49.643  53.568  18.366  1.00  0.00     0.178 C 
HETATM    2  C8  UNL     1      48.324  52.782  18.211  1.00  0.00     0.205 C 
HETATM    3  O4  UNL     1      48.510  51.944  17.161  1.00  0.00    -0.376 OA
HETATM    4  C9  UNL     1      48.409  50.612  17.338  1.00  0.00     0.074 C 
HETATM    5  C10 UNL     1      47.127  50.228  18.084  1.00  0.00     0.047 C 
HETATM    6  C11 UNL     1      48.563  49.863  16.072  1.00  0.00     0.054 C 
HETATM    7  C15 UNL     1      48.561  48.448  16.516  1.00  0.00     0.012 C 
HETATM    8  C16 UNL     1      49.250  48.490  17.829  1.00  0.00     0.017 C 
HETATM    9  C17 UNL     1      49.548  49.985  18.158  1.00  0.00     0.005 C 
HETATM   10  C18 UNL     1      50.909  50.200  17.632  1.00  0.00     0.022 C 
HETATM   11  C19 UNL     1      49.336  50.234  19.591  1.00  0.00    -0.014 C 
HETATM   12  C20 UNL     1      49.563  51.171  20.430  1.00  0.00     0.004 C 
HETATM   13  C21 UNL     1      50.121  52.481  20.541  1.00  0.00    -0.053 C 
HETATM   14  C22 UNL     1      50.811  52.751  21.890  1.00  0.00     0.049 C 
HETATM   15  C23 UNL     1      50.186  53.546  19.705  1.00  0.00    -0.021 C 
ENDROOT
BRANCH   1  16
HETATM   16  O3  UNL     1      49.416  54.786  17.728  1.00  0.00    -0.377 OA
BRANCH  16  17
HETATM   17  C6  UNL     1      48.036  55.113  17.795  1.00  0.00     0.202 C 
BRANCH  17  18
HETATM   18  C5  UNL     1      47.713  56.223  16.874  1.00  0.00     0.170 C 
BRANCH  18  19
HETATM   19  C4  UNL     1      46.912  57.363  17.415  1.00  0.00     0.308 C 
BRANCH  19  20
HETATM   20  N1  UNL     1      47.472  58.136  18.473  1.00  0.00     0.113 N 
BRANCH  20  21
HETATM   21  C2  UNL     1      46.769  57.787  19.743  1.00  0.00     0.270 C 
HETATM   22  C1  UNL     1      47.752  57.420  20.802  1.00  0.00     0.037 C 
ENDBRANCH  20  21
BRANCH  20  23
HETATM   23  C3  UNL     1      47.025  59.538  18.291  1.00  0.00     0.437 C 
BRANCH  23  24
HETATM   24  O1  UNL     1      45.640  59.601  18.598  1.00  0.00    -0.373 OA
ATOM     25  H1  UNL     1      45.370  60.510  18.553  1.00  0.00     0.211 HD
ENDBRANCH  23  24
ENDBRANCH  20  23
ENDBRANCH  19  20
ENDBRANCH  18  19
BRANCH  18  26
HETATM   26  O2  UNL     1      47.250  55.762  15.651  1.00  0.00    -0.392 OA
ATOM     27  H2  UNL     1      47.255  54.814  15.582  1.00  0.00     0.210 HD
ENDBRANCH  18  26
ENDBRANCH  17  18
ENDBRANCH  16  17
ENDBRANCH   1  16
BRANCH  15  28
HETATM   28  C24 UNL     1      50.852  54.774  20.204  1.00  0.00     0.016 C 
HETATM   29  C25 UNL     1      51.802  55.486  19.763  1.00  0.00     0.083 C 
BRANCH  29  30
HETATM   30  C26 UNL     1      52.179  56.676  20.598  1.00  0.00     0.282 C 
HETATM   31  O6  UNL     1      51.305  57.503  20.853  1.00  0.00    -0.260 OA
BRANCH  30  32
HETATM   32  O7  UNL     1      53.445  56.868  21.079  1.00  0.00    -0.323 OA
HETATM   33  C27 UNL     1      53.812  57.684  22.149  1.00  0.00     0.213 C 
ENDBRANCH  30  32
ENDBRANCH  29  30
ENDBRANCH  15  28
BRANCH   6  34
HETATM   34  C12 UNL     1      47.658  50.208  14.958  1.00  0.00     0.057 C 
HETATM   35  C13 UNL     1      46.676  49.038  14.789  1.00  0.00     0.045 C 
HETATM   36  C14 UNL     1      46.877  51.449  15.009  1.00  0.00     0.045 C 
BRANCH  34  37
HETATM   37  O5  UNL     1      48.429  50.218  13.771  1.00  0.00    -0.390 OA
ATOM     38  H5  UNL     1      49.292  50.547  13.993  1.00  0.00     0.210 HD
ENDBRANCH  34  37
ENDBRANCH   6  34
TORSDOF 14
ENDMDL
MODEL 3
REMARK VINA RESULT: -7.119174751      2.699      5.782
REMARK  14 active torsions:
REMARK  status: ('A' for Active; 'I' for Inactive)
REMARK    1  A    between atoms: C2_2  and  N1_3 
REMARK    2  A    between atoms: N1_3  and  C3_4 
REMARK    3  A    between atoms: N1_3  and  C4_7 
REMARK    4  A    between atoms: C3_4  and  O1_5 
REMARK    5  A    between atoms: C4_7  and  C5_8 
REMARK    6  A    between atoms: C5_8  and  O2_9 
REMARK    7  A    between atoms: C5_8  and  C6_11 
REMARK    8  A    between atoms: C6_11  and  O3_12 
REMARK    9  A    between atoms: O3_12  and  C7_13 
REMARK   10  A    between atoms: C11_18  and  C12_19 
REMARK   11  A    between atoms: C12_19  and  O5_22 
REMARK   12  A    between atoms: C23_32  and  C24_33 
REMARK   13  A    between atoms: C25_34  and  C26_35 
REMARK   14  A    between atoms: C26_35  and  O7_37 
ROOT
HETATM    1  C7  UNL     1      49.608  53.571  18.364  1.00  0.00     0.178 C 
HETATM    2  C8  UNL     1      48.292  52.779  18.207  1.00  0.00     0.205 C 
HETATM    3  O4  UNL     1      48.481  51.947  17.153  1.00  0.00    -0.376 OA
HETATM    4  C9  UNL     1      48.387  50.614  17.324  1.00  0.00     0.074 C 
HETATM    5  C10 UNL     1      47.106  50.221  18.070  1.00  0.00     0.047 C 
HETATM    6  C11 UNL     1      48.543  49.870  16.055  1.00  0.00     0.054 C 
HETATM    7  C15 UNL     1      48.548  48.454  16.493  1.00  0.00     0.012 C 
HETATM    8  C16 UNL     1      49.237  48.493  17.805  1.00  0.00     0.017 C 
HETATM    9  C17 UNL     1      49.528  49.988  18.141  1.00  0.00     0.005 C 
HETATM   10  C18 UNL     1      50.888  50.212  17.615  1.00  0.00     0.022 C 
HETATM   11  C19 UNL     1      49.317  50.230  19.575  1.00  0.00    -0.014 C 
HETATM   12  C20 UNL     1      49.541  51.165  20.418  1.00  0.00     0.004 C 
HETATM   13  C21 UNL     1      50.092  52.476  20.534  1.00  0.00    -0.053 C 
HETATM   14  C22 UNL     1      50.782  52.744  21.883  1.00  0.00     0.049 C 
HETATM   15  C23 UNL     1      50.152  53.545  19.703  1.00  0.00    -0.021 C 
ENDROOT
BRANCH   1  16
HETATM   16  O3  UNL     1      49.375  54.790  17.731  1.00  0.00    -0.377 OA
BRANCH  16  17
HETATM   17  C6  UNL     1      47.991  55.099  17.781  1.00  0.00     0.202 C 
BRANCH  17  18
HETATM   18  C5  UNL     1      47.635  56.091  16.744  1.00  0.00     0.170 C 
BRANCH  18  19
HETATM   19  C4  UNL     1      46.846  57.287  17.167  1.00  0.00     0.308 C 
BRANCH  19  20
HETATM   20  N1  UNL     1      46.635  57.494  18.561  1.00  0.00     0.113 N 
BRANCH  20  21
HETATM   21  C2  UNL     1      45.376  58.275  18.743  1.00  0.00     0.270 C 
HETATM   22  C1  UNL     1      45.603  59.716  18.438  1.00  0.00     0.037 C 
ENDBRANCH  20  21
BRANCH  20  23
HETATM   23  C3  UNL     1      47.638  58.483  19.026  1.00  0.00     0.437 C 
BRANCH  23  24
HETATM   24  O1  UNL     1      48.499  57.833  19.950  1.00  0.00    -0.373 OA
ATOM     25  H1  UNL     1      48.103  57.893  20.812  1.00  0.00     0.211 HD
ENDBRANCH  23  24
ENDBRANCH  20  23
ENDBRANCH  19  20
ENDBRANCH  18  19
BRANCH  18  26
HETATM   26  O2  UNL     1      47.138  55.486  15.599  1.00  0.00    -0.392 OA
ATOM     27  H2  UNL     1      47.104  54.539  15.661  1.00  0.00     0.210 HD
ENDBRANCH  18  26
ENDBRANCH  17  18
ENDBRANCH  16  17
ENDBRANCH   1  16
BRANCH  15  28
HETATM   28  C24 UNL     1      50.813  54.774  20.207  1.00  0.00     0.016 C 
HETATM   29  C25 UNL     1      51.758  55.493  19.767  1.00  0.00     0.083 C 
BRANCH  29  30
HETATM   30  C26 UNL     1      52.131  56.681  20.607  1.00  0.00     0.282 C 
HETATM   31  O6  UNL     1      51.250  57.494  20.883  1.00  0.00    -0.260 OA
BRANCH  30  32
HETATM   32  O7  UNL     1      53.401  56.885  21.072  1.00  0.00    -0.323 OA
HETATM   33  C27 UNL     1      53.779  57.737  22.110  1.00  0.00     0.213 C 
ENDBRANCH  30  32
ENDBRANCH  29  30
ENDBRANCH  15  28
BRANCH   6  34
HETATM   34  C12 UNL     1      47.635  50.216  14.944  1.00  0.00     0.057 C 
HETATM   35  C13 UNL     1      46.653  49.046  14.775  1.00  0.00     0.045 C 
HETATM   36  C14 UNL     1      46.854  51.457  14.997  1.00  0.00     0.045 C 
BRANCH  34  37
HETATM   37  O5  UNL     1      48.404  50.229  13.754  1.00  0.00    -0.390 OA
ATOM     38  H5  UNL     1      47.803  50.341  13.027  1.00  0.00     0.210 HD
ENDBRANCH  34  37
ENDBRANCH   6  34
TORSDOF 14
ENDMDL
MODEL 4
REMARK VINA RESULT: -7.000508675      1.826      3.024
REMARK  14 active torsions:
REMARK  status: ('A' for Active; 'I' for Inactive)
REMARK    1  A    between atoms: C2_2  and  N1_3 
REMARK    2  A    between atoms: N1_3  and  C3_4 
REMARK    3  A    between atoms: N1_3  and  C4_7 
REMARK    4  A    between atoms: C3_4  and  O1_5 
REMARK    5  A    between atoms: C4_7  and  C5_8 
REMARK    6  A    between atoms: C5_8  and  O2_9 
REMARK    7  A    between atoms: C5_8  and  C6_11 
REMARK    8  A    between atoms: C6_11  and  O3_12 
REMARK    9  A    between atoms: O3_12  and  C7_13 
REMARK   10  A    between atoms: C11_18  and  C12_19 
REMARK   11  A    between atoms: C12_19  and  O5_22 
REMARK   12  A    between atoms: C23_32  and  C24_33 
REMARK   13  A    between atoms: C25_34  and  C26_35 
REMARK   14  A    between atoms: C26_35  and  O7_37 
ROOT
HETATM    1  C7  UNL     1      48.477  53.504  18.910  1.00  0.00     0.178 C 
HETATM    2  C8  UNL     1      49.216  52.465  18.041  1.00  0.00     0.205 C 
HETATM    3  O4  UNL     1      48.625  51.272  18.300  1.00  0.00    -0.376 OA
HETATM    4  C9  UNL     1      48.039  50.582  17.303  1.00  0.00     0.074 C 
HETATM    5  C10 UNL     1      48.956  50.448  16.082  1.00  0.00     0.047 C 
HETATM    6  C11 UNL     1      47.519  49.273  17.755  1.00  0.00     0.054 C 
HETATM    7  C15 UNL     1      46.808  48.762  16.558  1.00  0.00     0.012 C 
HETATM    8  C16 UNL     1      46.243  49.984  15.936  1.00  0.00     0.017 C 
HETATM    9  C17 UNL     1      46.745  51.208  16.761  1.00  0.00     0.005 C 
HETATM   10  C18 UNL     1      45.677  51.430  17.753  1.00  0.00     0.022 C 
HETATM   11  C19 UNL     1      47.063  52.324  15.858  1.00  0.00    -0.014 C 
HETATM   12  C20 UNL     1      47.346  53.567  15.956  1.00  0.00     0.004 C 
HETATM   13  C21 UNL     1      47.529  54.615  16.908  1.00  0.00    -0.053 C 
HETATM   14  C22 UNL     1      47.079  55.998  16.406  1.00  0.00     0.049 C 
HETATM   15  C23 UNL     1      48.006  54.657  18.177  1.00  0.00    -0.021 C 
ENDROOT
BRANCH   1  16
HETATM   16  O3  UNL     1      49.285  53.677  20.032  1.00  0.00    -0.377 OA
BRANCH  16  17
HETATM   17  C6  UNL     1      50.512  52.987  19.851  1.00  0.00     0.202 C 
BRANCH  17  18
HETATM   18  C5  UNL     1      51.658  53.918  19.941  1.00  0.00     0.170 C 
BRANCH  18  19
HETATM   19  C4  UNL     1      51.453  55.320  19.466  1.00  0.00     0.308 C 
BRANCH  19  20
HETATM   20  N1  UNL     1      51.621  56.379  20.403  1.00  0.00     0.113 N 
BRANCH  20  21
HETATM   21  C2  UNL     1      53.052  56.803  20.392  1.00  0.00     0.270 C 
HETATM   22  C1  UNL     1      53.339  57.711  21.539  1.00  0.00     0.037 C 
ENDBRANCH  20  21
BRANCH  20  23
HETATM   23  C3  UNL     1      51.519  55.797  21.763  1.00  0.00     0.437 C 
BRANCH  23  24
HETATM   24  O1  UNL     1      50.345  56.313  22.373  1.00  0.00    -0.373 OA
ATOM     25  H1  UNL     1      49.618  56.168  21.780  1.00  0.00     0.211 HD
ENDBRANCH  23  24
ENDBRANCH  20  23
ENDBRANCH  19  20
ENDBRANCH  18  19
BRANCH  18  26
HETATM   26  O2  UNL     1      52.828  53.346  19.466  1.00  0.00    -0.392 OA
ATOM     27  H2  UNL     1      53.309  53.913  18.875  1.00  0.00     0.210 HD
ENDBRANCH  18  26
ENDBRANCH  17  18
ENDBRANCH  16  17
ENDBRANCH   1  16
BRANCH  15  28
HETATM   28  C24 UNL     1      48.057  55.977  18.851  1.00  0.00     0.016 C 
HETATM   29  C25 UNL     1      47.556  56.421  19.926  1.00  0.00     0.083 C 
BRANCH  29  30
HETATM   30  C26 UNL     1      47.857  57.856  20.252  1.00  0.00     0.282 C 
HETATM   31  O6  UNL     1      48.667  58.088  21.148  1.00  0.00    -0.260 OA
BRANCH  30  32
HETATM   32  O7  UNL     1      47.270  58.900  19.592  1.00  0.00    -0.323 OA
HETATM   33  C27 UNL     1      47.554  59.329  18.296  1.00  0.00     0.213 C 
ENDBRANCH  30  32
ENDBRANCH  29  30
ENDBRANCH  15  28
BRANCH   6  34
HETATM   34  C12 UNL     1      48.467  48.348  18.406  1.00  0.00     0.057 C 
HETATM   35  C13 UNL     1      48.158  48.362  19.911  1.00  0.00     0.045 C 
HETATM   36  C14 UNL     1      48.536  46.947  17.972  1.00  0.00     0.045 C 
BRANCH  34  37
HETATM   37  O5  UNL     1      49.761  48.911  18.288  1.00  0.00    -0.390 OA
ATOM     38  H5  UNL     1      49.751  49.493  17.538  1.00  0.00     0.210 HD
ENDBRANCH  34  37
ENDBRANCH   6  34
TORSDOF 14
ENDMDL
MODEL 5
REMARK VINA RESULT: -6.948524025      2.489      5.472
REMARK  14 active torsions:
REMARK  status: ('A' for Active; 'I' for Inactive)
REMARK    1  A    between atoms: C2_2  and  N1_3 
REMARK    2  A    between atoms: N1_3  and  C3_4 
REMARK    3  A    between atoms: N1_3  and  C4_7 
REMARK    4  A    between atoms: C3_4  and  O1_5 
REMARK    5  A    between atoms: C4_7  and  C5_8 
REMARK    6  A    between atoms: C5_8  and  O2_9 
REMARK    7  A    between atoms: C5_8  and  C6_11 
REMARK    8  A    between atoms: C6_11  and  O3_12 
REMARK    9  A    between atoms: O3_12  and  C7_13 
REMARK   10  A    between atoms: C11_18  and  C12_19 
REMARK   11  A    between atoms: C12_19  and  O5_22 
REMARK   12  A    between atoms: C23_32  and  C24_33 
REMARK   13  A    between atoms: C25_34  and  C26_35 
REMARK   14  A    between atoms: C26_35  and  O7_37 
ROOT
HETATM    1  C7  UNL     1      48.153  54.533  17.253  1.00  0.00     0.178 C 
HETATM    2  C8  UNL     1      47.807  53.790  18.560  1.00  0.00     0.205 C 
HETATM    3  O4  UNL     1      48.954  53.190  18.964  1.00  0.00    -0.376 OA
HETATM    4  C9  UNL     1      49.488  53.499  20.162  1.00  0.00     0.074 C 
HETATM    5  C10 UNL     1      48.448  53.435  21.287  1.00  0.00     0.047 C 
HETATM    6  C11 UNL     1      50.689  52.693  20.468  1.00  0.00     0.054 C 
HETATM    7  C15 UNL     1      51.180  53.286  21.735  1.00  0.00     0.012 C 
HETATM    8  C16 UNL     1      50.862  54.728  21.595  1.00  0.00     0.017 C 
HETATM    9  C17 UNL     1      50.085  54.911  20.255  1.00  0.00     0.005 C 
HETATM   10  C18 UNL     1      51.140  55.226  19.273  1.00  0.00     0.022 C 
HETATM   11  C19 UNL     1      49.014  55.904  20.429  1.00  0.00    -0.014 C 
HETATM   12  C20 UNL     1      48.198  56.552  19.689  1.00  0.00     0.004 C 
HETATM   13  C21 UNL     1      47.807  56.739  18.329  1.00  0.00    -0.053 C 
HETATM   14  C22 UNL     1      47.351  58.172  18.004  1.00  0.00     0.049 C 
HETATM   15  C23 UNL     1      47.761  55.924  17.246  1.00  0.00    -0.021 C 
ENDROOT
BRANCH   1  16
HETATM   16  O3  UNL     1      47.728  53.686  16.231  1.00  0.00    -0.377 OA
BRANCH  16  17
HETATM   17  C6  UNL     1      47.037  52.577  16.784  1.00  0.00     0.202 C 
BRANCH  17  18
HETATM   18  C5  UNL     1      47.628  51.304  16.320  1.00  0.00     0.170 C 
BRANCH  18  19
HETATM   19  C4  UNL     1      46.959  50.035  16.736  1.00  0.00     0.308 C 
BRANCH  19  20
HETATM   20  N1  UNL     1      47.582  48.801  16.391  1.00  0.00     0.113 N 
BRANCH  20  21
HETATM   21  C2  UNL     1      46.525  47.828  15.987  1.00  0.00     0.270 C 
HETATM   22  C1  UNL     1      45.947  47.153  17.183  1.00  0.00     0.037 C 
ENDBRANCH  20  21
BRANCH  20  23
HETATM   23  C3  UNL     1      48.064  48.174  17.646  1.00  0.00     0.437 C 
BRANCH  23  24
HETATM   24  O1  UNL     1      49.394  48.617  17.875  1.00  0.00    -0.373 OA
ATOM     25  H1  UNL     1      49.458  49.518  17.582  1.00  0.00     0.211 HD
ENDBRANCH  23  24
ENDBRANCH  20  23
ENDBRANCH  19  20
ENDBRANCH  18  19
BRANCH  18  26
HETATM   26  O2  UNL     1      49.004  51.278  16.494  1.00  0.00    -0.392 OA
ATOM     27  H2  UNL     1      49.398  52.143  16.493  1.00  0.00     0.210 HD
ENDBRANCH  18  26
ENDBRANCH  17  18
ENDBRANCH  16  17
ENDBRANCH   1  16
BRANCH  15  28
HETATM   28  C24 UNL     1      47.264  56.499  15.972  1.00  0.00     0.016 C 
HETATM   29  C25 UNL     1      46.275  56.230  15.227  1.00  0.00     0.083 C 
BRANCH  29  30
HETATM   30  C26 UNL     1      46.129  57.074  13.993  1.00  0.00     0.282 C 
HETATM   31  O6  UNL     1      47.006  56.999  13.134  1.00  0.00    -0.260 OA
BRANCH  30  32
HETATM   32  O7  UNL     1      45.065  57.910  13.794  1.00  0.00    -0.323 OA
HETATM   33  C27 UNL     1      44.744  59.040  14.544  1.00  0.00     0.213 C 
ENDBRANCH  30  32
ENDBRANCH  29  30
ENDBRANCH  15  28
BRANCH   6  34
HETATM   34  C12 UNL     1      50.554  51.223  20.434  1.00  0.00     0.057 C 
HETATM   35  C13 UNL     1      51.893  50.652  19.941  1.00  0.00     0.045 C 
HETATM   36  C14 UNL     1      50.174  50.497  21.651  1.00  0.00     0.045 C 
BRANCH  34  37
HETATM   37  O5  UNL     1      49.619  50.905  19.419  1.00  0.00    -0.390 OA
ATOM     38  H5  UNL     1      50.028  50.268  18.844  1.00  0.00     0.210 HD
ENDBRANCH  34  37
ENDBRANCH   6  34
TORSDOF 14
ENDMDL
