MODEL 1
REMARK VINA RESULT: -6.722107248      0.000      0.000
REMARK  17 active torsions:
REMARK  status: ('A' for Active; 'I' for Inactive)
REMARK    1  A    between atoms: C2_2  and  C3_3 
REMARK    2  A    between atoms: C3_3  and  C4_4 
REMARK    3  A    between atoms: C4_4  and  N1_5 
REMARK    4  A    between atoms: N1_5  and  C5_7 
REMARK    5  A    between atoms: C7_9  and  O1_10 
REMARK    6  A    between atoms: C8_12  and  N2_13 
REMARK    7  A    between atoms: C10_18  and  O2_19 
REMARK    8  A    between atoms: O2_19  and  C11_20 
REMARK    9  A    between atoms: C12_22  and  O4_23 
REMARK   10  A    between atoms: O4_23  and  C13_24 
REMARK   11  A    between atoms: C14_26  and  C15_27 
REMARK   12  A    between atoms: C15_27  and  N3_28 
REMARK   13  A    between atoms: C16_32  and  O6_33 
REMARK   14  A    between atoms: C17_35  and  O7_37 
REMARK   15  A    between atoms: C19_39  and  O8_41 
REMARK   16  A    between atoms: C21_43  and  N4_44 
REMARK   17  A    between atoms: C23_49  and  N5_50 
ROOT
HETATM    1  C11 UNL     1     -12.876  -4.480   6.545  1.00  0.00     0.293 C 
HETATM    2  O3  UNL     1     -11.778  -5.181   7.011  1.00  0.00    -0.327 OA
HETATM    3  C12 UNL     1     -12.056  -6.409   7.541  1.00  0.00     0.296 C 
HETATM    4  C21 UNL     1     -13.363  -6.371   8.304  1.00  0.00     0.240 C 
HETATM    5  C22 UNL     1     -14.461  -6.295   7.253  1.00  0.00     0.075 C 
HETATM    6  C23 UNL     1     -14.024  -5.353   6.156  1.00  0.00     0.240 C 
ENDROOT
BRANCH   3   7
HETATM    7  O4  UNL     1     -10.989  -6.782   8.343  1.00  0.00    -0.326 OA
BRANCH   7   8
HETATM    8  C13 UNL     1     -10.448  -8.031   7.917  1.00  0.00     0.300 C 
HETATM    9  O5  UNL     1     -10.210  -8.702   9.062  1.00  0.00    -0.348 OA
HETATM   10  C14 UNL     1      -8.922  -8.961   9.409  1.00  0.00     0.181 C 
HETATM   11  C16 UNL     1      -8.059  -9.377   8.237  1.00  0.00     0.186 C 
HETATM   12  C17 UNL     1      -7.973  -8.142   7.369  1.00  0.00     0.117 C 
HETATM   13  C18 UNL     1      -7.061  -8.357   6.181  1.00  0.00     0.052 C 
HETATM   14  C19 UNL     1      -9.349  -7.742   6.978  1.00  0.00     0.137 C 
HETATM   15  C20 UNL     1      -9.631  -8.427   5.626  1.00  0.00     0.054 C 
BRANCH  10  16
HETATM   16  C15 UNL     1      -8.801  -9.904  10.585  1.00  0.00     0.264 C 
BRANCH  16  17
HETATM   17  N3  UNL     1      -7.460 -10.496  10.535  1.00  0.00    -0.077 N 
ATOM     18  H33 UNL     1      -7.398 -11.290   9.898  1.00  0.00     0.274 HD
ATOM     19  H32 UNL     1      -6.778  -9.899  10.066  1.00  0.00     0.274 HD
ATOM     20  H31 UNL     1      -7.194 -10.730  11.491  1.00  0.00     0.274 HD
ENDBRANCH  16  17
ENDBRANCH  10  16
BRANCH  11  21
HETATM   21  O6  UNL     1      -8.464 -10.504   7.603  1.00  0.00    -0.390 OA
ATOM     22  H6  UNL     1      -8.138 -11.313   7.980  1.00  0.00     0.210 HD
ENDBRANCH  11  21
BRANCH  12  23
HETATM   23  O7  UNL     1      -7.411  -7.117   8.161  1.00  0.00    -0.384 OA
ATOM     24  H7  UNL     1      -6.504  -7.023   7.892  1.00  0.00     0.210 HD
ENDBRANCH  12  23
BRANCH  14  25
HETATM   25  O8  UNL     1      -9.284  -6.354   6.673  1.00  0.00    -0.382 OA
ATOM     26  H8  UNL     1      -9.702  -6.166   5.840  1.00  0.00     0.210 HD
ENDBRANCH  14  25
ENDBRANCH   7   8
ENDBRANCH   3   7
BRANCH   4  27
HETATM   27  N4  UNL     1     -13.435  -5.312   9.274  1.00  0.00    -0.070 N 
ATOM     28  H43 UNL     1     -13.437  -5.691  10.221  1.00  0.00     0.274 HD
ATOM     29  H42 UNL     1     -12.560  -4.789   9.302  1.00  0.00     0.274 HD
ATOM     30  H41 UNL     1     -14.227  -4.684   9.137  1.00  0.00     0.274 HD
ENDBRANCH   4  27
BRANCH   1  31
HETATM   31  O2  UNL     1     -12.466  -3.775   5.415  1.00  0.00    -0.352 OA
BRANCH  31  32
HETATM   32  C10 UNL     1     -12.738  -2.423   5.465  1.00  0.00     0.149 C 
HETATM   33  C5  UNL     1     -12.018  -1.605   4.438  1.00  0.00     0.108 C 
HETATM   34  C6  UNL     1     -10.536  -1.922   4.614  1.00  0.00     0.061 C 
HETATM   35  C7  UNL     1     -10.134  -1.189   5.893  1.00  0.00     0.150 C 
HETATM   36  C8  UNL     1     -10.934  -1.666   7.071  1.00  0.00     0.214 C 
HETATM   37  C9  UNL     1     -12.392  -1.821   6.833  1.00  0.00     0.069 C 
BRANCH  33  38
HETATM   38  N1  UNL     1     -12.360  -1.859   3.086  1.00  0.00    -0.414 N 
ATOM     39  H1  UNL     1     -13.317  -2.088   2.816  1.00  0.00     0.153 HD
BRANCH  38  40
HETATM   40  C4  UNL     1     -11.317  -1.781   2.124  1.00  0.00     0.114 C 
BRANCH  40  41
HETATM   41  C3  UNL     1     -11.580  -0.772   1.016  1.00  0.00     0.019 C 
BRANCH  41  42
HETATM   42  C2  UNL     1     -13.023  -0.297   1.119  1.00  0.00    -0.003 C 
HETATM   43  C1  UNL     1     -13.418   0.499  -0.081  1.00  0.00     0.005 C 
ENDBRANCH  41  42
ENDBRANCH  40  41
ENDBRANCH  38  40
ENDBRANCH  33  38
BRANCH  35  44
HETATM   44  O1  UNL     1      -8.783  -1.384   6.176  1.00  0.00    -0.393 OA
ATOM     45  H1  UNL     1      -8.236  -0.836   5.626  1.00  0.00     0.210 HD
ENDBRANCH  35  44
BRANCH  36  46
HETATM   46  N2  UNL     1     -10.307  -2.853   7.643  1.00  0.00    -0.072 N 
ATOM     47  H23 UNL     1     -10.975  -3.610   7.785  1.00  0.00     0.274 HD
ATOM     48  H22 UNL     1      -9.693  -3.321   6.977  1.00  0.00     0.274 HD
ATOM     49  H21 UNL     1      -9.821  -2.604   8.504  1.00  0.00     0.274 HD
ENDBRANCH  36  46
ENDBRANCH  31  32
ENDBRANCH   1  31
BRANCH   6  50
HETATM   50  N5  UNL     1     -13.707  -6.010   4.916  1.00  0.00    -0.070 N 
ATOM     51  H53 UNL     1     -13.277  -5.379   4.239  1.00  0.00     0.274 HD
ATOM     52  H52 UNL     1     -12.933  -6.666   5.010  1.00  0.00     0.274 HD
ATOM     53  H51 UNL     1     -14.551  -6.453   4.554  1.00  0.00     0.274 HD
ENDBRANCH   6  50
TORSDOF 17
ENDMDL
MODEL 2
REMARK VINA RESULT: -6.641621419      2.339      3.703
REMARK  17 active torsions:
REMARK  status: ('A' for Active; 'I' for Inactive)
REMARK    1  A    between atoms: C2_2  and  C3_3 
REMARK    2  A    between atoms: C3_3  and  C4_4 
REMARK    3  A    between atoms: C4_4  and  N1_5 
REMARK    4  A    between atoms: N1_5  and  C5_7 
REMARK    5  A    between atoms: C7_9  and  O1_10 
REMARK    6  A    between atoms: C8_12  and  N2_13 
REMARK    7  A    between atoms: C10_18  and  O2_19 
REMARK    8  A    between atoms: O2_19  and  C11_20 
REMARK    9  A    between atoms: C12_22  and  O4_23 
REMARK   10  A    between atoms: O4_23  and  C13_24 
REMARK   11  A    between atoms: C14_26  and  C15_27 
REMARK   12  A    between atoms: C15_27  and  N3_28 
REMARK   13  A    between atoms: C16_32  and  O6_33 
REMARK   14  A    between atoms: C17_35  and  O7_37 
REMARK   15  A    between atoms: C19_39  and  O8_41 
REMARK   16  A    between atoms: C21_43  and  N4_44 
REMARK   17  A    between atoms: C23_49  and  N5_50 
ROOT
HETATM    1  C11 UNL     1     -13.205  -4.278   8.840  1.00  0.00     0.293 C 
HETATM    2  O3  UNL     1     -12.018  -4.872   8.450  1.00  0.00    -0.327 OA
HETATM    3  C12 UNL     1     -11.848  -6.160   8.873  1.00  0.00     0.296 C 
HETATM    4  C21 UNL     1     -12.410  -6.336  10.267  1.00  0.00     0.240 C 
HETATM    5  C22 UNL     1     -13.924  -6.318  10.115  1.00  0.00     0.075 C 
HETATM    6  C23 UNL     1     -14.303  -5.253   9.113  1.00  0.00     0.240 C 
ENDROOT
BRANCH   3   7
HETATM    7  O4  UNL     1     -10.495  -6.458   8.808  1.00  0.00    -0.326 OA
BRANCH   7   8
HETATM    8  C13 UNL     1     -10.288  -7.752   8.246  1.00  0.00     0.300 C 
HETATM    9  O5  UNL     1      -9.808  -8.489   9.269  1.00  0.00    -0.348 OA
HETATM   10  C14 UNL     1      -8.524  -8.930   9.206  1.00  0.00     0.181 C 
HETATM   11  C16 UNL     1      -8.125  -9.416   7.829  1.00  0.00     0.186 C 
HETATM   12  C17 UNL     1      -8.138  -8.174   6.967  1.00  0.00     0.117 C 
HETATM   13  C18 UNL     1      -7.670  -8.468   5.559  1.00  0.00     0.052 C 
HETATM   14  C19 UNL     1      -9.499  -7.580   7.014  1.00  0.00     0.137 C 
HETATM   15  C20 UNL     1     -10.270  -8.172   5.819  1.00  0.00     0.054 C 
BRANCH  10  16
HETATM   16  C15 UNL     1      -8.183  -9.923  10.296  1.00  0.00     0.264 C 
BRANCH  16  17
HETATM   17  N3  UNL     1      -7.340 -10.960   9.693  1.00  0.00    -0.077 N 
ATOM     18  H33 UNL     1      -7.850 -11.820   9.489  1.00  0.00     0.274 HD
ATOM     19  H32 UNL     1      -7.063 -10.742   8.736  1.00  0.00     0.274 HD
ATOM     20  H31 UNL     1      -6.545 -11.106  10.315  1.00  0.00     0.274 HD
ENDBRANCH  16  17
ENDBRANCH  10  16
BRANCH  11  21
HETATM   21  O6  UNL     1      -8.856 -10.456   7.358  1.00  0.00    -0.390 OA
ATOM     22  H6  UNL     1      -8.505 -10.870   6.579  1.00  0.00     0.210 HD
ENDBRANCH  11  21
BRANCH  12  23
HETATM   23  O7  UNL     1      -7.225  -7.263   7.542  1.00  0.00    -0.384 OA
ATOM     24  H7  UNL     1      -7.727  -6.507   7.826  1.00  0.00     0.210 HD
ENDBRANCH  12  23
BRANCH  14  25
HETATM   25  O8  UNL     1      -9.338  -6.203   6.693  1.00  0.00    -0.382 OA
ATOM     26  H8  UNL     1     -10.035  -5.900   6.123  1.00  0.00     0.210 HD
ENDBRANCH  14  25
ENDBRANCH   7   8
ENDBRANCH   3   7
BRANCH   4  27
HETATM   27  N4  UNL     1     -11.925  -5.367  11.212  1.00  0.00    -0.070 N 
ATOM     28  H43 UNL     1     -12.597  -5.233  11.968  1.00  0.00     0.274 HD
ATOM     29  H42 UNL     1     -11.141  -5.744  11.745  1.00  0.00     0.274 HD
ATOM     30  H41 UNL     1     -11.677  -4.472  10.790  1.00  0.00     0.274 HD
ENDBRANCH   4  27
BRANCH   1  31
HETATM   31  O2  UNL     1     -13.613  -3.449   7.796  1.00  0.00    -0.352 OA
BRANCH  31  32
HETATM   32  C10 UNL     1     -12.663  -3.274   6.811  1.00  0.00     0.149 C 
HETATM   33  C5  UNL     1     -11.814  -2.051   6.973  1.00  0.00     0.108 C 
HETATM   34  C6  UNL     1     -12.785  -0.880   7.079  1.00  0.00     0.061 C 
HETATM   35  C7  UNL     1     -13.303  -0.677   5.656  1.00  0.00     0.150 C 
HETATM   36  C8  UNL     1     -13.994  -1.910   5.145  1.00  0.00     0.214 C 
HETATM   37  C9  UNL     1     -13.295  -3.193   5.415  1.00  0.00     0.069 C 
BRANCH  33  38
HETATM   38  N1  UNL     1     -10.972  -2.024   8.112  1.00  0.00    -0.414 N 
ATOM     39  H1  UNL     1     -11.247  -2.472   8.986  1.00  0.00     0.153 HD
BRANCH  38  40
HETATM   40  C4  UNL     1      -9.729  -1.346   7.988  1.00  0.00     0.114 C 
BRANCH  40  41
HETATM   41  C3  UNL     1      -9.059  -1.045   9.320  1.00  0.00     0.019 C 
BRANCH  41  42
HETATM   42  C2  UNL     1      -8.186   0.192   9.161  1.00  0.00    -0.003 C 
HETATM   43  C1  UNL     1      -7.812   0.413   7.733  1.00  0.00     0.005 C 
ENDBRANCH  41  42
ENDBRANCH  40  41
ENDBRANCH  38  40
ENDBRANCH  33  38
BRANCH  35  44
HETATM   44  O1  UNL     1     -14.206   0.383   5.598  1.00  0.00    -0.393 OA
ATOM     45  H1  UNL     1     -14.003   0.965   4.875  1.00  0.00     0.210 HD
ENDBRANCH  35  44
BRANCH  36  46
HETATM   46  N2  UNL     1     -15.389  -1.904   5.574  1.00  0.00    -0.072 N 
ATOM     47  H23 UNL     1     -15.931  -2.643   5.128  1.00  0.00     0.274 HD
ATOM     48  H22 UNL     1     -15.495  -2.208   6.542  1.00  0.00     0.274 HD
ATOM     49  H21 UNL     1     -15.793  -0.982   5.415  1.00  0.00     0.274 HD
ENDBRANCH  36  46
ENDBRANCH  31  32
ENDBRANCH   1  31
BRANCH   6  50
HETATM   50  N5  UNL     1     -14.781  -5.775   7.861  1.00  0.00    -0.070 N 
ATOM     51  H53 UNL     1     -15.470  -6.518   7.987  1.00  0.00     0.274 HD
ATOM     52  H52 UNL     1     -15.376  -5.113   7.365  1.00  0.00     0.274 HD
ATOM     53  H51 UNL     1     -13.983  -6.075   7.303  1.00  0.00     0.274 HD
ENDBRANCH   6  50
TORSDOF 17
ENDMDL
MODEL 3
REMARK VINA RESULT: -6.606950454      2.759      4.433
REMARK  17 active torsions:
REMARK  status: ('A' for Active; 'I' for Inactive)
REMARK    1  A    between atoms: C2_2  and  C3_3 
REMARK    2  A    between atoms: C3_3  and  C4_4 
REMARK    3  A    between atoms: C4_4  and  N1_5 
REMARK    4  A    between atoms: N1_5  and  C5_7 
REMARK    5  A    between atoms: C7_9  and  O1_10 
REMARK    6  A    between atoms: C8_12  and  N2_13 
REMARK    7  A    between atoms: C10_18  and  O2_19 
REMARK    8  A    between atoms: O2_19  and  C11_20 
REMARK    9  A    between atoms: C12_22  and  O4_23 
REMARK   10  A    between atoms: O4_23  and  C13_24 
REMARK   11  A    between atoms: C14_26  and  C15_27 
REMARK   12  A    between atoms: C15_27  and  N3_28 
REMARK   13  A    between atoms: C16_32  and  O6_33 
REMARK   14  A    between atoms: C17_35  and  O7_37 
REMARK   15  A    between atoms: C19_39  and  O8_41 
REMARK   16  A    between atoms: C21_43  and  N4_44 
REMARK   17  A    between atoms: C23_49  and  N5_50 
ROOT
HETATM    1  C11 UNL     1     -11.212  -3.845   6.642  1.00  0.00     0.293 C 
HETATM    2  O3  UNL     1     -10.696  -5.103   6.896  1.00  0.00    -0.327 OA
HETATM    3  C12 UNL     1     -10.934  -6.035   5.926  1.00  0.00     0.296 C 
HETATM    4  C21 UNL     1     -12.315  -5.841   5.335  1.00  0.00     0.240 C 
HETATM    5  C22 UNL     1     -12.230  -4.591   4.471  1.00  0.00     0.075 C 
HETATM    6  C23 UNL     1     -11.397  -3.555   5.189  1.00  0.00     0.240 C 
ENDROOT
BRANCH   3   7
HETATM    7  O4  UNL     1     -10.773  -7.292   6.488  1.00  0.00    -0.326 OA
BRANCH   7   8
HETATM    8  C13 UNL     1      -9.524  -7.385   7.171  1.00  0.00     0.300 C 
HETATM    9  O5  UNL     1      -8.608  -7.461   6.184  1.00  0.00    -0.348 OA
HETATM   10  C14 UNL     1      -7.912  -8.617   6.030  1.00  0.00     0.181 C 
HETATM   11  C16 UNL     1      -7.486  -9.239   7.343  1.00  0.00     0.186 C 
HETATM   12  C17 UNL     1      -8.779  -9.664   8.001  1.00  0.00     0.117 C 
HETATM   13  C18 UNL     1      -8.529 -10.394   9.302  1.00  0.00     0.052 C 
HETATM   14  C19 UNL     1      -9.642  -8.465   8.165  1.00  0.00     0.137 C 
HETATM   15  C20 UNL     1      -9.345  -7.908   9.571  1.00  0.00     0.054 C 
BRANCH  10  16
HETATM   16  C15 UNL     1      -6.770  -8.497   5.045  1.00  0.00     0.264 C 
BRANCH  16  17
HETATM   17  N3  UNL     1      -7.269  -8.946   3.741  1.00  0.00    -0.077 N 
ATOM     18  H33 UNL     1      -7.952  -8.307   3.334  1.00  0.00     0.274 HD
ATOM     19  H32 UNL     1      -6.569  -8.878   3.002  1.00  0.00     0.274 HD
ATOM     20  H31 UNL     1      -7.630  -9.892   3.863  1.00  0.00     0.274 HD
ENDBRANCH  16  17
ENDBRANCH  10  16
BRANCH  11  21
HETATM   21  O6  UNL     1      -6.676  -8.463   8.104  1.00  0.00    -0.390 OA
ATOM     22  H6  UNL     1      -6.463  -8.824   8.956  1.00  0.00     0.210 HD
ENDBRANCH  11  21
BRANCH  12  23
HETATM   23  O7  UNL     1      -9.416 -10.564   7.119  1.00  0.00    -0.384 OA
ATOM     24  H7  UNL     1      -8.950 -11.390   7.180  1.00  0.00     0.210 HD
ENDBRANCH  12  23
BRANCH  14  25
HETATM   25  O8  UNL     1     -10.977  -8.950   8.245  1.00  0.00    -0.382 OA
ATOM     26  H8  UNL     1     -11.179  -9.260   9.120  1.00  0.00     0.210 HD
ENDBRANCH  14  25
ENDBRANCH   7   8
ENDBRANCH   3   7
BRANCH   4  27
HETATM   27  N4  UNL     1     -13.360  -5.778   6.320  1.00  0.00    -0.070 N 
ATOM     28  H43 UNL     1     -13.090  -6.280   7.165  1.00  0.00     0.274 HD
ATOM     29  H42 UNL     1     -13.440  -4.835   6.700  1.00  0.00     0.274 HD
ATOM     30  H41 UNL     1     -14.264  -6.107   5.980  1.00  0.00     0.274 HD
ENDBRANCH   4  27
BRANCH   1  31
HETATM   31  O2  UNL     1     -10.308  -2.917   7.156  1.00  0.00    -0.352 OA
BRANCH  31  32
HETATM   32  C10 UNL     1     -10.828  -1.646   7.302  1.00  0.00     0.149 C 
HETATM   33  C5  UNL     1      -9.814  -0.592   7.622  1.00  0.00     0.108 C 
HETATM   34  C6  UNL     1      -9.079  -1.082   8.866  1.00  0.00     0.061 C 
HETATM   35  C7  UNL     1     -10.072  -0.875  10.008  1.00  0.00     0.150 C 
HETATM   36  C8  UNL     1     -11.335  -1.656   9.782  1.00  0.00     0.214 C 
HETATM   37  C9  UNL     1     -11.892  -1.588   8.406  1.00  0.00     0.069 C 
BRANCH  33  38
HETATM   38  N1  UNL     1      -8.847  -0.332   6.619  1.00  0.00    -0.414 N 
ATOM     39  H1  UNL     1      -8.969  -0.671   5.664  1.00  0.00     0.153 HD
BRANCH  38  40
HETATM   40  C4  UNL     1      -7.702   0.420   6.997  1.00  0.00     0.114 C 
BRANCH  40  41
HETATM   41  C3  UNL     1      -6.607   0.440   5.941  1.00  0.00     0.019 C 
BRANCH  41  42
HETATM   42  C2  UNL     1      -5.269   0.681   6.627  1.00  0.00    -0.003 C 
HETATM   43  C1  UNL     1      -4.332   1.431   5.739  1.00  0.00     0.005 C 
ENDBRANCH  41  42
ENDBRANCH  40  41
ENDBRANCH  38  40
ENDBRANCH  33  38
BRANCH  35  44
HETATM   44  O1  UNL     1      -9.524  -1.277  11.226  1.00  0.00    -0.393 OA
ATOM     45  H1  UNL     1      -9.903  -0.789  11.947  1.00  0.00     0.210 HD
ENDBRANCH  35  44
BRANCH  36  46
HETATM   46  N2  UNL     1     -11.166  -3.019  10.276  1.00  0.00    -0.072 N 
ATOM     47  H23 UNL     1     -10.203  -3.210  10.552  1.00  0.00     0.274 HD
ATOM     48  H22 UNL     1     -11.609  -3.156  11.184  1.00  0.00     0.274 HD
ATOM     49  H21 UNL     1     -11.505  -3.681   9.579  1.00  0.00     0.274 HD
ENDBRANCH  36  46
ENDBRANCH  31  32
ENDBRANCH   1  31
BRANCH   6  50
HETATM   50  N5  UNL     1     -10.108  -3.330   4.593  1.00  0.00    -0.070 N 
ATOM     51  H53 UNL     1      -9.362  -3.829   5.078  1.00  0.00     0.274 HD
ATOM     52  H52 UNL     1     -10.014  -3.784   3.684  1.00  0.00     0.274 HD
ATOM     53  H51 UNL     1      -9.938  -2.326   4.545  1.00  0.00     0.274 HD
ENDBRANCH   6  50
TORSDOF 17
ENDMDL
MODEL 4
REMARK VINA RESULT: -6.508564094      2.074      7.907
REMARK  17 active torsions:
REMARK  status: ('A' for Active; 'I' for Inactive)
REMARK    1  A    between atoms: C2_2  and  C3_3 
REMARK    2  A    between atoms: C3_3  and  C4_4 
REMARK    3  A    between atoms: C4_4  and  N1_5 
REMARK    4  A    between atoms: N1_5  and  C5_7 
REMARK    5  A    between atoms: C7_9  and  O1_10 
REMARK    6  A    between atoms: C8_12  and  N2_13 
REMARK    7  A    between atoms: C10_18  and  O2_19 
REMARK    8  A    between atoms: O2_19  and  C11_20 
REMARK    9  A    between atoms: C12_22  and  O4_23 
REMARK   10  A    between atoms: O4_23  and  C13_24 
REMARK   11  A    between atoms: C14_26  and  C15_27 
REMARK   12  A    between atoms: C15_27  and  N3_28 
REMARK   13  A    between atoms: C16_32  and  O6_33 
REMARK   14  A    between atoms: C17_35  and  O7_37 
REMARK   15  A    between atoms: C19_39  and  O8_41 
REMARK   16  A    between atoms: C21_43  and  N4_44 
REMARK   17  A    between atoms: C23_49  and  N5_50 
ROOT
HETATM    1  C11 UNL     1     -11.818  -7.061   8.625  1.00  0.00     0.293 C 
HETATM    2  O3  UNL     1     -11.741  -5.734   8.241  1.00  0.00    -0.327 OA
HETATM    3  C12 UNL     1     -12.819  -4.967   8.584  1.00  0.00     0.296 C 
HETATM    4  C21 UNL     1     -14.098  -5.766   8.450  1.00  0.00     0.240 C 
HETATM    5  C22 UNL     1     -14.105  -6.747   9.614  1.00  0.00     0.075 C 
HETATM    6  C23 UNL     1     -12.709  -7.295   9.800  1.00  0.00     0.240 C 
ENDROOT
BRANCH   3   7
HETATM    7  O4  UNL     1     -12.815  -3.838   7.780  1.00  0.00    -0.326 OA
BRANCH   7   8
HETATM    8  C13 UNL     1     -11.738  -3.884   6.846  1.00  0.00     0.300 C 
HETATM    9  O5  UNL     1     -10.807  -3.060   7.369  1.00  0.00    -0.348 OA
HETATM   10  C14 UNL     1     -10.517  -1.906   6.712  1.00  0.00     0.181 C 
HETATM   11  C16 UNL     1     -10.447  -2.074   5.209  1.00  0.00     0.186 C 
HETATM   12  C17 UNL     1     -11.865  -2.396   4.795  1.00  0.00     0.117 C 
HETATM   13  C18 UNL     1     -11.995  -2.509   3.292  1.00  0.00     0.052 C 
HETATM   14  C19 UNL     1     -12.299  -3.625   5.509  1.00  0.00     0.137 C 
HETATM   15  C20 UNL     1     -11.972  -4.806   4.574  1.00  0.00     0.054 C 
BRANCH  10  16
HETATM   16  C15 UNL     1      -9.310  -1.189   7.275  1.00  0.00     0.264 C 
BRANCH  16  17
HETATM   17  N3  UNL     1      -8.764  -0.347   6.205  1.00  0.00    -0.077 N 
ATOM     18  H33 UNL     1      -7.887  -0.704   5.825  1.00  0.00     0.274 HD
ATOM     19  H32 UNL     1      -9.309  -0.394   5.344  1.00  0.00     0.274 HD
ATOM     20  H31 UNL     1      -8.683   0.600   6.575  1.00  0.00     0.274 HD
ENDBRANCH  16  17
ENDBRANCH  10  16
BRANCH  11  21
HETATM   21  O6  UNL     1      -9.505  -2.947   4.777  1.00  0.00    -0.390 OA
ATOM     22  H6  UNL     1      -9.808  -3.840   4.666  1.00  0.00     0.210 HD
ENDBRANCH  11  21
BRANCH  12  23
HETATM   23  O7  UNL     1     -12.674  -1.318   5.216  1.00  0.00    -0.384 OA
ATOM     24  H7  UNL     1     -12.197  -0.519   5.021  1.00  0.00     0.210 HD
ENDBRANCH  12  23
BRANCH  14  25
HETATM   25  O8  UNL     1     -13.720  -3.577   5.546  1.00  0.00    -0.382 OA
ATOM     26  H8  UNL     1     -14.096  -3.894   4.733  1.00  0.00     0.210 HD
ENDBRANCH  14  25
ENDBRANCH   7   8
ENDBRANCH   3   7
BRANCH   4  27
HETATM   27  N4  UNL     1     -14.249  -6.405   7.171  1.00  0.00    -0.070 N 
ATOM     28  H43 UNL     1     -13.387  -6.879   6.902  1.00  0.00     0.274 HD
ATOM     29  H42 UNL     1     -14.871  -7.210   7.242  1.00  0.00     0.274 HD
ATOM     30  H41 UNL     1     -14.559  -5.774   6.431  1.00  0.00     0.274 HD
ENDBRANCH   4  27
BRANCH   1  31
HETATM   31  O2  UNL     1     -10.530  -7.465   8.972  1.00  0.00    -0.352 OA
BRANCH  31  32
HETATM   32  C10 UNL     1     -10.191  -8.722   8.513  1.00  0.00     0.149 C 
HETATM   33  C5  UNL     1      -8.773  -9.122   8.782  1.00  0.00     0.108 C 
HETATM   34  C6  UNL     1      -7.906  -8.016   8.188  1.00  0.00     0.061 C 
HETATM   35  C7  UNL     1      -7.980  -8.237   6.678  1.00  0.00     0.150 C 
HETATM   36  C8  UNL     1      -9.395  -8.143   6.181  1.00  0.00     0.214 C 
HETATM   37  C9  UNL     1     -10.409  -8.855   7.000  1.00  0.00     0.069 C 
BRANCH  33  38
HETATM   38  N1  UNL     1      -8.416  -9.271  10.146  1.00  0.00    -0.414 N 
ATOM     39  H1  UNL     1      -8.331  -8.463  10.763  1.00  0.00     0.153 HD
BRANCH  38  40
HETATM   40  C4  UNL     1      -8.181 -10.591  10.618  1.00  0.00     0.114 C 
BRANCH  40  41
HETATM   41  C3  UNL     1      -9.112 -11.013  11.744  1.00  0.00     0.019 C 
BRANCH  41  42
HETATM   42  C2  UNL     1     -10.132  -9.907  11.977  1.00  0.00    -0.003 C 
HETATM   43  C1  UNL     1     -11.512 -10.360  11.634  1.00  0.00     0.005 C 
ENDBRANCH  41  42
ENDBRANCH  40  41
ENDBRANCH  38  40
ENDBRANCH  33  38
BRANCH  35  44
HETATM   44  O1  UNL     1      -7.216  -7.291   5.997  1.00  0.00    -0.393 OA
ATOM     45  H1  UNL     1      -6.585  -7.711   5.424  1.00  0.00     0.210 HD
ENDBRANCH  35  44
BRANCH  36  46
HETATM   46  N2  UNL     1      -9.732  -6.748   5.918  1.00  0.00    -0.072 N 
ATOM     47  H23 UNL     1      -9.798  -6.550   4.920  1.00  0.00     0.274 HD
ATOM     48  H22 UNL     1     -10.694  -6.531   6.176  1.00  0.00     0.274 HD
ATOM     49  H21 UNL     1      -9.062  -6.139   6.386  1.00  0.00     0.274 HD
ENDBRANCH  36  46
ENDBRANCH  31  32
ENDBRANCH   1  31
BRANCH   6  50
HETATM   50  N5  UNL     1     -12.050  -6.816  10.985  1.00  0.00    -0.070 N 
ATOM     51  H53 UNL     1     -11.037  -6.936  10.943  1.00  0.00     0.274 HD
ATOM     52  H52 UNL     1     -12.069  -5.799  11.058  1.00  0.00     0.274 HD
ATOM     53  H51 UNL     1     -12.462  -7.273  11.798  1.00  0.00     0.274 HD
ENDBRANCH   6  50
TORSDOF 17
ENDMDL
MODEL 5
REMARK VINA RESULT: -6.334432041      1.990      2.902
REMARK  17 active torsions:
REMARK  status: ('A' for Active; 'I' for Inactive)
REMARK    1  A    between atoms: C2_2  and  C3_3 
REMARK    2  A    between atoms: C3_3  and  C4_4 
REMARK    3  A    between atoms: C4_4  and  N1_5 
REMARK    4  A    between atoms: N1_5  and  C5_7 
REMARK    5  A    between atoms: C7_9  and  O1_10 
REMARK    6  A    between atoms: C8_12  and  N2_13 
REMARK    7  A    between atoms: C10_18  and  O2_19 
REMARK    8  A    between atoms: O2_19  and  C11_20 
REMARK    9  A    between atoms: C12_22  and  O4_23 
REMARK   10  A    between atoms: O4_23  and  C13_24 
REMARK   11  A    between atoms: C14_26  and  C15_27 
REMARK   12  A    between atoms: C15_27  and  N3_28 
REMARK   13  A    between atoms: C16_32  and  O6_33 
REMARK   14  A    between atoms: C17_35  and  O7_37 
REMARK   15  A    between atoms: C19_39  and  O8_41 
REMARK   16  A    between atoms: C21_43  and  N4_44 
REMARK   17  A    between atoms: C23_49  and  N5_50 
ROOT
HETATM    1  C11 UNL     1     -12.514  -5.322   6.451  1.00  0.00     0.293 C 
HETATM    2  O3  UNL     1     -11.661  -6.379   6.714  1.00  0.00    -0.327 OA
HETATM    3  C12 UNL     1     -12.033  -7.575   6.167  1.00  0.00     0.296 C 
HETATM    4  C21 UNL     1     -13.538  -7.732   6.213  1.00  0.00     0.240 C 
HETATM    5  C22 UNL     1     -14.091  -6.787   5.156  1.00  0.00     0.075 C 
HETATM    6  C23 UNL     1     -13.312  -5.493   5.199  1.00  0.00     0.240 C 
ENDROOT
BRANCH   3   7
HETATM    7  O4  UNL     1     -11.377  -8.584   6.855  1.00  0.00    -0.326 OA
BRANCH   7   8
HETATM    8  C13 UNL     1     -10.074  -8.162   7.254  1.00  0.00     0.300 C 
HETATM    9  O5  UNL     1      -9.289  -8.455   6.197  1.00  0.00    -0.348 OA
HETATM   10  C14 UNL     1      -8.347  -9.424   6.336  1.00  0.00     0.181 C 
HETATM   11  C16 UNL     1      -7.630  -9.375   7.669  1.00  0.00     0.186 C 
HETATM   12  C17 UNL     1      -8.690  -9.734   8.686  1.00  0.00     0.117 C 
HETATM   13  C18 UNL     1      -8.116  -9.820  10.083  1.00  0.00     0.052 C 
HETATM   14  C19 UNL     1      -9.801  -8.754   8.575  1.00  0.00     0.137 C 
HETATM   15  C20 UNL     1      -9.493  -7.634   9.589  1.00  0.00     0.054 C 
BRANCH  10  16
HETATM   16  C15 UNL     1      -7.393  -9.499   5.164  1.00  0.00     0.264 C 
BRANCH  16  17
HETATM   17  N3  UNL     1      -6.919  -8.137   4.900  1.00  0.00    -0.077 N 
ATOM     18  H33 UNL     1      -7.439  -7.426   5.415  1.00  0.00     0.274 HD
ATOM     19  H32 UNL     1      -6.002  -7.948   5.306  1.00  0.00     0.274 HD
ATOM     20  H31 UNL     1      -6.944  -7.997   3.890  1.00  0.00     0.274 HD
ENDBRANCH  16  17
ENDBRANCH  10  16
BRANCH  11  21
HETATM   21  O6  UNL     1      -6.958  -8.224   7.912  1.00  0.00    -0.390 OA
ATOM     22  H6  UNL     1      -7.488  -7.436   7.870  1.00  0.00     0.210 HD
ENDBRANCH  11  21
BRANCH  12  23
HETATM   23  O7  UNL     1      -9.178 -11.013   8.342  1.00  0.00    -0.384 OA
ATOM     24  H7  UNL     1      -8.489 -11.637   8.543  1.00  0.00     0.210 HD
ENDBRANCH  12  23
BRANCH  14  25
HETATM   25  O8  UNL     1     -10.954  -9.405   9.096  1.00  0.00    -0.382 OA
ATOM     26  H8  UNL     1     -11.330  -8.913   9.817  1.00  0.00     0.210 HD
ENDBRANCH  14  25
ENDBRANCH   7   8
ENDBRANCH   3   7
BRANCH   4  27
HETATM   27  N4  UNL     1     -14.102  -7.512   7.517  1.00  0.00    -0.070 N 
ATOM     28  H43 UNL     1     -13.795  -8.234   8.168  1.00  0.00     0.274 HD
ATOM     29  H42 UNL     1     -13.681  -6.695   7.959  1.00  0.00     0.274 HD
ATOM     30  H41 UNL     1     -15.119  -7.437   7.517  1.00  0.00     0.274 HD
ENDBRANCH   4  27
BRANCH   1  31
HETATM   31  O2  UNL     1     -11.726  -4.182   6.308  1.00  0.00    -0.352 OA
BRANCH  31  32
HETATM   32  C10 UNL     1     -12.360  -3.010   6.667  1.00  0.00     0.149 C 
HETATM   33  C5  UNL     1     -11.588  -1.764   6.359  1.00  0.00     0.108 C 
HETATM   34  C6  UNL     1     -10.231  -1.937   7.033  1.00  0.00     0.061 C 
HETATM   35  C7  UNL     1     -10.510  -1.736   8.522  1.00  0.00     0.150 C 
HETATM   36  C8  UNL     1     -11.501  -2.744   9.032  1.00  0.00     0.214 C 
HETATM   37  C9  UNL     1     -12.686  -2.972   8.166  1.00  0.00     0.069 C 
BRANCH  33  38
HETATM   38  N1  UNL     1     -11.363  -1.494   4.987  1.00  0.00    -0.414 N 
ATOM     39  H1  UNL     1     -10.454  -1.173   4.652  1.00  0.00     0.153 HD
BRANCH  38  40
HETATM   40  C4  UNL     1     -12.454  -1.686   4.096  1.00  0.00     0.114 C 
BRANCH  40  41
HETATM   41  C3  UNL     1     -12.039  -1.812   2.638  1.00  0.00     0.019 C 
BRANCH  41  42
HETATM   42  C2  UNL     1     -10.711  -2.553   2.569  1.00  0.00    -0.003 C 
HETATM   43  C1  UNL     1     -10.117  -2.476   1.202  1.00  0.00     0.005 C 
ENDBRANCH  41  42
ENDBRANCH  40  41
ENDBRANCH  38  40
ENDBRANCH  33  38
BRANCH  35  44
HETATM   44  O1  UNL     1      -9.341  -1.858   9.271  1.00  0.00    -0.393 OA
ATOM     45  H1  UNL     1      -9.500  -1.657  10.186  1.00  0.00     0.210 HD
ENDBRANCH  35  44
BRANCH  36  46
HETATM   46  N2  UNL     1     -10.805  -3.972   9.405  1.00  0.00    -0.072 N 
ATOM     47  H23 UNL     1     -10.596  -4.007  10.402  1.00  0.00     0.274 HD
ATOM     48  H22 UNL     1     -11.414  -4.788   9.353  1.00  0.00     0.274 HD
ATOM     49  H21 UNL     1      -9.969  -4.079   8.833  1.00  0.00     0.274 HD
ENDBRANCH  36  46
ENDBRANCH  31  32
ENDBRANCH   1  31
BRANCH   6  50
HETATM   50  N5  UNL     1     -12.447  -5.296   4.067  1.00  0.00    -0.070 N 
ATOM     51  H53 UNL     1     -11.573  -4.834   4.320  1.00  0.00     0.274 HD
ATOM     52  H52 UNL     1     -12.051  -6.170   3.723  1.00  0.00     0.274 HD
ATOM     53  H51 UNL     1     -12.960  -4.790   3.345  1.00  0.00     0.274 HD
ENDBRANCH   6  50
TORSDOF 17
ENDMDL
