MODEL 1
REMARK VINA RESULT: -6.115364523      0.000      0.000
REMARK  16 active torsions:
REMARK  status: ('A' for Active; 'I' for Inactive)
REMARK    1  A    between atoms: C2_2  and  C4_4 
REMARK    2  A    between atoms: C5_6  and  O2_7 
REMARK    3  A    between atoms: O2_7  and  C6_8 
REMARK    4  A    between atoms: C7_9  and  O3_10 
REMARK    5  A    between atoms: C8_12  and  N1_13 
REMARK    6  A    between atoms: C10_18  and  N2_19 
REMARK    7  A    between atoms: C11_23  and  O4_24 
REMARK    8  A    between atoms: O4_24  and  C12_25 
REMARK    9  A    between atoms: C13_26  and  N3_27 
REMARK   10  A    between atoms: C15_32  and  N4_33 
REMARK   11  A    between atoms: C17_38  and  N5_39 
REMARK   12  A    between atoms: C18_43  and  N6_44 
REMARK   13  A    between atoms: C20_50  and  N7_51 
REMARK   14  A    between atoms: N7_51  and  C21_53 
REMARK   15  A    between atoms: C21_53  and  C22_54 
REMARK   16  A    between atoms: C22_54  and  C23_55 
ROOT
HETATM    1  C6  UNL     1     -11.027  -7.748   8.893  1.00  0.00     0.186 C 
HETATM    2  C7  UNL     1     -11.133  -7.518  10.367  1.00  0.00     0.180 C 
HETATM    3  C8  UNL     1     -10.424  -8.501  11.215  1.00  0.00     0.216 C 
HETATM    4  C9  UNL     1     -10.600  -9.893  10.713  1.00  0.00     0.071 C 
HETATM    5  C10 UNL     1     -11.733  -9.971   9.697  1.00  0.00     0.217 C 
HETATM    6  C11 UNL     1     -11.355  -9.191   8.472  1.00  0.00     0.184 C 
ENDROOT
BRANCH   1   7
HETATM    7  O2  UNL     1     -11.844  -6.941   8.156  1.00  0.00    -0.348 OA
BRANCH   7   8
HETATM    8  C5  UNL     1     -11.386  -5.681   7.781  1.00  0.00     0.299 C 
HETATM    9  O1  UNL     1     -11.136  -5.626   6.435  1.00  0.00    -0.347 OA
HETATM   10  C4  UNL     1     -10.707  -4.432   5.921  1.00  0.00     0.182 C 
HETATM   11  C20 UNL     1     -10.846  -3.277   6.896  1.00  0.00     0.186 C 
HETATM   12  C19 UNL     1     -12.264  -3.431   7.406  1.00  0.00     0.187 C 
HETATM   13  C18 UNL     1     -12.494  -4.720   8.125  1.00  0.00     0.309 C 
HETATM   14  O5  UNL     1     -13.116  -2.629   7.260  1.00  0.00    -0.293 OA
BRANCH  10  15
HETATM   15  C2  UNL     1     -11.470  -4.155   4.636  1.00  0.00    -0.062 C 
HETATM   16  C1  UNL     1     -12.562  -4.850   4.357  1.00  0.00     0.016 C 
HETATM   17  C3  UNL     1     -11.041  -3.125   3.659  1.00  0.00     0.045 C 
ENDBRANCH  10  15
BRANCH  11  18
HETATM   18  N7  UNL     1     -10.494  -2.017   6.468  1.00  0.00    -0.388 N 
ATOM     19  H7  UNL     1     -10.969  -1.627   5.655  1.00  0.00     0.159 HD
BRANCH  18  20
HETATM   20  C21 UNL     1      -9.511  -1.251   7.103  1.00  0.00     0.056 C 
BRANCH  20  21
HETATM   21  C22 UNL     1      -8.638  -0.313   6.373  1.00  0.00     0.044 C 
BRANCH  21  22
HETATM   22  C23 UNL     1      -7.581   0.448   7.092  1.00  0.00     0.001 C 
HETATM   23  C24 UNL     1      -7.963   0.419   8.590  1.00  0.00     0.005 C 
ENDBRANCH  21  22
ENDBRANCH  20  21
ENDBRANCH  18  20
ENDBRANCH  11  18
BRANCH  13  24
HETATM   24  N6  UNL     1     -12.429  -4.438   9.558  1.00  0.00    -0.063 N 
ATOM     25  H63 UNL     1     -11.485  -4.212   9.871  1.00  0.00     0.275 HD
ATOM     26  H62 UNL     1     -12.872  -3.552   9.804  1.00  0.00     0.275 HD
ATOM     27  H61 UNL     1     -12.829  -5.230  10.060  1.00  0.00     0.275 HD
ENDBRANCH  13  24
ENDBRANCH   7   8
ENDBRANCH   1   7
BRANCH   2  28
HETATM   28  O3  UNL     1     -12.413  -7.299  10.844  1.00  0.00    -0.391 OA
ATOM     29  H3  UNL     1     -13.034  -8.000  10.684  1.00  0.00     0.210 HD
ENDBRANCH   2  28
BRANCH   6  30
HETATM   30  O4  UNL     1     -10.378  -9.780   7.701  1.00  0.00    -0.372 OA
BRANCH  30  31
HETATM   31  C12 UNL     1      -9.141  -9.159   7.725  1.00  0.00     0.182 C 
HETATM   32  C13 UNL     1      -8.134 -10.206   8.239  1.00  0.00     0.216 C 
HETATM   33  C14 UNL     1      -7.605 -11.065   7.150  1.00  0.00     0.068 C 
HETATM   34  C15 UNL     1      -8.399 -11.200   5.912  1.00  0.00     0.187 C 
HETATM   35  C16 UNL     1      -9.041  -9.908   5.432  1.00  0.00     0.068 C 
HETATM   36  C17 UNL     1      -8.578  -8.823   6.359  1.00  0.00     0.216 C 
BRANCH  32  37
HETATM   37  N3  UNL     1      -7.016  -9.408   8.725  1.00  0.00    -0.072 N 
ATOM     38  H33 UNL     1      -6.182  -9.451   8.138  1.00  0.00     0.274 HD
ATOM     39  H32 UNL     1      -7.153  -8.400   8.645  1.00  0.00     0.274 HD
ATOM     40  H31 UNL     1      -6.875  -9.739   9.679  1.00  0.00     0.274 HD
ENDBRANCH  32  37
BRANCH  34  41
HETATM   41  N4  UNL     1      -7.471 -11.561   4.824  1.00  0.00    -0.075 N 
ATOM     42  H43 UNL     1      -7.524 -10.925   4.029  1.00  0.00     0.274 HD
ATOM     43  H42 UNL     1      -6.494 -11.396   5.064  1.00  0.00     0.274 HD
ATOM     44  H41 UNL     1      -7.659 -12.531   4.569  1.00  0.00     0.274 HD
ENDBRANCH  34  41
BRANCH  36  45
HETATM   45  N5  UNL     1      -8.757  -7.489   5.924  1.00  0.00    -0.072 N 
ATOM     46  H53 UNL     1      -9.750  -7.300   5.789  1.00  0.00     0.274 HD
ATOM     47  H52 UNL     1      -8.549  -6.846   6.687  1.00  0.00     0.274 HD
ATOM     48  H51 UNL     1      -8.236  -7.216   5.090  1.00  0.00     0.274 HD
ENDBRANCH  36  45
ENDBRANCH  30  31
ENDBRANCH   6  30
BRANCH   3  49
HETATM   49  N1  UNL     1      -9.051  -8.149  11.542  1.00  0.00    -0.072 N 
ATOM     50  H13 UNL     1      -8.496  -8.992  11.687  1.00  0.00     0.274 HD
ATOM     51  H12 UNL     1      -8.580  -7.765  10.724  1.00  0.00     0.274 HD
ATOM     52  H11 UNL     1      -8.948  -7.518  12.337  1.00  0.00     0.274 HD
ENDBRANCH   3  49
BRANCH   5  53
HETATM   53  N2  UNL     1     -11.951 -11.366   9.454  1.00  0.00    -0.072 N 
ATOM     54  H23 UNL     1     -11.167 -11.955   9.732  1.00  0.00     0.274 HD
ATOM     55  H22 UNL     1     -12.645 -11.783  10.073  1.00  0.00     0.274 HD
ATOM     56  H21 UNL     1     -12.188 -11.446   8.465  1.00  0.00     0.274 HD
ENDBRANCH   5  53
TORSDOF 16
ENDMDL
MODEL 2
REMARK VINA RESULT: -6.005487221      1.002      1.061
REMARK  16 active torsions:
REMARK  status: ('A' for Active; 'I' for Inactive)
REMARK    1  A    between atoms: C2_2  and  C4_4 
REMARK    2  A    between atoms: C5_6  and  O2_7 
REMARK    3  A    between atoms: O2_7  and  C6_8 
REMARK    4  A    between atoms: C7_9  and  O3_10 
REMARK    5  A    between atoms: C8_12  and  N1_13 
REMARK    6  A    between atoms: C10_18  and  N2_19 
REMARK    7  A    between atoms: C11_23  and  O4_24 
REMARK    8  A    between atoms: O4_24  and  C12_25 
REMARK    9  A    between atoms: C13_26  and  N3_27 
REMARK   10  A    between atoms: C15_32  and  N4_33 
REMARK   11  A    between atoms: C17_38  and  N5_39 
REMARK   12  A    between atoms: C18_43  and  N6_44 
REMARK   13  A    between atoms: C20_50  and  N7_51 
REMARK   14  A    between atoms: N7_51  and  C21_53 
REMARK   15  A    between atoms: C21_53  and  C22_54 
REMARK   16  A    between atoms: C22_54  and  C23_55 
ROOT
HETATM    1  C6  UNL     1     -11.657  -7.100   9.144  1.00  0.00     0.186 C 
HETATM    2  C7  UNL     1     -12.181  -6.770  10.505  1.00  0.00     0.180 C 
HETATM    3  C8  UNL     1     -11.650  -7.601  11.607  1.00  0.00     0.216 C 
HETATM    4  C9  UNL     1     -11.564  -9.039  11.224  1.00  0.00     0.071 C 
HETATM    5  C10 UNL     1     -12.364  -9.319   9.958  1.00  0.00     0.217 C 
HETATM    6  C11 UNL     1     -11.733  -8.598   8.802  1.00  0.00     0.184 C 
ENDROOT
BRANCH   1   7
HETATM    7  O2  UNL     1     -12.307  -6.447   8.137  1.00  0.00    -0.348 OA
BRANCH   7   8
HETATM    8  C5  UNL     1     -11.835  -5.202   7.726  1.00  0.00     0.299 C 
HETATM    9  O1  UNL     1     -11.339  -5.258   6.451  1.00  0.00    -0.347 OA
HETATM   10  C4  UNL     1     -10.867  -4.095   5.906  1.00  0.00     0.182 C 
HETATM   11  C20 UNL     1     -11.231  -2.864   6.716  1.00  0.00     0.186 C 
HETATM   12  C19 UNL     1     -12.712  -3.050   6.971  1.00  0.00     0.187 C 
HETATM   13  C18 UNL     1     -13.024  -4.278   7.763  1.00  0.00     0.309 C 
HETATM   14  O5  UNL     1     -13.552  -2.315   6.590  1.00  0.00    -0.293 OA
BRANCH  10  15
HETATM   15  C2  UNL     1     -11.385  -3.981   4.481  1.00  0.00    -0.062 C 
HETATM   16  C1  UNL     1     -12.358  -4.778   4.070  1.00  0.00     0.016 C 
HETATM   17  C3  UNL     1     -10.840  -3.002   3.509  1.00  0.00     0.045 C 
ENDBRANCH  10  15
BRANCH  11  18
HETATM   18  N7  UNL     1     -10.853  -1.631   6.235  1.00  0.00    -0.388 N 
ATOM     19  H7  UNL     1     -11.566  -1.026   5.829  1.00  0.00     0.159 HD
BRANCH  18  20
HETATM   20  C21 UNL     1      -9.532  -1.176   6.280  1.00  0.00     0.056 C 
BRANCH  20  21
HETATM   21  C22 UNL     1      -8.901  -0.682   7.518  1.00  0.00     0.044 C 
BRANCH  21  22
HETATM   22  C23 UNL     1      -7.851   0.370   7.461  1.00  0.00     0.001 C 
HETATM   23  C24 UNL     1      -7.465   0.683   8.926  1.00  0.00     0.005 C 
ENDBRANCH  21  22
ENDBRANCH  20  21
ENDBRANCH  18  20
ENDBRANCH  11  18
BRANCH  13  24
HETATM   24  N6  UNL     1     -13.240  -3.862   9.147  1.00  0.00    -0.063 N 
ATOM     25  H63 UNL     1     -14.209  -3.978   9.445  1.00  0.00     0.275 HD
ATOM     26  H62 UNL     1     -12.811  -4.497   9.820  1.00  0.00     0.275 HD
ATOM     27  H61 UNL     1     -12.911  -2.902   9.248  1.00  0.00     0.275 HD
ENDBRANCH  13  24
ENDBRANCH   7   8
ENDBRANCH   1   7
BRANCH   2  28
HETATM   28  O3  UNL     1     -13.557  -6.657  10.600  1.00  0.00    -0.391 OA
ATOM     29  H3  UNL     1     -14.041  -7.470  10.509  1.00  0.00     0.210 HD
ENDBRANCH   2  28
BRANCH   6  30
HETATM   30  O4  UNL     1     -10.537  -9.134   8.383  1.00  0.00    -0.372 OA
BRANCH  30  31
HETATM   31  C12 UNL     1      -9.627  -8.231   7.859  1.00  0.00     0.182 C 
HETATM   32  C13 UNL     1      -8.265  -8.558   8.501  1.00  0.00     0.216 C 
HETATM   33  C14 UNL     1      -7.532  -9.619   7.764  1.00  0.00     0.068 C 
HETATM   34  C15 UNL     1      -8.305 -10.546   6.913  1.00  0.00     0.187 C 
HETATM   35  C16 UNL     1      -9.420  -9.889   6.116  1.00  0.00     0.068 C 
HETATM   36  C17 UNL     1      -9.334  -8.416   6.384  1.00  0.00     0.216 C 
BRANCH  32  37
HETATM   37  N3  UNL     1      -7.498  -7.329   8.341  1.00  0.00    -0.072 N 
ATOM     38  H33 UNL     1      -7.922  -6.509   8.775  1.00  0.00     0.274 HD
ATOM     39  H32 UNL     1      -6.632  -7.302   8.880  1.00  0.00     0.274 HD
ATOM     40  H31 UNL     1      -7.369  -7.251   7.333  1.00  0.00     0.274 HD
ENDBRANCH  32  37
BRANCH  34  41
HETATM   41  N4  UNL     1      -7.392 -11.071   5.882  1.00  0.00    -0.075 N 
ATOM     42  H43 UNL     1      -7.411 -10.526   5.020  1.00  0.00     0.274 HD
ATOM     43  H42 UNL     1      -6.409 -10.926   6.111  1.00  0.00     0.274 HD
ATOM     44  H41 UNL     1      -7.625 -12.053   5.734  1.00  0.00     0.274 HD
ENDBRANCH  34  41
BRANCH  36  45
HETATM   45  N5  UNL     1     -10.034  -7.562   5.500  1.00  0.00    -0.072 N 
ATOM     46  H53 UNL     1     -11.023  -7.812   5.488  1.00  0.00     0.274 HD
ATOM     47  H52 UNL     1     -10.087  -6.623   5.895  1.00  0.00     0.274 HD
ATOM     48  H51 UNL     1      -9.678  -7.516   4.545  1.00  0.00     0.274 HD
ENDBRANCH  36  45
ENDBRANCH  30  31
ENDBRANCH   6  30
BRANCH   3  49
HETATM   49  N1  UNL     1     -10.454  -7.076  12.247  1.00  0.00    -0.072 N 
ATOM     50  H13 UNL     1      -9.653  -7.672  12.041  1.00  0.00     0.274 HD
ATOM     51  H12 UNL     1     -10.157  -6.215  11.789  1.00  0.00     0.274 HD
ATOM     52  H11 UNL     1     -10.536  -6.930  13.253  1.00  0.00     0.274 HD
ENDBRANCH   3  49
BRANCH   5  53
HETATM   53  N2  UNL     1     -12.388 -10.744   9.812  1.00  0.00    -0.072 N 
ATOM     54  H23 UNL     1     -11.849 -11.235  10.525  1.00  0.00     0.274 HD
ATOM     55  H22 UNL     1     -13.293 -11.160  10.032  1.00  0.00     0.274 HD
ATOM     56  H21 UNL     1     -12.073 -10.935   8.861  1.00  0.00     0.274 HD
ENDBRANCH   5  53
TORSDOF 16
ENDMDL
MODEL 3
REMARK VINA RESULT: -5.870767572      1.731      2.297
REMARK  16 active torsions:
REMARK  status: ('A' for Active; 'I' for Inactive)
REMARK    1  A    between atoms: C2_2  and  C4_4 
REMARK    2  A    between atoms: C5_6  and  O2_7 
REMARK    3  A    between atoms: O2_7  and  C6_8 
REMARK    4  A    between atoms: C7_9  and  O3_10 
REMARK    5  A    between atoms: C8_12  and  N1_13 
REMARK    6  A    between atoms: C10_18  and  N2_19 
REMARK    7  A    between atoms: C11_23  and  O4_24 
REMARK    8  A    between atoms: O4_24  and  C12_25 
REMARK    9  A    between atoms: C13_26  and  N3_27 
REMARK   10  A    between atoms: C15_32  and  N4_33 
REMARK   11  A    between atoms: C17_38  and  N5_39 
REMARK   12  A    between atoms: C18_43  and  N6_44 
REMARK   13  A    between atoms: C20_50  and  N7_51 
REMARK   14  A    between atoms: N7_51  and  C21_53 
REMARK   15  A    between atoms: C21_53  and  C22_54 
REMARK   16  A    between atoms: C22_54  and  C23_55 
ROOT
HETATM    1  C6  UNL     1     -12.204  -6.150   9.864  1.00  0.00     0.186 C 
HETATM    2  C7  UNL     1     -12.982  -5.920  11.120  1.00  0.00     0.180 C 
HETATM    3  C8  UNL     1     -12.629  -6.800  12.255  1.00  0.00     0.216 C 
HETATM    4  C9  UNL     1     -12.416  -8.209  11.817  1.00  0.00     0.071 C 
HETATM    5  C10 UNL     1     -12.959  -8.434  10.412  1.00  0.00     0.217 C 
HETATM    6  C11 UNL     1     -12.157  -7.626   9.433  1.00  0.00     0.184 C 
ENDROOT
BRANCH   1   7
HETATM    7  O2  UNL     1     -12.686  -5.457   8.791  1.00  0.00    -0.348 OA
BRANCH   7   8
HETATM    8  C5  UNL     1     -11.874  -4.496   8.192  1.00  0.00     0.299 C 
HETATM    9  O1  UNL     1     -11.567  -4.842   6.903  1.00  0.00    -0.347 OA
HETATM   10  C4  UNL     1     -10.798  -3.970   6.181  1.00  0.00     0.182 C 
HETATM   11  C20 UNL     1     -10.642  -2.616   6.850  1.00  0.00     0.186 C 
HETATM   12  C19 UNL     1     -12.063  -2.258   7.228  1.00  0.00     0.187 C 
HETATM   13  C18 UNL     1     -12.677  -3.221   8.192  1.00  0.00     0.309 C 
HETATM   14  O5  UNL     1     -12.646  -1.320   6.816  1.00  0.00    -0.293 OA
BRANCH  10  15
HETATM   15  C2  UNL     1     -11.401  -3.825   4.793  1.00  0.00    -0.062 C 
HETATM   16  C1  UNL     1     -12.515  -4.472   4.490  1.00  0.00     0.016 C 
HETATM   17  C3  UNL     1     -10.788  -2.978   3.741  1.00  0.00     0.045 C 
ENDBRANCH  10  15
BRANCH  11  18
HETATM   18  N7  UNL     1      -9.930  -1.641   6.189  1.00  0.00    -0.388 N 
ATOM     19  H7  UNL     1     -10.023  -1.571   5.176  1.00  0.00     0.159 HD
BRANCH  18  20
HETATM   20  C21 UNL     1      -9.085  -0.743   6.849  1.00  0.00     0.056 C 
BRANCH  20  21
HETATM   21  C22 UNL     1      -8.931  -0.727   8.315  1.00  0.00     0.044 C 
BRANCH  21  22
HETATM   22  C23 UNL     1      -8.121   0.331   8.977  1.00  0.00     0.001 C 
HETATM   23  C24 UNL     1      -6.981   0.688   7.995  1.00  0.00     0.005 C 
ENDBRANCH  21  22
ENDBRANCH  20  21
ENDBRANCH  18  20
ENDBRANCH  11  18
BRANCH  13  24
HETATM   24  N6  UNL     1     -12.590  -2.623   9.523  1.00  0.00    -0.063 N 
ATOM     25  H63 UNL     1     -13.498  -2.324   9.879  1.00  0.00     0.275 HD
ATOM     26  H62 UNL     1     -12.375  -3.308  10.248  1.00  0.00     0.275 HD
ATOM     27  H61 UNL     1     -11.913  -1.861   9.488  1.00  0.00     0.275 HD
ENDBRANCH  13  24
ENDBRANCH   7   8
ENDBRANCH   1   7
BRANCH   2  28
HETATM   28  O3  UNL     1     -14.355  -5.853  10.966  1.00  0.00    -0.391 OA
ATOM     29  H3  UNL     1     -14.685  -5.049  10.580  1.00  0.00     0.210 HD
ENDBRANCH   2  28
BRANCH   6  30
HETATM   30  O4  UNL     1     -10.884  -8.100   9.214  1.00  0.00    -0.372 OA
BRANCH  30  31
HETATM   31  C12 UNL     1     -10.521  -8.251   7.886  1.00  0.00     0.182 C 
HETATM   32  C13 UNL     1      -9.281  -7.365   7.666  1.00  0.00     0.216 C 
HETATM   33  C14 UNL     1      -8.017  -8.061   8.018  1.00  0.00     0.068 C 
HETATM   34  C15 UNL     1      -8.080  -9.201   8.956  1.00  0.00     0.187 C 
HETATM   35  C16 UNL     1      -9.265 -10.129   8.741  1.00  0.00     0.068 C 
HETATM   36  C17 UNL     1      -9.994  -9.627   7.529  1.00  0.00     0.216 C 
BRANCH  32  37
HETATM   37  N3  UNL     1      -9.254  -7.151   6.224  1.00  0.00    -0.072 N 
ATOM     38  H33 UNL     1      -8.442  -7.554   5.755  1.00  0.00     0.274 HD
ATOM     39  H32 UNL     1      -9.955  -7.683   5.708  1.00  0.00     0.274 HD
ATOM     40  H31 UNL     1      -9.336  -6.140   6.125  1.00  0.00     0.274 HD
ENDBRANCH  32  37
BRANCH  34  41
HETATM   41  N4  UNL     1      -6.908 -10.056   8.697  1.00  0.00    -0.075 N 
ATOM     42  H43 UNL     1      -6.262  -9.651   8.020  1.00  0.00     0.274 HD
ATOM     43  H42 UNL     1      -6.264 -10.097   9.487  1.00  0.00     0.274 HD
ATOM     44  H41 UNL     1      -7.251 -10.975   8.418  1.00  0.00     0.274 HD
ENDBRANCH  34  41
BRANCH  36  45
HETATM   45  N5  UNL     1     -10.921 -10.511   6.928  1.00  0.00    -0.072 N 
ATOM     46  H53 UNL     1     -11.652  -9.977   6.458  1.00  0.00     0.274 HD
ATOM     47  H52 UNL     1     -10.488 -10.973   6.129  1.00  0.00     0.274 HD
ATOM     48  H51 UNL     1     -11.342 -11.206   7.544  1.00  0.00     0.274 HD
ENDBRANCH  36  45
ENDBRANCH  30  31
ENDBRANCH   6  30
BRANCH   3  49
HETATM   49  N1  UNL     1     -11.592  -6.280  13.133  1.00  0.00    -0.072 N 
ATOM     50  H13 UNL     1     -10.704  -6.222  12.635  1.00  0.00     0.274 HD
ATOM     51  H12 UNL     1     -11.754  -5.291  13.323  1.00  0.00     0.274 HD
ATOM     52  H11 UNL     1     -11.474  -6.793  14.007  1.00  0.00     0.274 HD
ENDBRANCH   3  49
BRANCH   5  53
HETATM   53  N2  UNL     1     -12.899  -9.848  10.186  1.00  0.00    -0.072 N 
ATOM     54  H23 UNL     1     -11.984 -10.253  10.387  1.00  0.00     0.274 HD
ATOM     55  H22 UNL     1     -13.427 -10.391  10.868  1.00  0.00     0.274 HD
ATOM     56  H21 UNL     1     -13.205  -9.993   9.224  1.00  0.00     0.274 HD
ENDBRANCH   5  53
TORSDOF 16
ENDMDL
MODEL 4
REMARK VINA RESULT: -5.781705346      1.445      1.830
REMARK  16 active torsions:
REMARK  status: ('A' for Active; 'I' for Inactive)
REMARK    1  A    between atoms: C2_2  and  C4_4 
REMARK    2  A    between atoms: C5_6  and  O2_7 
REMARK    3  A    between atoms: O2_7  and  C6_8 
REMARK    4  A    between atoms: C7_9  and  O3_10 
REMARK    5  A    between atoms: C8_12  and  N1_13 
REMARK    6  A    between atoms: C10_18  and  N2_19 
REMARK    7  A    between atoms: C11_23  and  O4_24 
REMARK    8  A    between atoms: O4_24  and  C12_25 
REMARK    9  A    between atoms: C13_26  and  N3_27 
REMARK   10  A    between atoms: C15_32  and  N4_33 
REMARK   11  A    between atoms: C17_38  and  N5_39 
REMARK   12  A    between atoms: C18_43  and  N6_44 
REMARK   13  A    between atoms: C20_50  and  N7_51 
REMARK   14  A    between atoms: N7_51  and  C21_53 
REMARK   15  A    between atoms: C21_53  and  C22_54 
REMARK   16  A    between atoms: C22_54  and  C23_55 
ROOT
HETATM    1  C6  UNL     1     -11.689  -7.604   9.406  1.00  0.00     0.186 C 
HETATM    2  C7  UNL     1     -12.257  -7.863  10.765  1.00  0.00     0.180 C 
HETATM    3  C8  UNL     1     -11.711  -9.046  11.465  1.00  0.00     0.216 C 
HETATM    4  C9  UNL     1     -11.549 -10.207  10.546  1.00  0.00     0.071 C 
HETATM    5  C10 UNL     1     -12.309  -9.987   9.244  1.00  0.00     0.217 C 
HETATM    6  C11 UNL     1     -11.688  -8.843   8.494  1.00  0.00     0.184 C 
ENDROOT
BRANCH   1   7
HETATM    7  O2  UNL     1     -12.349  -6.627   8.718  1.00  0.00    -0.348 OA
BRANCH   7   8
HETATM    8  C5  UNL     1     -11.984  -5.298   8.921  1.00  0.00     0.299 C 
HETATM    9  O1  UNL     1     -11.217  -4.832   7.886  1.00  0.00    -0.347 OA
HETATM   10  C4  UNL     1     -10.811  -3.526   7.939  1.00  0.00     0.182 C 
HETATM   11  C20 UNL     1     -11.521  -2.723   9.015  1.00  0.00     0.186 C 
HETATM   12  C19 UNL     1     -12.978  -3.069   8.793  1.00  0.00     0.187 C 
HETATM   13  C18 UNL     1     -13.274  -4.522   8.979  1.00  0.00     0.309 C 
HETATM   14  O5  UNL     1     -13.811  -2.287   8.500  1.00  0.00    -0.293 OA
BRANCH  10  15
HETATM   15  C2  UNL     1     -11.015  -2.898   6.570  1.00  0.00    -0.062 C 
HETATM   16  C1  UNL     1     -10.276  -1.863   6.205  1.00  0.00     0.016 C 
HETATM   17  C3  UNL     1     -12.025  -3.398   5.605  1.00  0.00     0.045 C 
ENDBRANCH  10  15
BRANCH  11  18
HETATM   18  N7  UNL     1     -11.229  -1.383   9.126  1.00  0.00    -0.388 N 
ATOM     19  H7  UNL     1     -11.784  -0.716   8.589  1.00  0.00     0.159 HD
BRANCH  18  20
HETATM   20  C21 UNL     1     -10.205  -0.897   9.945  1.00  0.00     0.056 C 
BRANCH  20  21
HETATM   21  C22 UNL     1      -8.792  -0.871   9.522  1.00  0.00     0.044 C 
BRANCH  21  22
HETATM   22  C23 UNL     1      -8.109   0.423   9.257  1.00  0.00     0.001 C 
HETATM   23  C24 UNL     1      -7.762   0.434   7.750  1.00  0.00     0.005 C 
ENDBRANCH  21  22
ENDBRANCH  20  21
ENDBRANCH  18  20
ENDBRANCH  11  18
BRANCH  13  24
HETATM   24  N6  UNL     1     -13.847  -4.682  10.314  1.00  0.00    -0.063 N 
ATOM     25  H63 UNL     1     -13.541  -3.958  10.963  1.00  0.00     0.275 HD
ATOM     26  H62 UNL     1     -14.847  -4.477  10.339  1.00  0.00     0.275 HD
ATOM     27  H61 UNL     1     -13.631  -5.623  10.645  1.00  0.00     0.275 HD
ENDBRANCH  13  24
ENDBRANCH   7   8
ENDBRANCH   1   7
BRANCH   2  28
HETATM   28  O3  UNL     1     -13.639  -7.846  10.845  1.00  0.00    -0.391 OA
ATOM     29  H3  UNL     1     -13.995  -7.648  11.704  1.00  0.00     0.210 HD
ENDBRANCH   2  28
BRANCH   6  30
HETATM   30  O4  UNL     1     -10.459  -9.126   7.943  1.00  0.00    -0.372 OA
BRANCH  30  31
HETATM   31  C12 UNL     1      -9.605  -8.045   7.797  1.00  0.00     0.182 C 
HETATM   32  C13 UNL     1      -8.226  -8.503   8.308  1.00  0.00     0.216 C 
HETATM   33  C14 UNL     1      -7.430  -9.185   7.256  1.00  0.00     0.068 C 
HETATM   34  C15 UNL     1      -8.146  -9.788   6.113  1.00  0.00     0.187 C 
HETATM   35  C16 UNL     1      -9.299  -8.953   5.580  1.00  0.00     0.068 C 
HETATM   36  C17 UNL     1      -9.303  -7.671   6.360  1.00  0.00     0.216 C 
BRANCH  32  37
HETATM   37  N3  UNL     1      -7.535  -7.257   8.615  1.00  0.00    -0.072 N 
ATOM     38  H33 UNL     1      -6.539  -7.264   8.396  1.00  0.00     0.274 HD
ATOM     39  H32 UNL     1      -7.776  -6.480   7.999  1.00  0.00     0.274 HD
ATOM     40  H31 UNL     1      -7.747  -7.095   9.599  1.00  0.00     0.274 HD
ENDBRANCH  32  37
BRANCH  34  41
HETATM   41  N4  UNL     1      -7.203  -9.855   4.982  1.00  0.00    -0.075 N 
ATOM     42  H43 UNL     1      -7.577 -10.367   4.183  1.00  0.00     0.274 HD
ATOM     43  H42 UNL     1      -7.075  -8.956   4.517  1.00  0.00     0.274 HD
ATOM     44  H41 UNL     1      -6.330 -10.249   5.331  1.00  0.00     0.274 HD
ENDBRANCH  34  41
BRANCH  36  45
HETATM   45  N5  UNL     1     -10.054  -6.598   5.825  1.00  0.00    -0.072 N 
ATOM     46  H53 UNL     1      -9.638  -5.710   6.108  1.00  0.00     0.274 HD
ATOM     47  H52 UNL     1      -9.918  -6.551   4.816  1.00  0.00     0.274 HD
ATOM     48  H51 UNL     1     -11.051  -6.598   6.041  1.00  0.00     0.274 HD
ENDBRANCH  36  45
ENDBRANCH  30  31
ENDBRANCH   6  30
BRANCH   3  49
HETATM   49  N1  UNL     1     -10.555  -8.778  12.307  1.00  0.00    -0.072 N 
ATOM     50  H13 UNL     1     -10.247  -7.814  12.187  1.00  0.00     0.274 HD
ATOM     51  H12 UNL     1     -10.831  -8.755  13.288  1.00  0.00     0.274 HD
ATOM     52  H11 UNL     1      -9.772  -9.418  12.175  1.00  0.00     0.274 HD
ENDBRANCH   3  49
BRANCH   5  53
HETATM   53  N2  UNL     1     -12.262 -11.235   8.542  1.00  0.00    -0.072 N 
ATOM     54  H23 UNL     1     -12.924 -11.926   8.896  1.00  0.00     0.274 HD
ATOM     55  H22 UNL     1     -12.633 -11.182   7.594  1.00  0.00     0.274 HD
ATOM     56  H21 UNL     1     -11.291 -11.545   8.582  1.00  0.00     0.274 HD
ENDBRANCH   5  53
TORSDOF 16
ENDMDL
MODEL 5
REMARK VINA RESULT: -5.759862018      2.044      2.539
REMARK  16 active torsions:
REMARK  status: ('A' for Active; 'I' for Inactive)
REMARK    1  A    between atoms: C2_2  and  C4_4 
REMARK    2  A    between atoms: C5_6  and  O2_7 
REMARK    3  A    between atoms: O2_7  and  C6_8 
REMARK    4  A    between atoms: C7_9  and  O3_10 
REMARK    5  A    between atoms: C8_12  and  N1_13 
REMARK    6  A    between atoms: C10_18  and  N2_19 
REMARK    7  A    between atoms: C11_23  and  O4_24 
REMARK    8  A    between atoms: O4_24  and  C12_25 
REMARK    9  A    between atoms: C13_26  and  N3_27 
REMARK   10  A    between atoms: C15_32  and  N4_33 
REMARK   11  A    between atoms: C17_38  and  N5_39 
REMARK   12  A    between atoms: C18_43  and  N6_44 
REMARK   13  A    between atoms: C20_50  and  N7_51 
REMARK   14  A    between atoms: N7_51  and  C21_53 
REMARK   15  A    between atoms: C21_53  and  C22_54 
REMARK   16  A    between atoms: C22_54  and  C23_55 
ROOT
HETATM    1  C6  UNL     1     -11.570  -6.528   9.995  1.00  0.00     0.186 C 
HETATM    2  C7  UNL     1     -11.486  -6.887  11.444  1.00  0.00     0.180 C 
HETATM    3  C8  UNL     1     -10.984  -8.248  11.732  1.00  0.00     0.216 C 
HETATM    4  C9  UNL     1     -11.556  -9.258  10.797  1.00  0.00     0.071 C 
HETATM    5  C10 UNL     1     -12.753  -8.692  10.044  1.00  0.00     0.217 C 
HETATM    6  C11 UNL     1     -12.294  -7.583   9.142  1.00  0.00     0.184 C 
ENDROOT
BRANCH   1   7
HETATM    7  O2  UNL     1     -12.212  -5.346   9.764  1.00  0.00    -0.348 OA
BRANCH   7   8
HETATM    8  C5  UNL     1     -11.461  -4.176   9.679  1.00  0.00     0.299 C 
HETATM    9  O1  UNL     1     -11.307  -3.781   8.377  1.00  0.00    -0.347 OA
HETATM   10  C4  UNL     1     -10.612  -2.625   8.146  1.00  0.00     0.182 C 
HETATM   11  C20 UNL     1     -10.361  -1.817   9.407  1.00  0.00     0.186 C 
HETATM   12  C19 UNL     1     -11.725  -1.777  10.063  1.00  0.00     0.187 C 
HETATM   13  C18 UNL     1     -12.240  -3.131  10.433  1.00  0.00     0.309 C 
HETATM   14  O5  UNL     1     -12.338  -0.791  10.269  1.00  0.00    -0.293 OA
BRANCH  10  15
HETATM   15  C2  UNL     1     -11.367  -1.802   7.114  1.00  0.00    -0.062 C 
HETATM   16  C1  UNL     1     -10.696  -1.126   6.195  1.00  0.00     0.016 C 
HETATM   17  C3  UNL     1     -12.847  -1.716   7.090  1.00  0.00     0.045 C 
ENDBRANCH  10  15
BRANCH  11  18
HETATM   18  N7  UNL     1      -9.715  -0.607   9.287  1.00  0.00    -0.388 N 
ATOM     19  H7  UNL     1     -10.270   0.226   9.097  1.00  0.00     0.159 HD
BRANCH  18  20
HETATM   20  C21 UNL     1      -8.329  -0.475   9.417  1.00  0.00     0.056 C 
BRANCH  20  21
HETATM   21  C22 UNL     1      -7.546   0.500   8.635  1.00  0.00     0.044 C 
BRANCH  21  22
HETATM   22  C23 UNL     1      -7.652   0.535   7.152  1.00  0.00     0.001 C 
HETATM   23  C24 UNL     1      -6.209   0.423   6.607  1.00  0.00     0.005 C 
ENDBRANCH  21  22
ENDBRANCH  20  21
ENDBRANCH  18  20
ENDBRANCH  11  18
BRANCH  13  24
HETATM   24  N6  UNL     1     -11.993  -3.315  11.862  1.00  0.00    -0.063 N 
ATOM     25  H63 UNL     1     -11.184  -2.790  12.192  1.00  0.00     0.275 HD
ATOM     26  H62 UNL     1     -12.699  -2.863  12.444  1.00  0.00     0.275 HD
ATOM     27  H61 UNL     1     -11.914  -4.315  12.047  1.00  0.00     0.275 HD
ENDBRANCH  13  24
ENDBRANCH   7   8
ENDBRANCH   1   7
BRANCH   2  28
HETATM   28  O3  UNL     1     -12.620  -6.620  12.190  1.00  0.00    -0.391 OA
ATOM     29  H3  UNL     1     -12.689  -5.733  12.526  1.00  0.00     0.210 HD
ENDBRANCH   2  28
BRANCH   6  30
HETATM   30  O4  UNL     1     -11.573  -8.003   8.047  1.00  0.00    -0.372 OA
BRANCH  30  31
HETATM   31  C12 UNL     1     -10.402  -7.306   7.799  1.00  0.00     0.182 C 
HETATM   32  C13 UNL     1      -9.243  -8.280   8.083  1.00  0.00     0.216 C 
HETATM   33  C14 UNL     1      -8.909  -9.123   6.907  1.00  0.00     0.068 C 
HETATM   34  C15 UNL     1      -9.944  -9.327   5.872  1.00  0.00     0.187 C 
HETATM   35  C16 UNL     1     -10.757  -8.085   5.541  1.00  0.00     0.068 C 
HETATM   36  C17 UNL     1     -10.173  -6.959   6.342  1.00  0.00     0.216 C 
BRANCH  32  37
HETATM   37  N3  UNL     1      -8.099  -7.407   8.311  1.00  0.00    -0.072 N 
ATOM     38  H33 UNL     1      -7.319  -7.853   8.795  1.00  0.00     0.274 HD
ATOM     39  H32 UNL     1      -7.579  -7.166   7.466  1.00  0.00     0.274 HD
ATOM     40  H31 UNL     1      -8.495  -6.606   8.803  1.00  0.00     0.274 HD
ENDBRANCH  32  37
BRANCH  34  41
HETATM   41  N4  UNL     1      -9.254  -9.648   4.609  1.00  0.00    -0.075 N 
ATOM     42  H43 UNL     1      -8.688  -8.876   4.259  1.00  0.00     0.274 HD
ATOM     43  H42 UNL     1      -8.500 -10.324   4.730  1.00  0.00     0.274 HD
ATOM     44  H41 UNL     1      -9.961  -9.956   3.942  1.00  0.00     0.274 HD
ENDBRANCH  34  41
BRANCH  36  45
HETATM   45  N5  UNL     1     -10.527  -5.646   5.953  1.00  0.00    -0.072 N 
ATOM     46  H53 UNL     1     -11.399  -5.374   6.407  1.00  0.00     0.274 HD
ATOM     47  H52 UNL     1      -9.884  -4.976   6.373  1.00  0.00     0.274 HD
ATOM     48  H51 UNL     1     -10.595  -5.478   4.949  1.00  0.00     0.274 HD
ENDBRANCH  36  45
ENDBRANCH  30  31
ENDBRANCH   6  30
BRANCH   3  49
HETATM   49  N1  UNL     1      -9.544  -8.344  11.913  1.00  0.00    -0.072 N 
ATOM     50  H13 UNL     1      -9.073  -7.608  11.387  1.00  0.00     0.274 HD
ATOM     51  H12 UNL     1      -9.289  -8.073  12.863  1.00  0.00     0.274 HD
ATOM     52  H11 UNL     1      -9.143  -9.253  11.686  1.00  0.00     0.274 HD
ENDBRANCH   3  49
BRANCH   5  53
HETATM   53  N2  UNL     1     -13.344  -9.799   9.351  1.00  0.00    -0.072 N 
ATOM     54  H23 UNL     1     -12.660 -10.423   8.924  1.00  0.00     0.274 HD
ATOM     55  H22 UNL     1     -13.769 -10.487   9.971  1.00  0.00     0.274 HD
ATOM     56  H21 UNL     1     -13.999  -9.395   8.681  1.00  0.00     0.274 HD
ENDBRANCH   5  53
TORSDOF 16
ENDMDL
