MODEL 1
REMARK VINA RESULT: -8.906593688      0.000      0.000
REMARK  11 active torsions:
REMARK  status: ('A' for Active; 'I' for Inactive)
REMARK    1  A    between atoms: N1_3  and  C3_5 
REMARK    2  A    between atoms: C4_6  and  C5_7 
REMARK    3  A    between atoms: N2_8  and  N3_10 
REMARK       I    between atoms: N3_10  and  C6_12 
REMARK       I    between atoms: C6_12  and  N5_16 
REMARK    4  A    between atoms: N5_16  and  N6_18 
REMARK       I    between atoms: N6_18  and  C7_19 
REMARK    5  A    between atoms: C7_19  and  C8_21 
REMARK    6  A    between atoms: C9_24  and  O2_25 
REMARK    7  A    between atoms: C16_37  and  S1_38 
REMARK    8  A    between atoms: S1_38  and  C17_39 
REMARK    9  A    between atoms: C17_39  and  C18_40 
REMARK   10  A    between atoms: C18_40  and  C19_42 
REMARK   11  A    between atoms: N12_47  and  N13_48 
ROOT
HETATM    1  C1  UNL     1     -13.271  -0.691   6.511  1.00  0.00     0.123 C 
HETATM    2  C2  UNL     1     -13.325  -1.129   5.367  1.00  0.00    -0.074 C 
HETATM    3  N1  UNL     1     -13.392  -1.538   4.110  1.00  0.00    -0.309 N 
ATOM      4  H1  UNL     1     -14.268  -1.381   3.612  1.00  0.00     0.177 HD
ENDROOT
BRANCH   3   5
HETATM    5  C3  UNL     1     -12.357  -2.170   3.407  1.00  0.00     0.164 A 
HETATM    6  C4  UNL     1     -11.543  -3.210   3.694  1.00  0.00     0.098 A 
HETATM    7  N9  UNL     1     -10.541  -3.232   2.786  1.00  0.00    -0.331 N 
HETATM    8  C16 UNL     1     -10.701  -2.258   1.926  1.00  0.00     0.168 A 
ATOM      9  H9  UNL     1      -9.776  -3.906   2.773  1.00  0.00     0.168 HD
HETATM   10  N12 UNL     1     -11.805  -1.598   2.281  1.00  0.00    -0.221 N 
BRANCH   6  11
HETATM   11  C5  UNL     1     -11.760  -4.330   4.649  1.00  0.00     0.140 C 
HETATM   12  N2  UNL     1     -10.846  -4.963   5.201  1.00  0.00    -0.307 N 
ATOM     13  H2  UNL     1      -9.870  -4.731   5.014  1.00  0.00     0.186 HD
BRANCH  12  14
HETATM   14  N3  UNL     1     -11.173  -5.997   6.081  1.00  0.00    -0.270 N 
HETATM   15  C6  UNL     1     -10.076  -6.671   6.614  1.00  0.00     0.217 C 
HETATM   16  N4  UNL     1      -9.370  -6.590   7.626  1.00  0.00    -0.368 N 
HETATM   17  N5  UNL     1      -9.581  -7.704   5.641  1.00  0.00    -0.199 N 
ATOM     18  H42 UNL     1      -9.706  -5.889   8.286  1.00  0.00     0.159 HD
ATOM     19  H41 UNL     1      -8.567  -7.085   8.016  1.00  0.00     0.159 HD
ATOM     20  H5  UNL     1      -9.729  -7.636   4.634  1.00  0.00     0.205 HD
ATOM     21  H3  UNL     1     -12.136  -6.238   6.315  1.00  0.00     0.190 HD
BRANCH  17  22
HETATM   22  N6  UNL     1      -8.917  -8.739   6.225  1.00  0.00    -0.277 NA
HETATM   23  C7  UNL     1      -8.265  -9.750   6.783  1.00  0.00     0.367 C 
HETATM   24  O1  UNL     1      -7.458 -10.557   6.300  1.00  0.00    -0.247 OA
BRANCH  23  25
HETATM   25  C8  UNL     1      -8.512 -10.054   8.224  1.00  0.00     0.188 A 
HETATM   26  N7  UNL     1      -7.562 -10.370   9.122  1.00  0.00    -0.325 N 
HETATM   27  C9  UNL     1      -7.910 -10.565  10.428  1.00  0.00     0.168 A 
ATOM     28  H7  UNL     1      -6.589 -10.463   8.830  1.00  0.00     0.168 HD
HETATM   29  C10 UNL     1      -9.234 -10.444  10.822  1.00  0.00     0.092 A 
HETATM   30  C11 UNL     1      -9.595 -10.694  12.146  1.00  0.00     0.034 A 
HETATM   31  N8  UNL     1     -10.201 -10.125   9.961  1.00  0.00    -0.283 N 
HETATM   32  C12 UNL     1     -10.894 -10.602  12.535  1.00  0.00     0.004 A 
HETATM   33  C13 UNL     1     -11.894 -10.259  11.629  1.00  0.00     0.018 A 
HETATM   34  C14 UNL     1     -11.496 -10.037  10.358  1.00  0.00     0.101 A 
HETATM   35  C15 UNL     1      -9.833  -9.931   8.684  1.00  0.00     0.286 A 
HETATM   36  O3  UNL     1     -10.733  -9.638   7.875  1.00  0.00    -0.265 OA
BRANCH  27  37
HETATM   37  O2  UNL     1      -7.005 -10.880  11.417  1.00  0.00    -0.344 OA
ATOM     38  H2  UNL     1      -6.347 -11.561  11.329  1.00  0.00     0.219 HD
ENDBRANCH  27  37
ENDBRANCH  23  25
ENDBRANCH  17  22
ENDBRANCH  12  14
ENDBRANCH   6  11
BRANCH   8  39
HETATM   39  S1  UNL     1      -9.657  -1.772   0.515  1.00  0.00    -0.084 SA
BRANCH  39  40
HETATM   40  C17 UNL     1     -10.315  -2.650  -0.933  1.00  0.00     0.169 C 
BRANCH  40  41
HETATM   41  C18 UNL     1      -9.169  -3.558  -1.406  1.00  0.00     0.199 C 
HETATM   42  O4  UNL     1      -8.186  -3.700  -0.694  1.00  0.00    -0.289 OA
BRANCH  41  43
HETATM   43  C19 UNL     1      -9.320  -4.234  -2.688  1.00  0.00     0.157 C 
HETATM   44  N10 UNL     1     -10.054  -5.267  -2.831  1.00  0.00    -0.385 N 
ATOM     45 2H10 UNL     1     -10.600  -5.678  -2.073  1.00  0.00     0.157 HD
ATOM     46 1H10 UNL     1     -10.160  -5.740  -3.729  1.00  0.00     0.157 HD
HETATM   47  N11 UNL     1      -8.555  -3.657  -3.751  1.00  0.00    -0.079 NA
ENDBRANCH  41  43
ENDBRANCH  40  41
ENDBRANCH  39  40
ENDBRANCH   8  39
BRANCH  10  48
HETATM   48  N13 UNL     1     -12.369  -0.476   1.664  1.00  0.00    -0.335 N 
ATOM     49 2H13 UNL     1     -11.900   0.387   1.388  1.00  0.00     0.177 HD
ATOM     50 1H13 UNL     1     -13.362  -0.423   1.438  1.00  0.00     0.177 HD
ENDBRANCH  10  48
ENDBRANCH   3   5
TORSDOF 11
ENDMDL
MODEL 2
REMARK VINA RESULT: -8.768235842      5.956      7.514
REMARK  11 active torsions:
REMARK  status: ('A' for Active; 'I' for Inactive)
REMARK    1  A    between atoms: N1_3  and  C3_5 
REMARK    2  A    between atoms: C4_6  and  C5_7 
REMARK    3  A    between atoms: N2_8  and  N3_10 
REMARK       I    between atoms: N3_10  and  C6_12 
REMARK       I    between atoms: C6_12  and  N5_16 
REMARK    4  A    between atoms: N5_16  and  N6_18 
REMARK       I    between atoms: N6_18  and  C7_19 
REMARK    5  A    between atoms: C7_19  and  C8_21 
REMARK    6  A    between atoms: C9_24  and  O2_25 
REMARK    7  A    between atoms: C16_37  and  S1_38 
REMARK    8  A    between atoms: S1_38  and  C17_39 
REMARK    9  A    between atoms: C17_39  and  C18_40 
REMARK   10  A    between atoms: C18_40  and  C19_42 
REMARK   11  A    between atoms: N12_47  and  N13_48 
ROOT
HETATM    1  C1  UNL     1     -13.845  -0.517   4.031  1.00  0.00     0.123 C 
HETATM    2  C2  UNL     1     -14.076   0.191   3.057  1.00  0.00    -0.074 C 
HETATM    3  N1  UNL     1     -14.283   1.002   2.031  1.00  0.00    -0.309 N 
ATOM      4  H1  UNL     1     -14.717   1.904   2.228  1.00  0.00     0.177 HD
ENDROOT
BRANCH   3   5
HETATM    5  C3  UNL     1     -13.956   0.722   0.698  1.00  0.00     0.164 A 
HETATM    6  C4  UNL     1     -12.933   0.059   0.116  1.00  0.00     0.098 A 
HETATM    7  N9  UNL     1     -12.952   0.321  -1.211  1.00  0.00    -0.331 N 
HETATM    8  C16 UNL     1     -13.959   1.110  -1.491  1.00  0.00     0.168 A 
ATOM      9  H9  UNL     1     -12.284  -0.041  -1.891  1.00  0.00     0.168 HD
HETATM   10  N12 UNL     1     -14.590   1.365  -0.343  1.00  0.00    -0.221 N 
BRANCH   6  11
HETATM   11  C5  UNL     1     -12.050  -0.991   0.693  1.00  0.00     0.140 C 
HETATM   12  N2  UNL     1     -10.935  -0.769   1.190  1.00  0.00    -0.307 N 
ATOM     13  H2  UNL     1     -10.563   0.181   1.223  1.00  0.00     0.186 HD
BRANCH  12  14
HETATM   14  N3  UNL     1     -10.196  -1.838   1.702  1.00  0.00    -0.270 N 
HETATM   15  C6  UNL     1     -10.762  -2.450   2.819  1.00  0.00     0.217 C 
HETATM   16  N4  UNL     1     -11.517  -3.404   3.041  1.00  0.00    -0.368 N 
HETATM   17  N5  UNL     1     -10.430  -1.670   4.060  1.00  0.00    -0.199 N 
ATOM     18  H42 UNL     1     -11.743  -3.933   2.198  1.00  0.00     0.159 HD
ATOM     19  H41 UNL     1     -11.931  -3.852   3.859  1.00  0.00     0.159 HD
ATOM     20  H5  UNL     1     -10.211  -0.675   4.050  1.00  0.00     0.205 HD
ATOM     21  H3  UNL     1      -9.315  -2.145   1.292  1.00  0.00     0.190 HD
BRANCH  17  22
HETATM   22  N6  UNL     1     -10.446  -2.415   5.200  1.00  0.00    -0.277 NA
HETATM   23  C7  UNL     1     -10.460  -3.151   6.303  1.00  0.00     0.367 C 
HETATM   24  O1  UNL     1     -10.284  -4.367   6.466  1.00  0.00    -0.247 OA
BRANCH  23  25
HETATM   25  C8  UNL     1     -10.763  -2.486   7.605  1.00  0.00     0.188 A 
HETATM   26  N7  UNL     1      -9.858  -2.202   8.558  1.00  0.00    -0.325 N 
HETATM   27  C9  UNL     1     -10.251  -1.532   9.681  1.00  0.00     0.168 A 
ATOM     28  H7  UNL     1      -8.885  -2.485   8.443  1.00  0.00     0.168 HD
HETATM   29  C10 UNL     1     -11.576  -1.153   9.838  1.00  0.00     0.092 A 
HETATM   30  C11 UNL     1     -11.986  -0.514  11.008  1.00  0.00     0.034 A 
HETATM   31  N8  UNL     1     -12.499  -1.410   8.911  1.00  0.00    -0.283 N 
HETATM   32  C12 UNL     1     -13.287  -0.161  11.181  1.00  0.00     0.004 A 
HETATM   33  C13 UNL     1     -14.241  -0.427  10.202  1.00  0.00     0.018 A 
HETATM   34  C14 UNL     1     -13.797  -1.056   9.093  1.00  0.00     0.101 A 
HETATM   35  C15 UNL     1     -12.086  -2.064   7.812  1.00  0.00     0.286 A 
HETATM   36  O3  UNL     1     -12.946  -2.312   6.946  1.00  0.00    -0.265 OA
BRANCH  27  37
HETATM   37  O2  UNL     1      -9.393  -1.190  10.702  1.00  0.00    -0.344 OA
ATOM     38  H2  UNL     1      -9.431  -1.574  11.571  1.00  0.00     0.219 HD
ENDBRANCH  27  37
ENDBRANCH  23  25
ENDBRANCH  17  22
ENDBRANCH  12  14
ENDBRANCH   6  11
BRANCH   8  39
HETATM   39  S1  UNL     1     -14.465   1.823  -3.089  1.00  0.00    -0.084 SA
BRANCH  39  40
HETATM   40  C17 UNL     1     -13.143   1.424  -4.269  1.00  0.00     0.169 C 
BRANCH  40  41
HETATM   41  C18 UNL     1     -12.724   2.774  -4.872  1.00  0.00     0.199 C 
HETATM   42  O4  UNL     1     -11.564   3.143  -4.766  1.00  0.00    -0.289 OA
BRANCH  41  43
HETATM   43  C19 UNL     1     -13.739   3.551  -5.571  1.00  0.00     0.157 C 
HETATM   44  N10 UNL     1     -14.413   3.074  -6.544  1.00  0.00    -0.385 N 
ATOM     45 2H10 UNL     1     -14.308   2.118  -6.884  1.00  0.00     0.157 HD
ATOM     46 1H10 UNL     1     -15.124   3.618  -7.033  1.00  0.00     0.157 HD
HETATM   47  N11 UNL     1     -13.887   4.893  -5.094  1.00  0.00    -0.079 NA
ENDBRANCH  41  43
ENDBRANCH  40  41
ENDBRANCH  39  40
ENDBRANCH   8  39
BRANCH  10  48
HETATM   48  N13 UNL     1     -15.718   2.168  -0.145  1.00  0.00    -0.335 N 
ATOM     49 2H13 UNL     1     -16.585   2.171  -0.684  1.00  0.00     0.177 HD
ATOM     50 1H13 UNL     1     -15.763   2.869   0.594  1.00  0.00     0.177 HD
ENDBRANCH  10  48
ENDBRANCH   3   5
TORSDOF 11
ENDMDL
MODEL 3
REMARK VINA RESULT: -8.590958634      1.095      1.261
REMARK  11 active torsions:
REMARK  status: ('A' for Active; 'I' for Inactive)
REMARK    1  A    between atoms: N1_3  and  C3_5 
REMARK    2  A    between atoms: C4_6  and  C5_7 
REMARK    3  A    between atoms: N2_8  and  N3_10 
REMARK       I    between atoms: N3_10  and  C6_12 
REMARK       I    between atoms: C6_12  and  N5_16 
REMARK    4  A    between atoms: N5_16  and  N6_18 
REMARK       I    between atoms: N6_18  and  C7_19 
REMARK    5  A    between atoms: C7_19  and  C8_21 
REMARK    6  A    between atoms: C9_24  and  O2_25 
REMARK    7  A    between atoms: C16_37  and  S1_38 
REMARK    8  A    between atoms: S1_38  and  C17_39 
REMARK    9  A    between atoms: C17_39  and  C18_40 
REMARK   10  A    between atoms: C18_40  and  C19_42 
REMARK   11  A    between atoms: N12_47  and  N13_48 
ROOT
HETATM    1  C1  UNL     1     -13.474  -0.451   6.408  1.00  0.00     0.123 C 
HETATM    2  C2  UNL     1     -13.425  -0.861   5.254  1.00  0.00    -0.074 C 
HETATM    3  N1  UNL     1     -13.373  -1.238   3.986  1.00  0.00    -0.309 N 
ATOM      4  H1  UNL     1     -14.170  -1.001   3.394  1.00  0.00     0.177 HD
ENDROOT
BRANCH   3   5
HETATM    5  C3  UNL     1     -12.314  -1.937   3.391  1.00  0.00     0.164 A 
HETATM    6  C4  UNL     1     -11.487  -2.912   3.828  1.00  0.00     0.098 A 
HETATM    7  N9  UNL     1     -10.468  -3.035   2.947  1.00  0.00    -0.331 N 
HETATM    8  C16 UNL     1     -10.630  -2.189   1.962  1.00  0.00     0.168 A 
ATOM      9  H9  UNL     1      -9.691  -3.689   3.037  1.00  0.00     0.168 HD
HETATM   10  N12 UNL     1     -11.753  -1.510   2.207  1.00  0.00    -0.221 N 
BRANCH   6  11
HETATM   11  C5  UNL     1     -11.701  -3.898   4.922  1.00  0.00     0.140 C 
HETATM   12  N2  UNL     1     -10.817  -4.645   5.369  1.00  0.00    -0.307 N 
ATOM     13  H2  UNL     1      -9.870  -4.612   4.990  1.00  0.00     0.186 HD
BRANCH  12  14
HETATM   14  N3  UNL     1     -11.137  -5.532   6.400  1.00  0.00    -0.270 N 
HETATM   15  C6  UNL     1     -10.393  -6.710   6.401  1.00  0.00     0.217 C 
HETATM   16  N4  UNL     1      -9.353  -7.121   6.930  1.00  0.00    -0.368 N 
HETATM   17  N5  UNL     1     -10.976  -7.691   5.424  1.00  0.00    -0.199 N 
ATOM     18  H42 UNL     1      -8.958  -6.455   7.593  1.00  0.00     0.159 HD
ATOM     19  H41 UNL     1      -8.809  -7.984   6.931  1.00  0.00     0.159 HD
ATOM     20  H5  UNL     1     -11.528  -7.409   4.614  1.00  0.00     0.205 HD
ATOM     21  H3  UNL     1     -11.857  -5.333   7.094  1.00  0.00     0.190 HD
BRANCH  17  22
HETATM   22  N6  UNL     1     -10.700  -8.992   5.717  1.00  0.00    -0.277 NA
HETATM   23  C7  UNL     1     -10.437 -10.263   5.992  1.00  0.00     0.367 C 
HETATM   24  O1  UNL     1     -10.691 -11.297   5.358  1.00  0.00    -0.247 OA
BRANCH  23  25
HETATM   25  C8  UNL     1      -9.752 -10.591   7.277  1.00  0.00     0.188 A 
HETATM   26  N7  UNL     1      -8.468 -10.970   7.395  1.00  0.00    -0.325 N 
HETATM   27  C9  UNL     1      -7.939 -11.181   8.636  1.00  0.00     0.168 A 
ATOM     28  H7  UNL     1      -7.892 -11.099   6.562  1.00  0.00     0.168 HD
HETATM   29  C10 UNL     1      -8.724 -11.011   9.765  1.00  0.00     0.092 A 
HETATM   30  C11 UNL     1      -8.198 -11.276  11.030  1.00  0.00     0.034 A 
HETATM   31  N8  UNL     1      -9.999 -10.628   9.689  1.00  0.00    -0.283 N 
HETATM   32  C12 UNL     1      -8.968 -11.136  12.141  1.00  0.00     0.004 A 
HETATM   33  C13 UNL     1     -10.296 -10.727  12.049  1.00  0.00     0.018 A 
HETATM   34  C14 UNL     1     -10.762 -10.493  10.803  1.00  0.00     0.101 A 
HETATM   35  C15 UNL     1     -10.494 -10.419   8.457  1.00  0.00     0.286 A 
HETATM   36  O3  UNL     1     -11.686 -10.067   8.380  1.00  0.00    -0.265 OA
BRANCH  27  37
HETATM   37  O2  UNL     1      -6.632 -11.561   8.852  1.00  0.00    -0.344 OA
ATOM     38  H2  UNL     1      -6.385 -12.386   9.252  1.00  0.00     0.219 HD
ENDBRANCH  27  37
ENDBRANCH  23  25
ENDBRANCH  17  22
ENDBRANCH  12  14
ENDBRANCH   6  11
BRANCH   8  39
HETATM   39  S1  UNL     1      -9.570  -1.876   0.514  1.00  0.00    -0.084 SA
BRANCH  39  40
HETATM   40  C17 UNL     1     -10.280  -2.833  -0.857  1.00  0.00     0.169 C 
BRANCH  40  41
HETATM   41  C18 UNL     1      -9.117  -3.681  -1.397  1.00  0.00     0.199 C 
HETATM   42  O4  UNL     1      -8.142  -3.880  -0.688  1.00  0.00    -0.289 OA
BRANCH  41  43
HETATM   43  C19 UNL     1      -9.244  -4.233  -2.740  1.00  0.00     0.157 C 
HETATM   44  N10 UNL     1      -9.872  -5.318  -2.973  1.00  0.00    -0.385 N 
ATOM     45 2H10 UNL     1     -10.346  -5.860  -2.250  1.00  0.00     0.157 HD
ATOM     46 1H10 UNL     1      -9.961  -5.704  -3.914  1.00  0.00     0.157 HD
HETATM   47  N11 UNL     1      -8.581  -3.472  -3.754  1.00  0.00    -0.079 NA
ENDBRANCH  41  43
ENDBRANCH  40  41
ENDBRANCH  39  40
ENDBRANCH   8  39
BRANCH  10  48
HETATM   48  N13 UNL     1     -12.326  -0.493   1.435  1.00  0.00    -0.335 N 
ATOM     49 2H13 UNL     1     -11.868   0.096   0.740  1.00  0.00     0.177 HD
ATOM     50 1H13 UNL     1     -13.309  -0.235   1.522  1.00  0.00     0.177 HD
ENDBRANCH  10  48
ENDBRANCH   3   5
TORSDOF 11
ENDMDL
MODEL 4
REMARK VINA RESULT: -8.518402896      6.599     14.996
REMARK  11 active torsions:
REMARK  status: ('A' for Active; 'I' for Inactive)
REMARK    1  A    between atoms: N1_3  and  C3_5 
REMARK    2  A    between atoms: C4_6  and  C5_7 
REMARK    3  A    between atoms: N2_8  and  N3_10 
REMARK       I    between atoms: N3_10  and  C6_12 
REMARK       I    between atoms: C6_12  and  N5_16 
REMARK    4  A    between atoms: N5_16  and  N6_18 
REMARK       I    between atoms: N6_18  and  C7_19 
REMARK    5  A    between atoms: C7_19  and  C8_21 
REMARK    6  A    between atoms: C9_24  and  O2_25 
REMARK    7  A    between atoms: C16_37  and  S1_38 
REMARK    8  A    between atoms: S1_38  and  C17_39 
REMARK    9  A    between atoms: C17_39  and  C18_40 
REMARK   10  A    between atoms: C18_40  and  C19_42 
REMARK   11  A    between atoms: N12_47  and  N13_48 
ROOT
HETATM    1  C1  UNL     1      -9.352  -3.051  -0.557  1.00  0.00     0.123 C 
HETATM    2  C2  UNL     1      -9.935  -2.160   0.049  1.00  0.00    -0.074 C 
HETATM    3  N1  UNL     1     -10.595  -1.179   0.645  1.00  0.00    -0.309 N 
ATOM      4  H1  UNL     1     -10.388  -0.226   0.346  1.00  0.00     0.177 HD
ENDROOT
BRANCH   3   5
HETATM    5  C3  UNL     1     -11.555  -1.343   1.654  1.00  0.00     0.164 A 
HETATM    6  C4  UNL     1     -12.778  -0.810   1.862  1.00  0.00     0.098 A 
HETATM    7  N9  UNL     1     -13.161  -1.097   3.128  1.00  0.00    -0.331 N 
HETATM    8  C16 UNL     1     -12.233  -1.807   3.719  1.00  0.00     0.168 A 
ATOM      9  H9  UNL     1     -14.039  -0.806   3.556  1.00  0.00     0.168 HD
HETATM   10  N12 UNL     1     -11.245  -1.974   2.838  1.00  0.00    -0.221 N 
BRANCH   6  11
HETATM   11  C5  UNL     1     -13.722  -0.221   0.873  1.00  0.00     0.140 C 
HETATM   12  N2  UNL     1     -14.261   0.890   0.999  1.00  0.00    -0.307 N 
ATOM     13  H2  UNL     1     -14.070   1.468   1.819  1.00  0.00     0.186 HD
BRANCH  12  14
HETATM   14  N3  UNL     1     -15.131   1.338   0.003  1.00  0.00    -0.270 N 
HETATM   15  C6  UNL     1     -14.507   1.702  -1.189  1.00  0.00     0.217 C 
HETATM   16  N4  UNL     1     -14.222   1.157  -2.262  1.00  0.00    -0.368 N 
HETATM   17  N5  UNL     1     -13.964   3.099  -1.084  1.00  0.00    -0.199 N 
ATOM     18  H42 UNL     1     -14.591   0.208  -2.333  1.00  0.00     0.159 HD
ATOM     19  H41 UNL     1     -13.766   1.423  -3.135  1.00  0.00     0.159 HD
ATOM     20  H5  UNL     1     -13.714   3.533  -0.196  1.00  0.00     0.205 HD
ATOM     21  H3  UNL     1     -16.140   1.395   0.138  1.00  0.00     0.190 HD
BRANCH  17  22
HETATM   22  N6  UNL     1     -13.838   3.733  -2.282  1.00  0.00    -0.277 NA
HETATM   23  C7  UNL     1     -13.707   4.359  -3.444  1.00  0.00     0.367 C 
HETATM   24  O1  UNL     1     -13.062   5.374  -3.748  1.00  0.00    -0.247 OA
BRANCH  23  25
HETATM   25  C8  UNL     1     -14.453   3.838  -4.627  1.00  0.00     0.188 A 
HETATM   26  N7  UNL     1     -15.501   4.445  -5.210  1.00  0.00    -0.325 N 
HETATM   27  C9  UNL     1     -16.060   3.898  -6.329  1.00  0.00     0.168 A 
ATOM     28  H7  UNL     1     -15.877   5.309  -4.819  1.00  0.00     0.168 HD
HETATM   29  C10 UNL     1     -15.552   2.720  -6.856  1.00  0.00     0.092 A 
HETATM   30  C11 UNL     1     -16.154   2.135  -7.969  1.00  0.00     0.034 A 
HETATM   31  N8  UNL     1     -14.508   2.094  -6.311  1.00  0.00    -0.283 N 
HETATM   32  C12 UNL     1     -15.678   0.967  -8.477  1.00  0.00     0.004 A 
HETATM   33  C13 UNL     1     -14.582   0.327  -7.904  1.00  0.00     0.018 A 
HETATM   34  C14 UNL     1     -14.040   0.928  -6.823  1.00  0.00     0.101 A 
HETATM   35  C15 UNL     1     -13.971   2.657  -5.215  1.00  0.00     0.286 A 
HETATM   36  O3  UNL     1     -13.000   2.073  -4.698  1.00  0.00    -0.265 OA
BRANCH  27  37
HETATM   37  O2  UNL     1     -17.127   4.455  -6.998  1.00  0.00    -0.344 OA
ATOM     38  H2  UNL     1     -17.332   4.270  -7.907  1.00  0.00     0.219 HD
ENDBRANCH  27  37
ENDBRANCH  23  25
ENDBRANCH  17  22
ENDBRANCH  12  14
ENDBRANCH   6  11
BRANCH   8  39
HETATM   39  S1  UNL     1     -12.174  -2.451   5.422  1.00  0.00    -0.084 SA
BRANCH  39  40
HETATM   40  C17 UNL     1     -11.359  -1.173   6.423  1.00  0.00     0.169 C 
BRANCH  40  41
HETATM   41  C18 UNL     1      -9.876  -1.573   6.453  1.00  0.00     0.199 C 
HETATM   42  O4  UNL     1      -9.506  -2.547   5.816  1.00  0.00    -0.289 OA
BRANCH  41  43
HETATM   43  C19 UNL     1      -8.964  -0.747   7.234  1.00  0.00     0.157 C 
HETATM   44  N10 UNL     1      -8.938  -0.779   8.509  1.00  0.00    -0.385 N 
ATOM     45 2H10 UNL     1      -9.530  -1.395   9.068  1.00  0.00     0.157 HD
ATOM     46 1H10 UNL     1      -8.299  -0.201   9.055  1.00  0.00     0.157 HD
HETATM   47  N11 UNL     1      -8.133   0.116   6.450  1.00  0.00    -0.079 NA
ENDBRANCH  41  43
ENDBRANCH  40  41
ENDBRANCH  39  40
ENDBRANCH   8  39
BRANCH  10  48
HETATM   48  N13 UNL     1     -10.038  -2.659   3.024  1.00  0.00    -0.335 N 
ATOM     49 2H13 UNL     1      -9.215  -2.647   2.422  1.00  0.00     0.177 HD
ATOM     50 1H13 UNL     1      -9.881  -3.275   3.821  1.00  0.00     0.177 HD
ENDBRANCH  10  48
ENDBRANCH   3   5
TORSDOF 11
ENDMDL
MODEL 5
REMARK VINA RESULT: -8.512372300      1.969      2.169
REMARK  11 active torsions:
REMARK  status: ('A' for Active; 'I' for Inactive)
REMARK    1  A    between atoms: N1_3  and  C3_5 
REMARK    2  A    between atoms: C4_6  and  C5_7 
REMARK    3  A    between atoms: N2_8  and  N3_10 
REMARK       I    between atoms: N3_10  and  C6_12 
REMARK       I    between atoms: C6_12  and  N5_16 
REMARK    4  A    between atoms: N5_16  and  N6_18 
REMARK       I    between atoms: N6_18  and  C7_19 
REMARK    5  A    between atoms: C7_19  and  C8_21 
REMARK    6  A    between atoms: C9_24  and  O2_25 
REMARK    7  A    between atoms: C16_37  and  S1_38 
REMARK    8  A    between atoms: S1_38  and  C17_39 
REMARK    9  A    between atoms: C17_39  and  C18_40 
REMARK   10  A    between atoms: C18_40  and  C19_42 
REMARK   11  A    between atoms: N12_47  and  N13_48 
ROOT
HETATM    1  C1  UNL     1     -12.733  -1.569   7.917  1.00  0.00     0.123 C 
HETATM    2  C2  UNL     1     -13.224  -1.815   6.822  1.00  0.00    -0.074 C 
HETATM    3  N1  UNL     1     -13.783  -2.018   5.639  1.00  0.00    -0.309 N 
ATOM      4  H1  UNL     1     -14.802  -2.017   5.596  1.00  0.00     0.177 HD
ENDROOT
BRANCH   3   5
HETATM    5  C3  UNL     1     -13.089  -2.236   4.441  1.00  0.00     0.164 A 
HETATM    6  C4  UNL     1     -12.197  -3.169   4.045  1.00  0.00     0.098 A 
HETATM    7  N9  UNL     1     -11.631  -2.758   2.887  1.00  0.00    -0.331 N 
HETATM    8  C16 UNL     1     -12.147  -1.609   2.528  1.00  0.00     0.168 A 
ATOM      9  H9  UNL     1     -10.913  -3.265   2.371  1.00  0.00     0.168 HD
HETATM   10  N12 UNL     1     -13.042  -1.272   3.458  1.00  0.00    -0.221 N 
BRANCH   6  11
HETATM   11  C5  UNL     1     -11.986  -4.545   4.573  1.00  0.00     0.140 C 
HETATM   12  N2  UNL     1     -12.749  -5.499   4.359  1.00  0.00    -0.307 N 
ATOM     13  H2  UNL     1     -13.586  -5.374   3.789  1.00  0.00     0.186 HD
BRANCH  12  14
HETATM   14  N3  UNL     1     -12.446  -6.746   4.910  1.00  0.00    -0.270 N 
HETATM   15  C6  UNL     1     -11.703  -6.694   6.087  1.00  0.00     0.217 C 
HETATM   16  N4  UNL     1     -11.936  -6.676   7.302  1.00  0.00    -0.368 N 
HETATM   17  N5  UNL     1     -10.245  -6.518   5.771  1.00  0.00    -0.199 N 
ATOM     18  H42 UNL     1     -12.926  -6.795   7.516  1.00  0.00     0.159 HD
ATOM     19  H41 UNL     1     -11.391  -6.638   8.164  1.00  0.00     0.159 HD
ATOM     20  H5  UNL     1      -9.910  -6.090   4.909  1.00  0.00     0.205 HD
ATOM     21  H3  UNL     1     -12.745  -7.624   4.484  1.00  0.00     0.190 HD
BRANCH  17  22
HETATM   22  N6  UNL     1      -9.411  -6.984   6.741  1.00  0.00    -0.277 NA
HETATM   23  C7  UNL     1      -8.588  -7.432   7.681  1.00  0.00     0.367 C 
HETATM   24  O1  UNL     1      -7.363  -7.297   7.814  1.00  0.00    -0.247 OA
BRANCH  23  25
HETATM   25  C8  UNL     1      -9.145  -8.276   8.779  1.00  0.00     0.188 A 
HETATM   26  N7  UNL     1      -8.885  -9.583   8.959  1.00  0.00    -0.325 N 
HETATM   27  C9  UNL     1      -9.408 -10.230  10.042  1.00  0.00     0.168 A 
ATOM     28  H7  UNL     1      -8.302 -10.087   8.292  1.00  0.00     0.168 HD
HETATM   29  C10 UNL     1     -10.206  -9.544  10.944  1.00  0.00     0.092 A 
HETATM   30  C11 UNL     1     -10.781 -10.217  12.022  1.00  0.00     0.034 A 
HETATM   31  N8  UNL     1     -10.479  -8.246  10.803  1.00  0.00    -0.283 N 
HETATM   32  C12 UNL     1     -11.584  -9.558  12.898  1.00  0.00     0.004 A 
HETATM   33  C13 UNL     1     -11.855  -8.201  12.745  1.00  0.00     0.018 A 
HETATM   34  C14 UNL     1     -11.284  -7.596  11.681  1.00  0.00     0.101 A 
HETATM   35  C15 UNL     1      -9.947  -7.630   9.734  1.00  0.00     0.286 A 
HETATM   36  O3  UNL     1     -10.204  -6.420   9.594  1.00  0.00    -0.265 OA
BRANCH  27  37
HETATM   37  O2  UNL     1      -9.186 -11.562  10.312  1.00  0.00    -0.344 OA
ATOM     38  H2  UNL     1      -9.567 -12.018  11.054  1.00  0.00     0.219 HD
ENDBRANCH  27  37
ENDBRANCH  23  25
ENDBRANCH  17  22
ENDBRANCH  12  14
ENDBRANCH   6  11
BRANCH   8  39
HETATM   39  S1  UNL     1     -11.757  -0.561   1.089  1.00  0.00    -0.084 SA
BRANCH  39  40
HETATM   40  C17 UNL     1     -11.148  -1.678  -0.207  1.00  0.00     0.169 C 
BRANCH  40  41
HETATM   41  C18 UNL     1      -9.651  -1.857   0.090  1.00  0.00     0.199 C 
HETATM   42  O4  UNL     1      -9.090  -1.067   0.835  1.00  0.00    -0.289 OA
BRANCH  41  43
HETATM   43  C19 UNL     1      -8.965  -2.987  -0.523  1.00  0.00     0.157 C 
HETATM   44  N10 UNL     1      -9.489  -3.673  -1.463  1.00  0.00    -0.385 N 
ATOM     45 2H10 UNL     1     -10.404  -3.468  -1.865  1.00  0.00     0.157 HD
ATOM     46 1H10 UNL     1      -9.009  -4.464  -1.893  1.00  0.00     0.157 HD
HETATM   47  N11 UNL     1      -7.681  -3.274   0.040  1.00  0.00    -0.079 NA
ENDBRANCH  41  43
ENDBRANCH  40  41
ENDBRANCH  39  40
ENDBRANCH   8  39
BRANCH  10  48
HETATM   48  N13 UNL     1     -13.838  -0.121   3.505  1.00  0.00    -0.335 N 
ATOM     49 2H13 UNL     1     -13.874   0.583   4.241  1.00  0.00     0.177 HD
ATOM     50 1H13 UNL     1     -14.498   0.113   2.763  1.00  0.00     0.177 HD
ENDBRANCH  10  48
ENDBRANCH   3   5
TORSDOF 11
ENDMDL
