MODEL 1
REMARK VINA RESULT: -5.403678738      0.000      0.000
REMARK  5 active torsions:
REMARK  status: ('A' for Active; 'I' for Inactive)
REMARK    1  A    between atoms: C3_5  and  N2_6 
REMARK    2  A    between atoms: N2_6  and  C4_8 
REMARK    3  A    between atoms: C4_8  and  C5_9 
REMARK    4  A    between atoms: C5_9  and  N3_10 
REMARK    5  A    between atoms: C8_15  and  N5_16 
ROOT
HETATM    1  C1  UNL     1       7.380  18.866  77.211  1.00  0.00     0.070 C 
HETATM    2  C2  UNL     1       6.658  19.644  76.171  1.00  0.00     0.047 A 
HETATM    3  N1  UNL     1       6.262  19.010  75.028  1.00  0.00    -0.194 N 
ATOM      4  H1  UNL     1       6.464  18.018  74.902  1.00  0.00     0.184 HD
HETATM    5  C3  UNL     1       5.611  19.685  74.074  1.00  0.00     0.679 A 
HETATM    6  N4  UNL     1       5.344  20.985  74.232  1.00  0.00    -0.176 N 
ATOM      7  H4  UNL     1       4.847  21.478  73.491  1.00  0.00     0.186 HD
HETATM    8  C8  UNL     1       5.708  21.671  75.339  1.00  0.00     0.137 A 
HETATM    9  C9  UNL     1       6.386  20.983  76.341  1.00  0.00     0.111 A 
HETATM   10  C10 UNL     1       6.792  21.675  77.530  1.00  0.00     0.105 C 
HETATM   11  N6  UNL     1       7.138  22.237  78.482  1.00  0.00    -0.191 NA
ENDROOT
BRANCH   8  12
HETATM   12  N5  UNL     1       5.433  22.902  75.442  1.00  0.00    -0.384 N 
ATOM     13  H52 UNL     1       5.200  23.472  74.629  1.00  0.00     0.157 HD
ATOM     14  H51 UNL     1       5.439  23.352  76.358  1.00  0.00     0.157 HD
ENDBRANCH   8  12
BRANCH   5  15
HETATM   15  N2  UNL     1       5.250  19.072  73.018  1.00  0.00    -0.224 N 
ATOM     16  H2  UNL     1       4.339  18.615  72.974  1.00  0.00     0.177 HD
BRANCH  15  17
HETATM   17  C4  UNL     1       6.141  19.029  71.881  1.00  0.00     0.168 C 
BRANCH  17  18
HETATM   18  C5  UNL     1       6.474  20.410  71.362  1.00  0.00     0.291 C 
BRANCH  18  19
HETATM   19  N3  UNL     1       7.845  20.436  70.887  1.00  0.00     0.081 N 
HETATM   20  C6  UNL     1       8.756  20.156  71.996  1.00  0.00     0.309 C 
HETATM   21  C7  UNL     1       7.999  19.352  69.935  1.00  0.00     0.309 C 
ENDBRANCH  18  19
ENDBRANCH  17  18
ENDBRANCH  15  17
ENDBRANCH   5  15
TORSDOF 5
ENDMDL
MODEL 2
REMARK VINA RESULT: -5.373506257      0.853      2.113
REMARK  5 active torsions:
REMARK  status: ('A' for Active; 'I' for Inactive)
REMARK    1  A    between atoms: C3_5  and  N2_6 
REMARK    2  A    between atoms: N2_6  and  C4_8 
REMARK    3  A    between atoms: C4_8  and  C5_9 
REMARK    4  A    between atoms: C5_9  and  N3_10 
REMARK    5  A    between atoms: C8_15  and  N5_16 
ROOT
HETATM    1  C1  UNL     1       5.149  22.610  75.764  1.00  0.00     0.070 C 
HETATM    2  C2  UNL     1       5.580  21.231  75.418  1.00  0.00     0.047 A 
HETATM    3  N1  UNL     1       5.255  20.726  74.191  1.00  0.00    -0.194 N 
ATOM      4  H1  UNL     1       4.724  21.296  73.532  1.00  0.00     0.184 HD
HETATM    5  C3  UNL     1       5.629  19.488  73.851  1.00  0.00     0.679 A 
HETATM    6  N4  UNL     1       6.323  18.735  74.710  1.00  0.00    -0.176 N 
ATOM      7  H4  UNL     1       6.597  17.794  74.429  1.00  0.00     0.186 HD
HETATM    8  C8  UNL     1       6.677  19.175  75.939  1.00  0.00     0.137 A 
HETATM    9  C9  UNL     1       6.295  20.462  76.307  1.00  0.00     0.111 A 
HETATM   10  C10 UNL     1       6.649  20.965  77.603  1.00  0.00     0.105 C 
HETATM   11  N6  UNL     1       6.917  21.366  78.657  1.00  0.00    -0.191 NA
ENDROOT
BRANCH   8  12
HETATM   12  N5  UNL     1       7.335  18.424  76.717  1.00  0.00    -0.384 N 
ATOM     13  H52 UNL     1       7.726  17.535  76.406  1.00  0.00     0.157 HD
ATOM     14  H51 UNL     1       7.489  18.702  77.687  1.00  0.00     0.157 HD
ENDBRANCH   8  12
BRANCH   5  15
HETATM   15  N2  UNL     1       5.316  19.039  72.701  1.00  0.00    -0.224 N 
ATOM     16  H2  UNL     1       4.388  18.650  72.535  1.00  0.00     0.177 HD
BRANCH  15  17
HETATM   17  C4  UNL     1       6.287  19.086  71.632  1.00  0.00     0.168 C 
BRANCH  17  18
HETATM   18  C5  UNL     1       6.794  20.488  71.380  1.00  0.00     0.291 C 
BRANCH  18  19
HETATM   19  N3  UNL     1       8.090  20.431  70.730  1.00  0.00     0.081 N 
HETATM   20  C6  UNL     1       9.130  20.177  71.727  1.00  0.00     0.309 C 
HETATM   21  C7  UNL     1       8.080  19.288  69.835  1.00  0.00     0.309 C 
ENDBRANCH  18  19
ENDBRANCH  17  18
ENDBRANCH  15  17
ENDBRANCH   5  15
TORSDOF 5
ENDMDL
MODEL 3
REMARK VINA RESULT: -5.334076011      1.491      1.828
REMARK  5 active torsions:
REMARK  status: ('A' for Active; 'I' for Inactive)
REMARK    1  A    between atoms: C3_5  and  N2_6 
REMARK    2  A    between atoms: N2_6  and  C4_8 
REMARK    3  A    between atoms: C4_8  and  C5_9 
REMARK    4  A    between atoms: C5_9  and  N3_10 
REMARK    5  A    between atoms: C8_15  and  N5_16 
ROOT
HETATM    1  C1  UNL     1       6.548  17.641  74.760  1.00  0.00     0.070 C 
HETATM    2  C2  UNL     1       6.370  19.112  74.642  1.00  0.00     0.047 A 
HETATM    3  N1  UNL     1       6.160  19.654  73.406  1.00  0.00    -0.194 N 
ATOM      4  H1  UNL     1       6.129  19.049  72.585  1.00  0.00     0.184 HD
HETATM    5  C3  UNL     1       5.997  20.974  73.268  1.00  0.00     0.679 A 
HETATM    6  N4  UNL     1       6.038  21.772  74.340  1.00  0.00    -0.176 N 
ATOM      7  H4  UNL     1       5.912  22.776  74.210  1.00  0.00     0.186 HD
HETATM    8  C8  UNL     1       6.241  21.299  75.590  1.00  0.00     0.137 A 
HETATM    9  C9  UNL     1       6.412  19.927  75.750  1.00  0.00     0.111 A 
HETATM   10  C10 UNL     1       6.633  19.386  77.060  1.00  0.00     0.105 C 
HETATM   11  N6  UNL     1       6.830  18.948  78.115  1.00  0.00    -0.191 NA
ENDROOT
BRANCH   8  12
HETATM   12  N5  UNL     1       6.272  22.096  76.573  1.00  0.00    -0.384 N 
ATOM     13  H52 UNL     1       6.089  23.093  76.465  1.00  0.00     0.157 HD
ATOM     14  H51 UNL     1       6.484  21.746  77.508  1.00  0.00     0.157 HD
ENDBRANCH   8  12
BRANCH   5  15
HETATM   15  N2  UNL     1       5.801  21.457  72.106  1.00  0.00    -0.224 N 
ATOM     16  H2  UNL     1       5.429  22.400  71.997  1.00  0.00     0.177 HD
BRANCH  15  17
HETATM   17  C4  UNL     1       6.112  20.657  70.944  1.00  0.00     0.168 C 
BRANCH  17  18
HETATM   18  C5  UNL     1       7.382  21.110  70.260  1.00  0.00     0.291 C 
BRANCH  18  19
HETATM   19  N3  UNL     1       8.364  20.042  70.295  1.00  0.00     0.081 N 
HETATM   20  C6  UNL     1       9.208  20.188  71.481  1.00  0.00     0.309 C 
HETATM   21  C7  UNL     1       7.645  18.790  70.445  1.00  0.00     0.309 C 
ENDBRANCH  18  19
ENDBRANCH  17  18
ENDBRANCH  15  17
ENDBRANCH   5  15
TORSDOF 5
ENDMDL
MODEL 4
REMARK VINA RESULT: -5.254309833      1.044      2.357
REMARK  5 active torsions:
REMARK  status: ('A' for Active; 'I' for Inactive)
REMARK    1  A    between atoms: C3_5  and  N2_6 
REMARK    2  A    between atoms: N2_6  and  C4_8 
REMARK    3  A    between atoms: C4_8  and  C5_9 
REMARK    4  A    between atoms: C5_9  and  N3_10 
REMARK    5  A    between atoms: C8_15  and  N5_16 
ROOT
HETATM    1  C1  UNL     1       5.560  22.684  75.330  1.00  0.00     0.070 C 
HETATM    2  C2  UNL     1       5.953  21.257  75.466  1.00  0.00     0.047 A 
HETATM    3  N1  UNL     1       5.650  20.390  74.455  1.00  0.00    -0.194 N 
ATOM      4  H1  UNL     1       5.162  20.728  73.625  1.00  0.00     0.184 HD
HETATM    5  C3  UNL     1       5.991  19.100  74.549  1.00  0.00     0.679 A 
HETATM    6  N4  UNL     1       6.630  18.651  75.634  1.00  0.00    -0.176 N 
ATOM      7  H4  UNL     1       6.879  17.663  75.683  1.00  0.00     0.186 HD
HETATM    8  C8  UNL     1       6.959  19.456  76.668  1.00  0.00     0.137 A 
HETATM    9  C9  UNL     1       6.612  20.801  76.585  1.00  0.00     0.111 A 
HETATM   10  C10 UNL     1       6.941  21.689  77.663  1.00  0.00     0.105 C 
HETATM   11  N6  UNL     1       7.189  22.403  78.541  1.00  0.00    -0.191 NA
ENDROOT
BRANCH   8  12
HETATM   12  N5  UNL     1       7.564  18.983  77.674  1.00  0.00    -0.384 N 
ATOM     13  H52 UNL     1       8.145  19.566  78.278  1.00  0.00     0.157 HD
ATOM     14  H51 UNL     1       7.479  17.993  77.904  1.00  0.00     0.157 HD
ENDBRANCH   8  12
BRANCH   5  15
HETATM   15  N2  UNL     1       5.700  18.311  73.593  1.00  0.00    -0.224 N 
ATOM     16  H2  UNL     1       5.519  17.324  73.778  1.00  0.00     0.177 HD
BRANCH  15  17
HETATM   17  C4  UNL     1       5.628  18.825  72.245  1.00  0.00     0.168 C 
BRANCH  17  18
HETATM   18  C5  UNL     1       6.925  18.639  71.491  1.00  0.00     0.291 C 
BRANCH  18  19
HETATM   19  N3  UNL     1       7.420  19.927  71.043  1.00  0.00     0.081 N 
HETATM   20  C6  UNL     1       6.334  20.907  71.071  1.00  0.00     0.309 C 
HETATM   21  C7  UNL     1       8.412  20.374  72.003  1.00  0.00     0.309 C 
ENDBRANCH  18  19
ENDBRANCH  17  18
ENDBRANCH  15  17
ENDBRANCH   5  15
TORSDOF 5
ENDMDL
MODEL 5
REMARK VINA RESULT: -5.079562198      1.366      2.467
REMARK  5 active torsions:
REMARK  status: ('A' for Active; 'I' for Inactive)
REMARK    1  A    between atoms: C3_5  and  N2_6 
REMARK    2  A    between atoms: N2_6  and  C4_8 
REMARK    3  A    between atoms: C4_8  and  C5_9 
REMARK    4  A    between atoms: C5_9  and  N3_10 
REMARK    5  A    between atoms: C8_15  and  N5_16 
ROOT
HETATM    1  C1  UNL     1       6.423  22.168  76.725  1.00  0.00     0.070 C 
HETATM    2  C2  UNL     1       6.330  21.223  75.581  1.00  0.00     0.047 A 
HETATM    3  N1  UNL     1       6.097  21.721  74.331  1.00  0.00    -0.194 N 
ATOM      4  H1  UNL     1       5.989  22.727  74.196  1.00  0.00     0.184 HD
HETATM    5  C3  UNL     1       6.008  20.894  73.282  1.00  0.00     0.679 A 
HETATM    6  N4  UNL     1       6.147  19.576  73.452  1.00  0.00    -0.176 N 
ATOM      7  H4  UNL     1       6.075  18.966  72.638  1.00  0.00     0.186 HD
HETATM    8  C8  UNL     1       6.380  19.020  74.662  1.00  0.00     0.137 A 
HETATM    9  C9  UNL     1       6.475  19.867  75.763  1.00  0.00     0.111 A 
HETATM   10  C10 UNL     1       6.719  19.316  77.065  1.00  0.00     0.105 C 
HETATM   11  N6  UNL     1       6.896  18.871  78.120  1.00  0.00    -0.191 NA
ENDROOT
BRANCH   8  12
HETATM   12  N5  UNL     1       6.504  17.765  74.772  1.00  0.00    -0.384 N 
ATOM     13  H52 UNL     1       5.696  17.151  74.880  1.00  0.00     0.157 HD
ATOM     14  H51 UNL     1       7.430  17.338  74.751  1.00  0.00     0.157 HD
ENDBRANCH   8  12
BRANCH   5  15
HETATM   15  N2  UNL     1       5.792  21.381  72.126  1.00  0.00    -0.224 N 
ATOM     16  H2  UNL     1       5.401  22.318  72.027  1.00  0.00     0.177 HD
BRANCH  15  17
HETATM   17  C4  UNL     1       6.105  20.596  70.955  1.00  0.00     0.168 C 
BRANCH  17  18
HETATM   18  C5  UNL     1       7.367  21.068  70.269  1.00  0.00     0.291 C 
BRANCH  18  19
HETATM   19  N3  UNL     1       8.362  20.013  70.293  1.00  0.00     0.081 N 
HETATM   20  C6  UNL     1       9.228  20.180  71.460  1.00  0.00     0.309 C 
HETATM   21  C7  UNL     1       7.661  18.754  70.470  1.00  0.00     0.309 C 
ENDBRANCH  18  19
ENDBRANCH  17  18
ENDBRANCH  15  17
ENDBRANCH   5  15
TORSDOF 5
ENDMDL
