MODEL 1
REMARK VINA RESULT: -6.319019297      0.000      0.000
REMARK  5 active torsions:
REMARK  status: ('A' for Active; 'I' for Inactive)
REMARK    1  A    between atoms: N1_2  and  C3_4 
REMARK    2  A    between atoms: C3_4  and  C4_5 
REMARK    3  A    between atoms: C4_5  and  C5_6 
REMARK    4  A    between atoms: C5_6  and  N2_7 
REMARK    5  A    between atoms: C8_12  and  N4_13 
ROOT
HETATM    1  N2  UNL     1       5.787  19.716  73.834  1.00  0.00    -0.184 N 
HETATM    2  C6  UNL     1       6.222  20.024  75.047  1.00  0.00     0.069 A 
HETATM    3  C7  UNL     1       6.727  18.893  75.637  1.00  0.00     0.053 A 
HETATM    4  N3  UNL     1       6.599  17.890  74.780  1.00  0.00    -0.194 N 
ATOM      5  H3  UNL     1       6.884  16.922  74.932  1.00  0.00     0.184 HD
HETATM    6  C8  UNL     1       6.023  18.390  73.672  1.00  0.00     0.678 A 
HETATM    7  C9  UNL     1       7.267  19.062  77.027  1.00  0.00     0.079 C 
HETATM    8  C10 UNL     1       6.326  19.931  77.810  1.00  0.00     0.120 C 
HETATM    9  N5  UNL     1       5.957  21.148  77.193  1.00  0.00    -0.416 N 
ATOM     10  H5  UNL     1       5.503  21.896  77.719  1.00  0.00     0.153 HD
HETATM   11  C11 UNL     1       6.247  21.283  75.800  1.00  0.00     0.174 C 
ENDROOT
BRANCH   1  12
HETATM   12  C5  UNL     1       5.175  20.555  72.814  1.00  0.00     0.149 C 
BRANCH  12  13
HETATM   13  C4  UNL     1       6.193  21.018  71.796  1.00  0.00     0.051 C 
BRANCH  13  14
HETATM   14  C3  UNL     1       7.576  20.841  72.352  1.00  0.00     0.273 C 
BRANCH  14  15
HETATM   15  N1  UNL     1       8.393  19.958  71.561  1.00  0.00     0.080 N 
HETATM   16  C1  UNL     1       8.003  19.931  70.170  1.00  0.00     0.309 C 
HETATM   17  C2  UNL     1       9.807  20.201  71.726  1.00  0.00     0.309 C 
ENDBRANCH  14  15
ENDBRANCH  13  14
ENDBRANCH  12  13
ENDBRANCH   1  12
BRANCH   6  18
HETATM   18  N4  UNL     1       5.731  17.716  72.593  1.00  0.00    -0.234 N 
ATOM     19  H42 UNL     1       4.808  17.359  72.344  1.00  0.00     0.174 HD
ATOM     20  H41 UNL     1       6.404  17.468  71.868  1.00  0.00     0.174 HD
ENDBRANCH   6  18
TORSDOF 5
ENDMDL
MODEL 2
REMARK VINA RESULT: -5.954083861      1.465      2.568
REMARK  5 active torsions:
REMARK  status: ('A' for Active; 'I' for Inactive)
REMARK    1  A    between atoms: N1_2  and  C3_4 
REMARK    2  A    between atoms: C3_4  and  C4_5 
REMARK    3  A    between atoms: C4_5  and  C5_6 
REMARK    4  A    between atoms: C5_6  and  N2_7 
REMARK    5  A    between atoms: C8_12  and  N4_13 
ROOT
HETATM    1  N2  UNL     1       5.423  20.624  74.159  1.00  0.00    -0.184 N 
HETATM    2  C6  UNL     1       5.804  20.275  75.379  1.00  0.00     0.069 A 
HETATM    3  C7  UNL     1       5.757  21.381  76.189  1.00  0.00     0.053 A 
HETATM    4  N3  UNL     1       5.347  22.409  75.460  1.00  0.00    -0.194 N 
ATOM      5  H3  UNL     1       5.213  23.367  75.784  1.00  0.00     0.184 HD
HETATM    6  C8  UNL     1       5.140  21.950  74.213  1.00  0.00     0.678 A 
HETATM    7  C9  UNL     1       6.160  21.165  77.619  1.00  0.00     0.079 C 
HETATM    8  C10 UNL     1       7.380  20.292  77.652  1.00  0.00     0.120 C 
HETATM    9  N5  UNL     1       7.303  19.099  76.898  1.00  0.00    -0.416 N 
ATOM     10  H5  UNL     1       7.979  18.345  77.022  1.00  0.00     0.153 HD
HETATM   11  C11 UNL     1       6.233  18.997  75.955  1.00  0.00     0.174 C 
ENDROOT
BRANCH   1  12
HETATM   12  C5  UNL     1       5.298  19.823  72.948  1.00  0.00     0.149 C 
BRANCH  12  13
HETATM   13  C4  UNL     1       6.646  19.335  72.468  1.00  0.00     0.051 C 
BRANCH  13  14
HETATM   14  C3  UNL     1       7.619  20.478  72.454  1.00  0.00     0.273 C 
BRANCH  14  15
HETATM   15  N1  UNL     1       8.512  20.444  71.324  1.00  0.00     0.080 N 
HETATM   16  C1  UNL     1       9.854  20.048  71.683  1.00  0.00     0.309 C 
HETATM   17  C2  UNL     1       7.991  19.674  70.220  1.00  0.00     0.309 C 
ENDBRANCH  14  15
ENDBRANCH  13  14
ENDBRANCH  12  13
ENDBRANCH   1  12
BRANCH   6  18
HETATM   18  N4  UNL     1       4.728  22.657  73.197  1.00  0.00    -0.234 N 
ATOM     19  H42 UNL     1       5.010  22.527  72.225  1.00  0.00     0.174 HD
ATOM     20  H41 UNL     1       4.067  23.431  73.264  1.00  0.00     0.174 HD
ENDBRANCH   6  18
TORSDOF 5
ENDMDL
MODEL 3
REMARK VINA RESULT: -5.438155014      1.870      4.977
REMARK  5 active torsions:
REMARK  status: ('A' for Active; 'I' for Inactive)
REMARK    1  A    between atoms: N1_2  and  C3_4 
REMARK    2  A    between atoms: C3_4  and  C4_5 
REMARK    3  A    between atoms: C4_5  and  C5_6 
REMARK    4  A    between atoms: C5_6  and  N2_7 
REMARK    5  A    between atoms: C8_12  and  N4_13 
ROOT
HETATM    1  N2  UNL     1       5.181  21.509  73.704  1.00  0.00    -0.184 N 
HETATM    2  C6  UNL     1       5.796  20.386  73.362  1.00  0.00     0.069 A 
HETATM    3  C7  UNL     1       6.306  20.529  72.097  1.00  0.00     0.053 A 
HETATM    4  N3  UNL     1       6.000  21.744  71.665  1.00  0.00    -0.194 N 
ATOM      5  H3  UNL     1       6.243  22.144  70.758  1.00  0.00     0.184 HD
HETATM    6  C8  UNL     1       5.310  22.350  72.648  1.00  0.00     0.678 A 
HETATM    7  C9  UNL     1       7.041  19.341  71.547  1.00  0.00     0.079 C 
HETATM    8  C10 UNL     1       6.271  18.097  71.884  1.00  0.00     0.120 C 
HETATM    9  N5  UNL     1       5.896  17.954  73.239  1.00  0.00    -0.416 N 
ATOM     10  H5  UNL     1       5.566  17.063  73.609  1.00  0.00     0.153 HD
HETATM   11  C11 UNL     1       6.001  19.116  74.066  1.00  0.00     0.174 C 
ENDROOT
BRANCH   1  12
HETATM   12  C5  UNL     1       4.488  21.864  74.935  1.00  0.00     0.149 C 
BRANCH  12  13
HETATM   13  C4  UNL     1       5.423  22.519  75.926  1.00  0.00     0.051 C 
BRANCH  13  14
HETATM   14  C3  UNL     1       6.574  21.600  76.215  1.00  0.00     0.273 C 
BRANCH  14  15
HETATM   15  N1  UNL     1       6.708  21.287  77.615  1.00  0.00     0.080 N 
HETATM   16  C1  UNL     1       6.718  19.865  77.872  1.00  0.00     0.309 C 
HETATM   17  C2  UNL     1       7.822  21.963  78.238  1.00  0.00     0.309 C 
ENDBRANCH  14  15
ENDBRANCH  13  14
ENDBRANCH  12  13
ENDBRANCH   1  12
BRANCH   6  18
HETATM   18  N4  UNL     1       4.832  23.563  72.609  1.00  0.00    -0.234 N 
ATOM     19  H42 UNL     1       4.609  24.143  73.418  1.00  0.00     0.174 HD
ATOM     20  H41 UNL     1       4.623  24.073  71.751  1.00  0.00     0.174 HD
ENDBRANCH   6  18
TORSDOF 5
ENDMDL
MODEL 4
REMARK VINA RESULT: -5.399599253      1.425      2.139
REMARK  5 active torsions:
REMARK  status: ('A' for Active; 'I' for Inactive)
REMARK    1  A    between atoms: N1_2  and  C3_4 
REMARK    2  A    between atoms: C3_4  and  C4_5 
REMARK    3  A    between atoms: C4_5  and  C5_6 
REMARK    4  A    between atoms: C5_6  and  N2_7 
REMARK    5  A    between atoms: C8_12  and  N4_13 
ROOT
HETATM    1  N2  UNL     1       5.898  19.199  73.699  1.00  0.00    -0.184 N 
HETATM    2  C6  UNL     1       5.728  20.413  74.203  1.00  0.00     0.069 A 
HETATM    3  C7  UNL     1       6.094  20.398  75.524  1.00  0.00     0.053 A 
HETATM    4  N3  UNL     1       6.491  19.170  75.828  1.00  0.00    -0.194 N 
ATOM      5  H3  UNL     1       6.823  18.848  76.737  1.00  0.00     0.184 HD
HETATM    6  C8  UNL     1       6.373  18.430  74.711  1.00  0.00     0.678 A 
HETATM    7  C9  UNL     1       5.963  21.701  76.257  1.00  0.00     0.079 C 
HETATM    8  C10 UNL     1       4.663  22.345  75.871  1.00  0.00     0.120 C 
HETATM    9  N5  UNL     1       4.415  22.447  74.484  1.00  0.00    -0.416 N 
ATOM     10  H5  UNL     1       3.678  23.048  74.116  1.00  0.00     0.153 HD
HETATM   11  C11 UNL     1       5.246  21.668  73.618  1.00  0.00     0.174 C 
ENDROOT
BRANCH   1  12
HETATM   12  C5  UNL     1       5.661  18.699  72.352  1.00  0.00     0.149 C 
BRANCH  12  13
HETATM   13  C4  UNL     1       6.733  19.164  71.393  1.00  0.00     0.051 C 
BRANCH  13  14
HETATM   14  C3  UNL     1       7.811  19.882  72.153  1.00  0.00     0.273 C 
BRANCH  14  15
HETATM   15  N1  UNL     1       8.822  20.448  71.298  1.00  0.00     0.080 N 
HETATM   16  C1  UNL     1      10.151  19.983  71.620  1.00  0.00     0.309 C 
HETATM   17  C2  UNL     1       8.517  20.303  69.894  1.00  0.00     0.309 C 
ENDBRANCH  14  15
ENDBRANCH  13  14
ENDBRANCH  12  13
ENDBRANCH   1  12
BRANCH   6  18
HETATM   18  N4  UNL     1       6.667  17.165  74.598  1.00  0.00    -0.234 N 
ATOM     19  H42 UNL     1       6.663  16.625  73.733  1.00  0.00     0.174 HD
ATOM     20  H41 UNL     1       6.938  16.564  75.378  1.00  0.00     0.174 HD
ENDBRANCH   6  18
TORSDOF 5
ENDMDL
MODEL 5
REMARK VINA RESULT: -4.969663270      1.748      4.616
REMARK  5 active torsions:
REMARK  status: ('A' for Active; 'I' for Inactive)
REMARK    1  A    between atoms: N1_2  and  C3_4 
REMARK    2  A    between atoms: C3_4  and  C4_5 
REMARK    3  A    between atoms: C4_5  and  C5_6 
REMARK    4  A    between atoms: C5_6  and  N2_7 
REMARK    5  A    between atoms: C8_12  and  N4_13 
ROOT
HETATM    1  N2  UNL     1       5.982  19.803  73.024  1.00  0.00    -0.184 N 
HETATM    2  C6  UNL     1       5.398  20.979  73.202  1.00  0.00     0.069 A 
HETATM    3  C7  UNL     1       5.622  21.756  72.095  1.00  0.00     0.053 A 
HETATM    4  N3  UNL     1       6.346  21.052  71.237  1.00  0.00    -0.194 N 
ATOM      5  H3  UNL     1       6.672  21.361  70.321  1.00  0.00     0.184 HD
HETATM    6  C8  UNL     1       6.570  19.852  71.802  1.00  0.00     0.678 A 
HETATM    7  C9  UNL     1       5.026  23.134  72.127  1.00  0.00     0.079 C 
HETATM    8  C10 UNL     1       5.251  23.727  73.489  1.00  0.00     0.120 C 
HETATM    9  N5  UNL     1       4.869  22.917  74.582  1.00  0.00    -0.416 N 
ATOM     10  H5  UNL     1       4.779  23.300  75.523  1.00  0.00     0.153 HD
HETATM   11  C11 UNL     1       4.613  21.537  74.309  1.00  0.00     0.174 C 
ENDROOT
BRANCH   1  12
HETATM   12  C5  UNL     1       6.033  18.637  73.896  1.00  0.00     0.149 C 
BRANCH  12  13
HETATM   13  C4  UNL     1       7.020  18.835  75.024  1.00  0.00     0.051 C 
BRANCH  13  14
HETATM   14  C3  UNL     1       6.277  18.982  76.321  1.00  0.00     0.273 C 
BRANCH  14  15
HETATM   15  N1  UNL     1       6.935  19.864  77.251  1.00  0.00     0.080 N 
HETATM   16  C1  UNL     1       6.835  21.253  76.870  1.00  0.00     0.309 C 
HETATM   17  C2  UNL     1       6.529  19.642  78.619  1.00  0.00     0.309 C 
ENDBRANCH  14  15
ENDBRANCH  13  14
ENDBRANCH  12  13
ENDBRANCH   1  12
BRANCH   6  18
HETATM   18  N4  UNL     1       7.245  18.871  71.270  1.00  0.00    -0.234 N 
ATOM     19  H42 UNL     1       8.223  18.650  71.455  1.00  0.00     0.174 HD
ATOM     20  H41 UNL     1       6.861  18.206  70.598  1.00  0.00     0.174 HD
ENDBRANCH   6  18
TORSDOF 5
ENDMDL
