MODEL 1
REMARK VINA RESULT: -8.178015279      0.000      0.000
REMARK  6 active torsions:
REMARK  status: ('A' for Active; 'I' for Inactive)
REMARK    1  A    between atoms: C1_4  and  C2_6 
REMARK    2  A    between atoms: C2_6  and  N3_7 
REMARK    3  A    between atoms: N3_7  and  C3_10 
REMARK    4  A    between atoms: C3_10  and  C4_11 
REMARK    5  A    between atoms: C4_11  and  N4_12 
REMARK    6  A    between atoms: C6_14  and  C7_15 
ROOT
HETATM    1  N4  UNL     1      11.171   6.227  11.297  1.00  0.00    -0.285 N 
HETATM    2  C5  UNL     1      11.129   5.214  10.416  1.00  0.00     0.143 A 
HETATM    3  C6  UNL     1      11.514   5.677   9.171  1.00  0.00     0.076 A 
HETATM    4  N5  UNL     1      11.779   6.983   9.357  1.00  0.00    -0.284 N 
ATOM      5  H5  UNL     1      12.091   7.630   8.634  1.00  0.00     0.188 HD
HETATM    6  N6  UNL     1      11.568   7.297  10.637  1.00  0.00    -0.240 N 
ATOM      7  H6  UNL     1      11.695   8.224  11.044  1.00  0.00     0.208 HD
ENDROOT
BRANCH   1   8
HETATM    8  C4  UNL     1      10.852   6.201  12.707  1.00  0.00     0.177 C 
BRANCH   8   9
HETATM    9  C3  UNL     1       9.358   6.167  12.840  1.00  0.00     0.254 C 
BRANCH   9  10
HETATM   10  N3  UNL     1       8.744   7.470  12.803  1.00  0.00    -0.067 N 
ATOM     11  H32 UNL     1       7.875   7.491  12.271  1.00  0.00     0.277 HD
ATOM     12  H31 UNL     1       9.259   8.142  12.233  1.00  0.00     0.277 HD
BRANCH  10  13
HETATM   13  C2  UNL     1       8.580   7.897  14.192  1.00  0.00     0.304 C 
BRANCH  13  14
HETATM   14  C1  UNL     1       9.275   9.177  14.435  1.00  0.00     0.112 C 
HETATM   15  N1  UNL     1       8.961   9.968  15.400  1.00  0.00    -0.390 N 
ATOM     16  H12 UNL     1       9.441  10.851  15.569  1.00  0.00     0.157 HD
ATOM     17  H11 UNL     1       8.202   9.716  16.034  1.00  0.00     0.157 HD
HETATM   18  N2  UNL     1      10.331   9.528  13.552  1.00  0.00    -0.086 NA
ENDBRANCH  13  14
ENDBRANCH  10  13
ENDBRANCH   9  10
ENDBRANCH   8   9
ENDBRANCH   1   8
BRANCH   3  19
HETATM   19  C7  UNL     1      11.608   4.905   7.936  1.00  0.00    -0.007 A 
HETATM   20  C8  UNL     1      11.667   5.490   6.694  1.00  0.00     0.014 A 
HETATM   21  C9  UNL     1      11.754   4.737   5.558  1.00  0.00     0.001 A 
HETATM   22  C10 UNL     1      11.784   3.357   5.632  1.00  0.00     0.000 A 
HETATM   23  C11 UNL     1      11.725   2.727   6.865  1.00  0.00     0.001 A 
HETATM   24  C12 UNL     1      11.638   3.526   7.992  1.00  0.00     0.014 A 
ENDBRANCH   3  19
TORSDOF 6
ENDMDL
MODEL 2
REMARK VINA RESULT: -8.175204065      0.047      1.121
REMARK  6 active torsions:
REMARK  status: ('A' for Active; 'I' for Inactive)
REMARK    1  A    between atoms: C1_4  and  C2_6 
REMARK    2  A    between atoms: C2_6  and  N3_7 
REMARK    3  A    between atoms: N3_7  and  C3_10 
REMARK    4  A    between atoms: C3_10  and  C4_11 
REMARK    5  A    between atoms: C4_11  and  N4_12 
REMARK    6  A    between atoms: C6_14  and  C7_15 
ROOT
HETATM    1  N4  UNL     1      11.166   6.214  11.306  1.00  0.00    -0.285 N 
HETATM    2  C5  UNL     1      11.126   5.183  10.446  1.00  0.00     0.143 A 
HETATM    3  C6  UNL     1      11.498   5.625   9.189  1.00  0.00     0.076 A 
HETATM    4  N5  UNL     1      11.753   6.936   9.347  1.00  0.00    -0.284 N 
ATOM      5  H5  UNL     1      12.055   7.571   8.609  1.00  0.00     0.188 HD
HETATM    6  N6  UNL     1      11.549   7.274  10.622  1.00  0.00    -0.240 N 
ATOM      7  H6  UNL     1      11.672   8.210  11.009  1.00  0.00     0.208 HD
ENDROOT
BRANCH   1   8
HETATM    8  C4  UNL     1      10.858   6.213  12.719  1.00  0.00     0.177 C 
BRANCH   8   9
HETATM    9  C3  UNL     1       9.366   6.176  12.864  1.00  0.00     0.254 C 
BRANCH   9  10
HETATM   10  N3  UNL     1       8.747   7.476  12.817  1.00  0.00    -0.067 N 
ATOM     11  H32 UNL     1       7.872   7.487  12.292  1.00  0.00     0.277 HD
ATOM     12  H31 UNL     1       9.254   8.143  12.235  1.00  0.00     0.277 HD
BRANCH  10  13
HETATM   13  C2  UNL     1       8.593   7.918  14.203  1.00  0.00     0.304 C 
BRANCH  13  14
HETATM   14  C1  UNL     1       9.281   9.206  14.424  1.00  0.00     0.112 C 
HETATM   15  N1  UNL     1       8.961  10.012  15.375  1.00  0.00    -0.390 N 
ATOM     16  H12 UNL     1       9.437  10.901  15.528  1.00  0.00     0.157 HD
ATOM     17  H11 UNL     1       8.204   9.767  16.012  1.00  0.00     0.157 HD
HETATM   18  N2  UNL     1      10.336   9.547  13.536  1.00  0.00    -0.086 NA
ENDBRANCH  13  14
ENDBRANCH  10  13
ENDBRANCH   9  10
ENDBRANCH   8   9
ENDBRANCH   1   8
BRANCH   3  19
HETATM   19  C7  UNL     1      11.588   4.829   7.968  1.00  0.00    -0.007 A 
HETATM   20  C8  UNL     1      11.614   3.455   7.976  1.00  0.00     0.014 A 
HETATM   21  C9  UNL     1      11.698   2.740   6.815  1.00  0.00     0.001 A 
HETATM   22  C10 UNL     1      11.761   3.389   5.595  1.00  0.00     0.000 A 
HETATM   23  C11 UNL     1      11.739   4.774   5.544  1.00  0.00     0.001 A 
HETATM   24  C12 UNL     1      11.652   5.460   6.743  1.00  0.00     0.014 A 
ENDBRANCH   3  19
TORSDOF 6
ENDMDL
MODEL 3
REMARK VINA RESULT: -7.804749143      1.425      2.132
REMARK  6 active torsions:
REMARK  status: ('A' for Active; 'I' for Inactive)
REMARK    1  A    between atoms: C1_4  and  C2_6 
REMARK    2  A    between atoms: C2_6  and  N3_7 
REMARK    3  A    between atoms: N3_7  and  C3_10 
REMARK    4  A    between atoms: C3_10  and  C4_11 
REMARK    5  A    between atoms: C4_11  and  N4_12 
REMARK    6  A    between atoms: C6_14  and  C7_15 
ROOT
HETATM    1  N4  UNL     1      10.875   4.762  11.778  1.00  0.00    -0.285 N 
HETATM    2  C5  UNL     1      11.284   5.192  10.573  1.00  0.00     0.143 A 
HETATM    3  C6  UNL     1      11.111   4.179   9.647  1.00  0.00     0.076 A 
HETATM    4  N5  UNL     1      10.593   3.156  10.349  1.00  0.00    -0.284 N 
ATOM      5  H5  UNL     1      10.344   2.244   9.966  1.00  0.00     0.188 HD
HETATM    6  N6  UNL     1      10.458   3.521  11.626  1.00  0.00    -0.240 N 
ATOM      7  H6  UNL     1      10.087   2.930  12.370  1.00  0.00     0.208 HD
ENDROOT
BRANCH   1   8
HETATM    8  C4  UNL     1      10.872   5.483  13.032  1.00  0.00     0.177 C 
BRANCH   8   9
HETATM    9  C3  UNL     1      11.063   6.939  12.726  1.00  0.00     0.254 C 
BRANCH   9  10
HETATM   10  N3  UNL     1       9.838   7.696  12.727  1.00  0.00    -0.067 N 
ATOM     11  H32 UNL     1       9.020   7.138  12.969  1.00  0.00     0.277 HD
ATOM     12  H31 UNL     1       9.533   7.971  11.792  1.00  0.00     0.277 HD
BRANCH  10  13
HETATM   13  C2  UNL     1      10.046   8.832  13.624  1.00  0.00     0.304 C 
BRANCH  13  14
HETATM   14  C1  UNL     1       8.960   8.922  14.620  1.00  0.00     0.112 C 
HETATM   15  N1  UNL     1       7.949   8.125  14.622  1.00  0.00    -0.390 N 
ATOM     16  H12 UNL     1       7.199   8.186  15.311  1.00  0.00     0.157 HD
ATOM     17  H11 UNL     1       7.879   7.395  13.913  1.00  0.00     0.157 HD
HETATM   18  N2  UNL     1       9.057   9.939  15.607  1.00  0.00    -0.086 NA
ENDBRANCH  13  14
ENDBRANCH  10  13
ENDBRANCH   9  10
ENDBRANCH   8   9
ENDBRANCH   1   8
BRANCH   3  19
HETATM   19  C7  UNL     1      11.428   4.228   8.223  1.00  0.00    -0.007 A 
HETATM   20  C8  UNL     1      11.604   3.099   7.460  1.00  0.00     0.014 A 
HETATM   21  C9  UNL     1      11.900   3.180   6.129  1.00  0.00     0.001 A 
HETATM   22  C10 UNL     1      12.030   4.411   5.514  1.00  0.00     0.000 A 
HETATM   23  C11 UNL     1      11.861   5.575   6.248  1.00  0.00     0.001 A 
HETATM   24  C12 UNL     1      11.562   5.449   7.593  1.00  0.00     0.014 A 
ENDBRANCH   3  19
TORSDOF 6
ENDMDL
MODEL 4
REMARK VINA RESULT: -7.786712903      1.429      1.863
REMARK  6 active torsions:
REMARK  status: ('A' for Active; 'I' for Inactive)
REMARK    1  A    between atoms: C1_4  and  C2_6 
REMARK    2  A    between atoms: C2_6  and  N3_7 
REMARK    3  A    between atoms: N3_7  and  C3_10 
REMARK    4  A    between atoms: C3_10  and  C4_11 
REMARK    5  A    between atoms: C4_11  and  N4_12 
REMARK    6  A    between atoms: C6_14  and  C7_15 
ROOT
HETATM    1  N4  UNL     1      10.886   4.778  11.784  1.00  0.00    -0.285 N 
HETATM    2  C5  UNL     1      11.293   5.227  10.585  1.00  0.00     0.143 A 
HETATM    3  C6  UNL     1      11.121   4.229   9.643  1.00  0.00     0.076 A 
HETATM    4  N5  UNL     1      10.605   3.194  10.329  1.00  0.00    -0.284 N 
ATOM      5  H5  UNL     1      10.355   2.289   9.932  1.00  0.00     0.188 HD
HETATM    6  N6  UNL     1      10.470   3.539  11.612  1.00  0.00    -0.240 N 
ATOM      7  H6  UNL     1      10.100   2.936  12.347  1.00  0.00     0.208 HD
ENDROOT
BRANCH   1   8
HETATM    8  C4  UNL     1      10.884   5.478  13.049  1.00  0.00     0.177 C 
BRANCH   8   9
HETATM    9  C3  UNL     1      11.077   6.938  12.766  1.00  0.00     0.254 C 
BRANCH   9  10
HETATM   10  N3  UNL     1       9.849   7.691  12.744  1.00  0.00    -0.067 N 
ATOM     11  H32 UNL     1       9.030   7.133  12.984  1.00  0.00     0.277 HD
ATOM     12  H31 UNL     1       9.554   7.953  11.804  1.00  0.00     0.277 HD
BRANCH  10  13
HETATM   13  C2  UNL     1      10.043   8.839  13.630  1.00  0.00     0.304 C 
BRANCH  13  14
HETATM   14  C1  UNL     1       8.959   8.923  14.628  1.00  0.00     0.112 C 
HETATM   15  N1  UNL     1       7.949   8.124  14.629  1.00  0.00    -0.390 N 
ATOM     16  H12 UNL     1       7.200   8.182  15.319  1.00  0.00     0.157 HD
ATOM     17  H11 UNL     1       7.879   7.398  13.917  1.00  0.00     0.157 HD
HETATM   18  N2  UNL     1       9.056   9.935  15.620  1.00  0.00    -0.086 NA
ENDBRANCH  13  14
ENDBRANCH  10  13
ENDBRANCH   9  10
ENDBRANCH   8   9
ENDBRANCH   1   8
BRANCH   3  19
HETATM   19  C7  UNL     1      11.436   4.301   8.219  1.00  0.00    -0.007 A 
HETATM   20  C8  UNL     1      11.588   5.490   7.550  1.00  0.00     0.014 A 
HETATM   21  C9  UNL     1      11.884   5.522   6.216  1.00  0.00     0.001 A 
HETATM   22  C10 UNL     1      12.037   4.346   5.504  1.00  0.00     0.000 A 
HETATM   23  C11 UNL     1      11.892   3.124   6.143  1.00  0.00     0.001 A 
HETATM   24  C12 UNL     1      11.593   3.137   7.494  1.00  0.00     0.014 A 
ENDBRANCH   3  19
TORSDOF 6
ENDMDL
MODEL 5
REMARK VINA RESULT: -6.996877727      1.701      2.845
REMARK  6 active torsions:
REMARK  status: ('A' for Active; 'I' for Inactive)
REMARK    1  A    between atoms: C1_4  and  C2_6 
REMARK    2  A    between atoms: C2_6  and  N3_7 
REMARK    3  A    between atoms: N3_7  and  C3_10 
REMARK    4  A    between atoms: C3_10  and  C4_11 
REMARK    5  A    between atoms: C4_11  and  N4_12 
REMARK    6  A    between atoms: C6_14  and  C7_15 
ROOT
HETATM    1  N4  UNL     1      11.954   6.188   8.587  1.00  0.00    -0.285 N 
HETATM    2  C5  UNL     1      12.121   4.861   8.462  1.00  0.00     0.143 A 
HETATM    3  C6  UNL     1      12.419   4.562   7.145  1.00  0.00     0.076 A 
HETATM    4  N5  UNL     1      12.418   5.751   6.515  1.00  0.00    -0.284 N 
ATOM      5  H5  UNL     1      12.604   5.892   5.522  1.00  0.00     0.188 HD
HETATM    6  N6  UNL     1      12.138   6.716   7.394  1.00  0.00    -0.240 N 
ATOM      7  H6  UNL     1      12.076   7.710   7.175  1.00  0.00     0.208 HD
ENDROOT
BRANCH   1   8
HETATM    8  C4  UNL     1      11.633   6.941   9.779  1.00  0.00     0.177 C 
BRANCH   8   9
HETATM    9  C3  UNL     1      11.173   5.971  10.827  1.00  0.00     0.254 C 
BRANCH   9  10
HETATM   10  N3  UNL     1      11.161   6.520  12.159  1.00  0.00    -0.067 N 
ATOM     11  H32 UNL     1      11.290   7.532  12.178  1.00  0.00     0.277 HD
ATOM     12  H31 UNL     1      11.988   6.275  12.703  1.00  0.00     0.277 HD
BRANCH  10  13
HETATM   13  C2  UNL     1       9.910   6.086  12.781  1.00  0.00     0.304 C 
BRANCH  13  14
HETATM   14  C1  UNL     1       9.097   7.248  13.193  1.00  0.00     0.112 C 
HETATM   15  N1  UNL     1       7.811   7.247  13.152  1.00  0.00    -0.390 N 
ATOM     16  H12 UNL     1       7.249   8.049  13.438  1.00  0.00     0.157 HD
ATOM     17  H11 UNL     1       7.316   6.418  12.824  1.00  0.00     0.157 HD
HETATM   18  N2  UNL     1       9.787   8.403  13.650  1.00  0.00    -0.086 NA
ENDBRANCH  13  14
ENDBRANCH  10  13
ENDBRANCH   9  10
ENDBRANCH   8   9
ENDBRANCH   1   8
BRANCH   3  19
HETATM   19  C7  UNL     1      12.674   3.241   6.579  1.00  0.00    -0.007 A 
HETATM   20  C8  UNL     1      13.915   2.652   6.595  1.00  0.00     0.014 A 
HETATM   21  C9  UNL     1      14.120   1.413   6.057  1.00  0.00     0.001 A 
HETATM   22  C10 UNL     1      13.073   0.719   5.478  1.00  0.00     0.000 A 
HETATM   23  C11 UNL     1      11.806   1.279   5.441  1.00  0.00     0.001 A 
HETATM   24  C12 UNL     1      11.641   2.534   5.998  1.00  0.00     0.014 A 
ENDBRANCH   3  19
TORSDOF 6
ENDMDL
