MODEL 1
REMARK VINA RESULT: -7.201049089      0.000      0.000
REMARK  7 active torsions:
REMARK  status: ('A' for Active; 'I' for Inactive)
REMARK    1  A    between atoms: C2_2  and  C3_3 
REMARK    2  A    between atoms: C3_3  and  C4_4 
REMARK    3  A    between atoms: C4_4  and  C5_5 
REMARK    4  A    between atoms: C5_5  and  N1_6 
REMARK    5  A    between atoms: N1_6  and  C6_8 
REMARK    6  A    between atoms: C6_8  and  C7_9 
REMARK    7  A    between atoms: C9_13  and  N3_14 
ROOT
HETATM    1  C7  UNL     1      12.136   5.895   9.043  1.00  0.00     0.140 C 
HETATM    2  C8  UNL     1      11.601   4.618   9.566  1.00  0.00     0.153 C 
HETATM    3  N2  UNL     1      11.190   4.925  10.909  1.00  0.00    -0.360 N 
ATOM      4  H2  UNL     1      10.998   4.230  11.630  1.00  0.00     0.162 HD
HETATM    5  C9  UNL     1      11.098   6.194  11.075  1.00  0.00     0.174 C 
HETATM    6  N5  UNL     1      11.432   6.884   9.879  1.00  0.00    -0.352 N 
ATOM      7  H5  UNL     1      11.228   7.857   9.648  1.00  0.00     0.163 HD
ENDROOT
BRANCH   1   8
HETATM    8  C6  UNL     1      11.882   6.137   7.601  1.00  0.00     0.087 C 
BRANCH   8   9
HETATM    9  N1  UNL     1      11.201   5.139   6.924  1.00  0.00    -0.380 N 
ATOM     10  H1  UNL     1      10.300   4.842   7.300  1.00  0.00     0.164 HD
BRANCH   9  11
HETATM   11  C5  UNL     1      11.657   4.512   5.767  1.00  0.00     0.060 C 
BRANCH  11  12
HETATM   12  C4  UNL     1      11.536   3.003   5.775  1.00  0.00     0.048 C 
BRANCH  12  13
HETATM   13  C3  UNL     1      12.512   2.367   6.721  1.00  0.00     0.031 C 
BRANCH  13  14
HETATM   14  C2  UNL     1      13.874   2.894   6.509  1.00  0.00    -0.037 C 
HETATM   15  C1  UNL     1      14.922   2.101   6.516  1.00  0.00     0.007 C 
ENDBRANCH  13  14
ENDBRANCH  12  13
ENDBRANCH  11  12
ENDBRANCH   9  11
ENDBRANCH   8   9
ENDBRANCH   1   8
BRANCH   5  16
HETATM   16  N3  UNL     1      10.706   6.735  12.328  1.00  0.00    -0.350 N 
HETATM   17  C10 UNL     1       9.554   6.197  13.005  1.00  0.00     0.153 C 
HETATM   18  C11 UNL     1       8.590   7.346  13.309  1.00  0.00     0.252 C 
HETATM   19  N4  UNL     1       9.240   8.425  13.980  1.00  0.00    -0.072 N 
HETATM   20  C12 UNL     1      10.349   8.909  13.227  1.00  0.00     0.252 C 
ATOM     21  H42 UNL     1       8.586   9.173  14.207  1.00  0.00     0.277 HD
ATOM     22  H41 UNL     1       9.516   8.165  14.928  1.00  0.00     0.277 HD
HETATM   23  C13 UNL     1      11.410   7.823  12.953  1.00  0.00     0.153 C 
ENDBRANCH   5  16
TORSDOF 7
ENDMDL
MODEL 2
REMARK VINA RESULT: -7.058473480      0.831      1.175
REMARK  7 active torsions:
REMARK  status: ('A' for Active; 'I' for Inactive)
REMARK    1  A    between atoms: C2_2  and  C3_3 
REMARK    2  A    between atoms: C3_3  and  C4_4 
REMARK    3  A    between atoms: C4_4  and  C5_5 
REMARK    4  A    between atoms: C5_5  and  N1_6 
REMARK    5  A    between atoms: N1_6  and  C6_8 
REMARK    6  A    between atoms: C6_8  and  C7_9 
REMARK    7  A    between atoms: C9_13  and  N3_14 
ROOT
HETATM    1  C7  UNL     1      12.236   6.089   9.027  1.00  0.00     0.140 C 
HETATM    2  C8  UNL     1      11.654   4.799   9.458  1.00  0.00     0.153 C 
HETATM    3  N2  UNL     1      11.207   5.039  10.803  1.00  0.00    -0.360 N 
ATOM      4  H2  UNL     1      10.975   4.310  11.476  1.00  0.00     0.162 HD
HETATM    5  C9  UNL     1      11.141   6.300  11.039  1.00  0.00     0.174 C 
HETATM    6  N5  UNL     1      11.530   7.048   9.896  1.00  0.00    -0.352 N 
ATOM      7  H5  UNL     1      11.357   8.037   9.716  1.00  0.00     0.163 HD
ENDROOT
BRANCH   1   8
HETATM    8  C6  UNL     1      12.035   6.420   7.594  1.00  0.00     0.087 C 
BRANCH   8   9
HETATM    9  N1  UNL     1      12.462   5.470   6.681  1.00  0.00    -0.380 N 
ATOM     10  H1  UNL     1      13.406   5.099   6.790  1.00  0.00     0.164 HD
BRANCH   9  11
HETATM   11  C5  UNL     1      11.694   4.984   5.625  1.00  0.00     0.060 C 
BRANCH  11  12
HETATM   12  C4  UNL     1      11.256   3.542   5.772  1.00  0.00     0.048 C 
BRANCH  12  13
HETATM   13  C3  UNL     1      12.333   2.687   6.373  1.00  0.00     0.031 C 
BRANCH  13  14
HETATM   14  C2  UNL     1      12.185   1.280   5.956  1.00  0.00    -0.037 C 
HETATM   15  C1  UNL     1      11.403   0.942   4.955  1.00  0.00     0.007 C 
ENDBRANCH  13  14
ENDBRANCH  12  13
ENDBRANCH  11  12
ENDBRANCH   9  11
ENDBRANCH   8   9
ENDBRANCH   1   8
BRANCH   5  16
HETATM   16  N3  UNL     1      10.722   6.778  12.308  1.00  0.00    -0.350 N 
HETATM   17  C10 UNL     1       9.583   6.177  12.953  1.00  0.00     0.153 C 
HETATM   18  C11 UNL     1       8.580   7.282  13.294  1.00  0.00     0.252 C 
HETATM   19  N4  UNL     1       9.190   8.354  14.012  1.00  0.00    -0.072 N 
HETATM   20  C12 UNL     1      10.289   8.903  13.288  1.00  0.00     0.252 C 
ATOM     21  H42 UNL     1       8.510   9.072  14.262  1.00  0.00     0.277 HD
ATOM     22  H41 UNL     1       9.467   8.066  14.951  1.00  0.00     0.277 HD
HETATM   23  C13 UNL     1      11.386   7.862  12.982  1.00  0.00     0.153 C 
ENDBRANCH   5  16
TORSDOF 7
ENDMDL
MODEL 3
REMARK VINA RESULT: -6.450016524      1.135      1.819
REMARK  7 active torsions:
REMARK  status: ('A' for Active; 'I' for Inactive)
REMARK    1  A    between atoms: C2_2  and  C3_3 
REMARK    2  A    between atoms: C3_3  and  C4_4 
REMARK    3  A    between atoms: C4_4  and  C5_5 
REMARK    4  A    between atoms: C5_5  and  N1_6 
REMARK    5  A    between atoms: N1_6  and  C6_8 
REMARK    6  A    between atoms: C6_8  and  C7_9 
REMARK    7  A    between atoms: C9_13  and  N3_14 
ROOT
HETATM    1  C7  UNL     1      11.320   5.267   8.938  1.00  0.00     0.140 C 
HETATM    2  C8  UNL     1      11.963   6.597   8.854  1.00  0.00     0.153 C 
HETATM    3  N2  UNL     1      11.602   7.248  10.084  1.00  0.00    -0.360 N 
ATOM      4  H2  UNL     1      11.676   8.251  10.253  1.00  0.00     0.162 HD
HETATM    5  C9  UNL     1      11.175   6.392  10.940  1.00  0.00     0.174 C 
HETATM    6  N5  UNL     1      11.196   5.080  10.395  1.00  0.00    -0.352 N 
ATOM      7  H5  UNL     1      11.139   4.198  10.904  1.00  0.00     0.163 HD
ENDROOT
BRANCH   1   8
HETATM    8  C6  UNL     1      12.089   4.158   8.322  1.00  0.00     0.087 C 
BRANCH   8   9
HETATM    9  N1  UNL     1      12.677   4.429   7.097  1.00  0.00    -0.380 N 
ATOM     10  H1  UNL     1      13.604   4.856   7.101  1.00  0.00     0.164 HD
BRANCH   9  11
HETATM   11  C5  UNL     1      12.094   4.160   5.861  1.00  0.00     0.060 C 
BRANCH  11  12
HETATM   12  C4  UNL     1      11.409   2.813   5.763  1.00  0.00     0.048 C 
BRANCH  12  13
HETATM   13  C3  UNL     1      12.384   1.679   5.893  1.00  0.00     0.031 C 
BRANCH  13  14
HETATM   14  C2  UNL     1      11.920   0.495   5.144  1.00  0.00    -0.037 C 
HETATM   15  C1  UNL     1      10.797   0.516   4.461  1.00  0.00     0.007 C 
ENDBRANCH  13  14
ENDBRANCH  12  13
ENDBRANCH  11  12
ENDBRANCH   9  11
ENDBRANCH   8   9
ENDBRANCH   1   8
BRANCH   5  16
HETATM   16  N3  UNL     1      10.760   6.806  12.233  1.00  0.00    -0.350 N 
HETATM   17  C10 UNL     1       9.654   6.139  12.872  1.00  0.00     0.153 C 
HETATM   18  C11 UNL     1       8.619   7.193  13.271  1.00  0.00     0.252 C 
HETATM   19  N4  UNL     1       9.201   8.259  14.020  1.00  0.00    -0.072 N 
HETATM   20  C12 UNL     1      10.267   8.874  13.301  1.00  0.00     0.252 C 
ATOM     21  H42 UNL     1       8.501   8.941  14.309  1.00  0.00     0.277 HD
ATOM     22  H41 UNL     1       9.504   7.946  14.943  1.00  0.00     0.277 HD
HETATM   23  C13 UNL     1      11.396   7.887  12.938  1.00  0.00     0.153 C 
ENDBRANCH   5  16
TORSDOF 7
ENDMDL
MODEL 4
REMARK VINA RESULT: -6.429812334      0.852      1.408
REMARK  7 active torsions:
REMARK  status: ('A' for Active; 'I' for Inactive)
REMARK    1  A    between atoms: C2_2  and  C3_3 
REMARK    2  A    between atoms: C3_3  and  C4_4 
REMARK    3  A    between atoms: C4_4  and  C5_5 
REMARK    4  A    between atoms: C5_5  and  N1_6 
REMARK    5  A    between atoms: N1_6  and  C6_8 
REMARK    6  A    between atoms: C6_8  and  C7_9 
REMARK    7  A    between atoms: C9_13  and  N3_14 
ROOT
HETATM    1  C7  UNL     1      11.266   5.350   8.681  1.00  0.00     0.140 C 
HETATM    2  C8  UNL     1      11.932   6.670   8.606  1.00  0.00     0.153 C 
HETATM    3  N2  UNL     1      11.635   7.292   9.868  1.00  0.00    -0.360 N 
ATOM      4  H2  UNL     1      11.735   8.288  10.061  1.00  0.00     0.162 HD
HETATM    5  C9  UNL     1      11.225   6.420  10.717  1.00  0.00     0.174 C 
HETATM    6  N5  UNL     1      11.199   5.124  10.136  1.00  0.00    -0.352 N 
ATOM      7  H5  UNL     1      11.145   4.229  10.622  1.00  0.00     0.163 HD
ENDROOT
BRANCH   1   8
HETATM    8  C6  UNL     1      11.987   4.245   8.002  1.00  0.00     0.087 C 
BRANCH   8   9
HETATM    9  N1  UNL     1      11.683   4.045   6.666  1.00  0.00    -0.380 N 
ATOM     10  H1  UNL     1      11.447   4.865   6.107  1.00  0.00     0.164 HD
BRANCH   9  11
HETATM   11  C5  UNL     1      11.675   2.806   6.031  1.00  0.00     0.060 C 
BRANCH  11  12
HETATM   12  C4  UNL     1      12.409   1.709   6.775  1.00  0.00     0.048 C 
BRANCH  12  13
HETATM   13  C3  UNL     1      13.600   1.213   6.008  1.00  0.00     0.031 C 
BRANCH  13  14
HETATM   14  C2  UNL     1      14.834   1.890   6.450  1.00  0.00    -0.037 C 
HETATM   15  C1  UNL     1      15.888   1.207   6.835  1.00  0.00     0.007 C 
ENDBRANCH  13  14
ENDBRANCH  12  13
ENDBRANCH  11  12
ENDBRANCH   9  11
ENDBRANCH   8   9
ENDBRANCH   1   8
BRANCH   5  16
HETATM   16  N3  UNL     1      10.872   6.805  12.037  1.00  0.00    -0.350 N 
HETATM   17  C10 UNL     1       9.820   6.102  12.725  1.00  0.00     0.153 C 
HETATM   18  C11 UNL     1       8.783   7.124  13.196  1.00  0.00     0.252 C 
HETATM   19  N4  UNL     1       9.380   8.193  13.929  1.00  0.00    -0.072 N 
HETATM   20  C12 UNL     1      10.389   8.845  13.163  1.00  0.00     0.252 C 
ATOM     21  H42 UNL     1       8.680   8.854  14.266  1.00  0.00     0.277 HD
ATOM     22  H41 UNL     1       9.740   7.875  14.829  1.00  0.00     0.277 HD
HETATM   23  C13 UNL     1      11.520   7.892  12.723  1.00  0.00     0.153 C 
ENDBRANCH   5  16
TORSDOF 7
ENDMDL
MODEL 5
REMARK VINA RESULT: -6.308920478      1.498      2.460
REMARK  7 active torsions:
REMARK  status: ('A' for Active; 'I' for Inactive)
REMARK    1  A    between atoms: C2_2  and  C3_3 
REMARK    2  A    between atoms: C3_3  and  C4_4 
REMARK    3  A    between atoms: C4_4  and  C5_5 
REMARK    4  A    between atoms: C5_5  and  N1_6 
REMARK    5  A    between atoms: N1_6  and  C6_8 
REMARK    6  A    between atoms: C6_8  and  C7_9 
REMARK    7  A    between atoms: C9_13  and  N3_14 
ROOT
HETATM    1  C7  UNL     1      11.598   5.187  11.074  1.00  0.00     0.140 C 
HETATM    2  C8  UNL     1      10.862   4.333  12.032  1.00  0.00     0.153 C 
HETATM    3  N2  UNL     1      10.128   5.261  12.848  1.00  0.00    -0.360 N 
ATOM      4  H2  UNL     1       9.707   5.034  13.748  1.00  0.00     0.162 HD
HETATM    5  C9  UNL     1      10.078   6.415  12.288  1.00  0.00     0.174 C 
HETATM    6  N5  UNL     1      10.762   6.401  11.043  1.00  0.00    -0.352 N 
ATOM      7  H5  UNL     1      10.691   7.085  10.290  1.00  0.00     0.163 HD
ENDROOT
BRANCH   1   8
HETATM    8  C6  UNL     1      11.754   4.613   9.714  1.00  0.00     0.087 C 
BRANCH   8   9
HETATM    9  N1  UNL     1      12.404   5.409   8.785  1.00  0.00    -0.380 N 
ATOM     10  H1  UNL     1      12.563   6.386   9.028  1.00  0.00     0.164 HD
BRANCH   9  11
HETATM   11  C5  UNL     1      12.855   4.970   7.543  1.00  0.00     0.060 C 
BRANCH  11  12
HETATM   12  C4  UNL     1      12.096   5.532   6.359  1.00  0.00     0.048 C 
BRANCH  12  13
HETATM   13  C3  UNL     1      11.396   4.456   5.580  1.00  0.00     0.031 C 
BRANCH  13  14
HETATM   14  C2  UNL     1      11.743   3.118   6.096  1.00  0.00    -0.037 C 
HETATM   15  C1  UNL     1      11.436   2.028   5.430  1.00  0.00     0.007 C 
ENDBRANCH  13  14
ENDBRANCH  12  13
ENDBRANCH  11  12
ENDBRANCH   9  11
ENDBRANCH   8   9
ENDBRANCH   1   8
BRANCH   5  16
HETATM   16  N3  UNL     1       9.401   7.495  12.913  1.00  0.00    -0.350 N 
HETATM   17  C10 UNL     1      10.101   8.732  13.148  1.00  0.00     0.153 C 
HETATM   18  C11 UNL     1       9.987   9.078  14.634  1.00  0.00     0.252 C 
HETATM   19  N4  UNL     1       8.633   9.051  15.087  1.00  0.00    -0.072 N 
HETATM   20  C12 UNL     1       8.030   7.783  14.836  1.00  0.00     0.252 C 
ATOM     21  H42 UNL     1       8.561   9.312  16.070  1.00  0.00     0.277 HD
ATOM     22  H41 UNL     1       8.087   9.811  14.682  1.00  0.00     0.277 HD
HETATM   23  C13 UNL     1       8.031   7.402  13.342  1.00  0.00     0.153 C 
ENDBRANCH   5  16
TORSDOF 7
ENDMDL
