MODEL 1
REMARK VINA RESULT: -7.156075004      0.000      0.000
REMARK  7 active torsions:
REMARK  status: ('A' for Active; 'I' for Inactive)
REMARK    1  A    between atoms: C3_7  and  C4_8 
REMARK    2  A    between atoms: C4_8  and  C5_9 
REMARK    3  A    between atoms: C5_9  and  S1_10 
REMARK    4  A    between atoms: S1_10  and  C6_11 
REMARK    5  A    between atoms: C6_11  and  C7_12 
REMARK    6  A    between atoms: C7_12  and  N3_13 
REMARK    7  A    between atoms: N3_13  and  C8_15 
ROOT
HETATM    1  C7  UNL     1      10.910   6.666  12.329  1.00  0.00     0.148 C 
ENDROOT
BRANCH   1   2
HETATM    2  C6  UNL     1      10.898   5.296  12.940  1.00  0.00     0.094 C 
BRANCH   2   3
HETATM    3  S1  UNL     1      10.884   4.054  11.620  1.00  0.00    -0.167 SA
BRANCH   3   4
HETATM    4  C5  UNL     1      11.505   4.746  10.063  1.00  0.00     0.078 C 
BRANCH   4   5
HETATM    5  C4  UNL     1      11.009   3.993   8.871  1.00  0.00     0.051 C 
BRANCH   5   6
HETATM    6  C3  UNL     1      11.420   4.609   7.592  1.00  0.00    -0.024 A 
HETATM    7  C1  UNL     1      11.352   4.090   6.313  1.00  0.00     0.115 A 
HETATM    8  N1  UNL     1      11.839   5.012   5.475  1.00  0.00    -0.312 N 
HETATM    9  N2  UNL     1      12.218   6.094   6.145  1.00  0.00    -0.312 N 
ATOM     10  H1  UNL     1      11.910   4.899   4.463  1.00  0.00     0.186 HD
HETATM   11  C2  UNL     1      11.961   5.856   7.462  1.00  0.00     0.115 A 
ATOM     12  H2  UNL     1      12.624   6.942   5.750  1.00  0.00     0.186 HD
ENDBRANCH   5   6
ENDBRANCH   4   5
ENDBRANCH   3   4
ENDBRANCH   2   3
ENDBRANCH   1   2
BRANCH   1  13
HETATM   13  N3  UNL     1       9.666   7.354  12.422  1.00  0.00    -0.223 N 
ATOM     14  H3  UNL     1       9.026   7.268  11.633  1.00  0.00     0.177 HD
BRANCH  13  15
HETATM   15  C8  UNL     1       9.283   8.072  13.411  1.00  0.00     0.709 A 
HETATM   16  N4  UNL     1       8.192   7.820  14.154  1.00  0.00    -0.115 N 
HETATM   17  N5  UNL     1       8.113   8.779  15.091  1.00  0.00    -0.213 N 
ATOM     18  H4  UNL     1       7.543   7.043  14.030  1.00  0.00     0.207 HD
HETATM   19  N6  UNL     1       9.119   9.619  14.955  1.00  0.00    -0.213 N 
ATOM     20  H5  UNL     1       7.384   8.847  15.802  1.00  0.00     0.210 HD
HETATM   21  N7  UNL     1       9.830   9.184  13.929  1.00  0.00    -0.115 N 
ATOM     22  H6  UNL     1       9.312  10.441  15.526  1.00  0.00     0.210 HD
ATOM     23  H7  UNL     1      10.676   9.632  13.579  1.00  0.00     0.207 HD
ENDBRANCH  13  15
ENDBRANCH   1  13
TORSDOF 7
ENDMDL
MODEL 2
REMARK VINA RESULT: -7.130123222      0.739      1.135
REMARK  7 active torsions:
REMARK  status: ('A' for Active; 'I' for Inactive)
REMARK    1  A    between atoms: C3_7  and  C4_8 
REMARK    2  A    between atoms: C4_8  and  C5_9 
REMARK    3  A    between atoms: C5_9  and  S1_10 
REMARK    4  A    between atoms: S1_10  and  C6_11 
REMARK    5  A    between atoms: C6_11  and  C7_12 
REMARK    6  A    between atoms: C7_12  and  N3_13 
REMARK    7  A    between atoms: N3_13  and  C8_15 
ROOT
HETATM    1  C7  UNL     1      10.931   6.505  12.738  1.00  0.00     0.148 C 
ENDROOT
BRANCH   1   2
HETATM    2  C6  UNL     1      10.212   5.208  12.507  1.00  0.00     0.094 C 
BRANCH   2   3
HETATM    3  S1  UNL     1      11.336   4.037  11.701  1.00  0.00    -0.167 SA
BRANCH   3   4
HETATM    4  C5  UNL     1      10.981   3.903   9.928  1.00  0.00     0.078 C 
BRANCH   4   5
HETATM    5  C4  UNL     1      11.783   4.867   9.115  1.00  0.00     0.051 C 
BRANCH   5   6
HETATM    6  C3  UNL     1      11.724   4.583   7.666  1.00  0.00    -0.024 A 
HETATM    7  C1  UNL     1      11.798   5.462   6.602  1.00  0.00     0.115 A 
HETATM    8  N1  UNL     1      11.698   4.746   5.476  1.00  0.00    -0.312 N 
HETATM    9  N2  UNL     1      11.562   3.455   5.759  1.00  0.00    -0.312 N 
ATOM     10  H1  UNL     1      11.723   5.136   4.534  1.00  0.00     0.186 HD
HETATM   11  C2  UNL     1      11.577   3.342   7.117  1.00  0.00     0.115 A 
ATOM     12  H2  UNL     1      11.463   2.694   5.087  1.00  0.00     0.186 HD
ENDBRANCH   5   6
ENDBRANCH   4   5
ENDBRANCH   3   4
ENDBRANCH   2   3
ENDBRANCH   1   2
BRANCH   1  13
HETATM   13  N3  UNL     1      10.112   7.659  12.578  1.00  0.00    -0.223 N 
ATOM     14  H3  UNL     1      10.014   8.035  11.636  1.00  0.00     0.177 HD
BRANCH  13  15
HETATM   15  C8  UNL     1       9.488   8.265  13.518  1.00  0.00     0.709 A 
HETATM   16  N4  UNL     1       8.318   7.857  14.039  1.00  0.00    -0.115 N 
HETATM   17  N5  UNL     1       7.974   8.736  14.995  1.00  0.00    -0.213 N 
ATOM     18  H4  UNL     1       7.788   7.030  13.760  1.00  0.00     0.207 HD
HETATM   19  N6  UNL     1       8.891   9.677  15.084  1.00  0.00    -0.213 N 
ATOM     20  H5  UNL     1       7.129   8.682  15.565  1.00  0.00     0.210 HD
HETATM   21  N7  UNL     1       9.812   9.387  14.182  1.00  0.00    -0.115 N 
ATOM     22  H6  UNL     1       8.891  10.473  15.723  1.00  0.00     0.210 HD
ATOM     23  H7  UNL     1      10.653   9.939  14.013  1.00  0.00     0.207 HD
ENDBRANCH  13  15
ENDBRANCH   1  13
TORSDOF 7
ENDMDL
MODEL 3
REMARK VINA RESULT: -7.081888812      0.762      1.239
REMARK  7 active torsions:
REMARK  status: ('A' for Active; 'I' for Inactive)
REMARK    1  A    between atoms: C3_7  and  C4_8 
REMARK    2  A    between atoms: C4_8  and  C5_9 
REMARK    3  A    between atoms: C5_9  and  S1_10 
REMARK    4  A    between atoms: S1_10  and  C6_11 
REMARK    5  A    between atoms: C6_11  and  C7_12 
REMARK    6  A    between atoms: C7_12  and  N3_13 
REMARK    7  A    between atoms: N3_13  and  C8_15 
ROOT
HETATM    1  C7  UNL     1      10.955   6.525  12.789  1.00  0.00     0.148 C 
ENDROOT
BRANCH   1   2
HETATM    2  C6  UNL     1      10.215   5.247  12.522  1.00  0.00     0.094 C 
BRANCH   2   3
HETATM    3  S1  UNL     1      11.343   4.056  11.750  1.00  0.00    -0.167 SA
BRANCH   3   4
HETATM    4  C5  UNL     1      10.972   3.851   9.987  1.00  0.00     0.078 C 
BRANCH   4   5
HETATM    5  C4  UNL     1      11.726   4.818   9.133  1.00  0.00     0.051 C 
BRANCH   5   6
HETATM    6  C3  UNL     1      11.679   4.474   7.697  1.00  0.00    -0.024 A 
HETATM    7  C1  UNL     1      11.623   3.229   7.100  1.00  0.00     0.115 A 
HETATM    8  N1  UNL     1      11.596   3.414   5.776  1.00  0.00    -0.312 N 
HETATM    9  N2  UNL     1      11.633   4.711   5.489  1.00  0.00    -0.312 N 
ATOM     10  H1  UNL     1      11.554   2.666   5.084  1.00  0.00     0.186 HD
HETATM   11  C2  UNL     1      11.683   5.379   6.675  1.00  0.00     0.115 A 
ATOM     12  H2  UNL     1      11.625   5.127   4.557  1.00  0.00     0.186 HD
ENDBRANCH   5   6
ENDBRANCH   4   5
ENDBRANCH   3   4
ENDBRANCH   2   3
ENDBRANCH   1   2
BRANCH   1  13
HETATM   13  N3  UNL     1      10.165   7.699  12.622  1.00  0.00    -0.223 N 
ATOM     14  H3  UNL     1      10.144   8.118  11.693  1.00  0.00     0.177 HD
BRANCH  13  15
HETATM   15  C8  UNL     1       9.480   8.272  13.539  1.00  0.00     0.709 A 
HETATM   16  N4  UNL     1       9.823   9.429  14.132  1.00  0.00    -0.115 N 
HETATM   17  N5  UNL     1       8.871   9.717  15.035  1.00  0.00    -0.213 N 
ATOM     18  H4  UNL     1      10.654   9.987  13.933  1.00  0.00     0.207 HD
HETATM   19  N6  UNL     1       7.948   8.776  15.023  1.00  0.00    -0.213 N 
ATOM     20  H5  UNL     1       8.864  10.539  15.639  1.00  0.00     0.210 HD
HETATM   21  N7  UNL     1       8.323   7.898  14.110  1.00  0.00    -0.115 N 
ATOM     22  H6  UNL     1       7.110   8.734  15.604  1.00  0.00     0.210 HD
ATOM     23  H7  UNL     1       7.806   7.052  13.872  1.00  0.00     0.207 HD
ENDBRANCH  13  15
ENDBRANCH   1  13
TORSDOF 7
ENDMDL
MODEL 4
REMARK VINA RESULT: -6.828850600      1.063      1.162
REMARK  7 active torsions:
REMARK  status: ('A' for Active; 'I' for Inactive)
REMARK    1  A    between atoms: C3_7  and  C4_8 
REMARK    2  A    between atoms: C4_8  and  C5_9 
REMARK    3  A    between atoms: C5_9  and  S1_10 
REMARK    4  A    between atoms: S1_10  and  C6_11 
REMARK    5  A    between atoms: C6_11  and  C7_12 
REMARK    6  A    between atoms: C7_12  and  N3_13 
REMARK    7  A    between atoms: N3_13  and  C8_15 
ROOT
HETATM    1  C7  UNL     1      10.859   6.498  12.599  1.00  0.00     0.148 C 
ENDROOT
BRANCH   1   2
HETATM    2  C6  UNL     1      10.669   5.030  12.355  1.00  0.00     0.094 C 
BRANCH   2   3
HETATM    3  S1  UNL     1      11.218   4.629  10.674  1.00  0.00    -0.167 SA
BRANCH   3   4
HETATM    4  C5  UNL     1      11.732   6.119   9.780  1.00  0.00     0.078 C 
BRANCH   4   5
HETATM    5  C4  UNL     1      11.199   6.156   8.384  1.00  0.00     0.051 C 
BRANCH   5   6
HETATM    6  C3  UNL     1      11.781   5.110   7.520  1.00  0.00    -0.024 A 
HETATM    7  C1  UNL     1      11.168   4.337   6.551  1.00  0.00     0.115 A 
HETATM    8  N1  UNL     1      12.095   3.526   6.031  1.00  0.00    -0.312 N 
HETATM    9  N2  UNL     1      13.271   3.733   6.613  1.00  0.00    -0.312 N 
ATOM     10  H1  UNL     1      11.923   2.844   5.292  1.00  0.00     0.186 HD
HETATM   11  C2  UNL     1      13.088   4.716   7.539  1.00  0.00     0.115 A 
ATOM     12  H2  UNL     1      14.144   3.248   6.407  1.00  0.00     0.186 HD
ENDBRANCH   5   6
ENDBRANCH   4   5
ENDBRANCH   3   4
ENDBRANCH   2   3
ENDBRANCH   1   2
BRANCH   1  13
HETATM   13  N3  UNL     1       9.652   7.254  12.561  1.00  0.00    -0.223 N 
ATOM     14  H3  UNL     1       9.089   7.190  11.713  1.00  0.00     0.177 HD
BRANCH  13  15
HETATM   15  C8  UNL     1       9.215   8.006  13.500  1.00  0.00     0.709 A 
HETATM   16  N4  UNL     1       8.120   7.744  14.235  1.00  0.00    -0.115 N 
HETATM   17  N5  UNL     1       7.975   8.749  15.114  1.00  0.00    -0.213 N 
ATOM     18  H4  UNL     1       7.511   6.931  14.142  1.00  0.00     0.207 HD
HETATM   19  N6  UNL     1       8.943   9.628  14.949  1.00  0.00    -0.213 N 
ATOM     20  H5  UNL     1       7.228   8.821  15.805  1.00  0.00     0.210 HD
HETATM   21  N7  UNL     1       9.696   9.171  13.964  1.00  0.00    -0.115 N 
ATOM     22  H6  UNL     1       9.084  10.489  15.477  1.00  0.00     0.210 HD
ATOM     23  H7  UNL     1      10.528   9.639  13.605  1.00  0.00     0.207 HD
ENDBRANCH  13  15
ENDBRANCH   1  13
TORSDOF 7
ENDMDL
MODEL 5
REMARK VINA RESULT: -6.752877523      1.524      1.950
REMARK  7 active torsions:
REMARK  status: ('A' for Active; 'I' for Inactive)
REMARK    1  A    between atoms: C3_7  and  C4_8 
REMARK    2  A    between atoms: C4_8  and  C5_9 
REMARK    3  A    between atoms: C5_9  and  S1_10 
REMARK    4  A    between atoms: S1_10  and  C6_11 
REMARK    5  A    between atoms: C6_11  and  C7_12 
REMARK    6  A    between atoms: C7_12  and  N3_13 
REMARK    7  A    between atoms: N3_13  and  C8_15 
ROOT
HETATM    1  C7  UNL     1      10.889   5.737  12.277  1.00  0.00     0.148 C 
ENDROOT
BRANCH   1   2
HETATM    2  C6  UNL     1      11.277   5.158  10.948  1.00  0.00     0.094 C 
BRANCH   2   3
HETATM    3  S1  UNL     1      11.362   6.489   9.720  1.00  0.00    -0.167 SA
BRANCH   3   4
HETATM    4  C5  UNL     1      12.718   6.213   8.549  1.00  0.00     0.078 C 
BRANCH   4   5
HETATM    5  C4  UNL     1      12.241   6.149   7.134  1.00  0.00     0.051 C 
BRANCH   5   6
HETATM    6  C3  UNL     1      11.974   4.769   6.680  1.00  0.00    -0.024 A 
HETATM    7  C1  UNL     1      11.397   4.335   5.502  1.00  0.00     0.115 A 
HETATM    8  N1  UNL     1      11.362   2.998   5.535  1.00  0.00    -0.312 N 
HETATM    9  N2  UNL     1      11.885   2.549   6.671  1.00  0.00    -0.312 N 
ATOM     10  H1  UNL     1      10.988   2.407   4.793  1.00  0.00     0.186 HD
HETATM   11  C2  UNL     1      12.269   3.641   7.390  1.00  0.00     0.115 A 
ATOM     12  H2  UNL     1      11.980   1.573   6.952  1.00  0.00     0.186 HD
ENDBRANCH   5   6
ENDBRANCH   4   5
ENDBRANCH   3   4
ENDBRANCH   2   3
ENDBRANCH   1   2
BRANCH   1  13
HETATM   13  N3  UNL     1      10.248   7.006  12.193  1.00  0.00    -0.223 N 
ATOM     14  H3  UNL     1      10.480   7.593  11.392  1.00  0.00     0.177 HD
BRANCH  13  15
HETATM   15  C8  UNL     1       9.406   7.472  13.037  1.00  0.00     0.709 A 
HETATM   16  N4  UNL     1       8.199   6.933  13.282  1.00  0.00    -0.115 N 
HETATM   17  N5  UNL     1       7.603   7.689  14.219  1.00  0.00    -0.213 N 
ATOM     18  H4  UNL     1       7.808   6.102  12.839  1.00  0.00     0.207 HD
HETATM   19  N6  UNL     1       8.400   8.681  14.564  1.00  0.00    -0.213 N 
ATOM     20  H5  UNL     1       6.674   7.520  14.606  1.00  0.00     0.210 HD
HETATM   21  N7  UNL     1       9.497   8.545  13.841  1.00  0.00    -0.115 N 
ATOM     22  H6  UNL     1       8.208   9.409  15.252  1.00  0.00     0.210 HD
ATOM     23  H7  UNL     1      10.302   9.169  13.886  1.00  0.00     0.207 HD
ENDBRANCH  13  15
ENDBRANCH   1  13
TORSDOF 7
ENDMDL
