MODEL 1
REMARK VINA RESULT: -6.380648604      0.000      0.000
REMARK  8 active torsions:
REMARK  status: ('A' for Active; 'I' for Inactive)
REMARK    1  A    between atoms: C2_3  and  C3_4 
REMARK    2  A    between atoms: C3_4  and  N2_5 
REMARK    3  A    between atoms: N2_5  and  C4_7 
REMARK    4  A    between atoms: C4_7  and  N3_8 
REMARK    5  A    between atoms: N3_8  and  C5_10 
REMARK    6  A    between atoms: C5_10  and  N4_12 
REMARK    7  A    between atoms: N4_12  and  C6_14 
REMARK    8  A    between atoms: C6_14  and  C7_15 
ROOT
HETATM    1  N1  UNL     1       9.429   9.682  15.091  1.00  0.00    -0.197 NA
HETATM    2  C1  UNL     1       8.837   8.758  14.702  1.00  0.00     0.064 C 
HETATM    3  C2  UNL     1       8.062   7.634  14.231  1.00  0.00     0.168 C 
ENDROOT
BRANCH   3   4
HETATM    4  C3  UNL     1       8.617   6.868  13.088  1.00  0.00     0.071 C 
BRANCH   4   5
HETATM    5  N2  UNL     1       9.824   7.242  12.511  1.00  0.00    -0.386 N 
ATOM      6  H2  UNL     1       9.875   8.112  11.981  1.00  0.00     0.160 HD
BRANCH   5   7
HETATM    7  C4  UNL     1      10.986   6.441  12.645  1.00  0.00     0.244 C 
BRANCH   7   8
HETATM    8  N3  UNL     1      10.502   5.047  12.720  1.00  0.00    -0.351 N 
ATOM      9  H3  UNL     1      10.024   4.709  13.556  1.00  0.00     0.163 HD
BRANCH   8  10
HETATM   10  C5  UNL     1      10.713   4.180  11.603  1.00  0.00     0.168 C 
HETATM   11  S1  UNL     1      10.027   2.679  11.607  1.00  0.00    -0.041 SA
BRANCH  10  12
HETATM   12  N4  UNL     1      11.518   4.652  10.540  1.00  0.00    -0.365 N 
ATOM     13  H4  UNL     1      12.330   5.236  10.741  1.00  0.00     0.161 HD
BRANCH  12  14
HETATM   14  C6  UNL     1      11.200   4.316   9.188  1.00  0.00     0.154 C 
BRANCH  14  15
HETATM   15  C7  UNL     1      11.460   5.364   8.168  1.00  0.00     0.139 C 
HETATM   16  C8  UNL     1      12.925   5.384   7.773  1.00  0.00     0.035 C 
HETATM   17  C9  UNL     1      13.036   4.059   7.055  1.00  0.00     0.029 C 
HETATM   18  C10 UNL     1      11.631   3.869   6.537  1.00  0.00     0.168 C 
HETATM   19  O1  UNL     1      10.867   4.939   6.956  1.00  0.00    -0.384 OA
ENDBRANCH  14  15
ENDBRANCH  12  14
ENDBRANCH  10  12
ENDBRANCH   8  10
ENDBRANCH   7   8
ENDBRANCH   5   7
ENDBRANCH   4   5
ENDBRANCH   3   4
TORSDOF 8
ENDMDL
MODEL 2
REMARK VINA RESULT: -6.303331770      1.371      1.769
REMARK  8 active torsions:
REMARK  status: ('A' for Active; 'I' for Inactive)
REMARK    1  A    between atoms: C2_3  and  C3_4 
REMARK    2  A    between atoms: C3_4  and  N2_5 
REMARK    3  A    between atoms: N2_5  and  C4_7 
REMARK    4  A    between atoms: C4_7  and  N3_8 
REMARK    5  A    between atoms: N3_8  and  C5_10 
REMARK    6  A    between atoms: C5_10  and  N4_12 
REMARK    7  A    between atoms: N4_12  and  C6_14 
REMARK    8  A    between atoms: C6_14  and  C7_15 
ROOT
HETATM    1  N1  UNL     1       9.134   9.192  15.395  1.00  0.00    -0.197 NA
HETATM    2  C1  UNL     1       9.775   9.142  14.425  1.00  0.00     0.064 C 
HETATM    3  C2  UNL     1      10.579   9.125  13.226  1.00  0.00     0.168 C 
ENDROOT
BRANCH   3   4
HETATM    4  C3  UNL     1      11.300   7.866  12.919  1.00  0.00     0.071 C 
BRANCH   4   5
HETATM    5  N2  UNL     1      10.693   6.877  12.155  1.00  0.00    -0.386 N 
ATOM      6  H2  UNL     1      10.362   7.103  11.217  1.00  0.00     0.160 HD
BRANCH   5   7
HETATM    7  C4  UNL     1      10.524   5.560  12.652  1.00  0.00     0.244 C 
BRANCH   7   8
HETATM    8  N3  UNL     1      11.394   4.706  11.819  1.00  0.00    -0.351 N 
ATOM      9  H3  UNL     1      12.409   4.799  11.866  1.00  0.00     0.163 HD
BRANCH   8  10
HETATM   10  C5  UNL     1      10.793   3.746  10.947  1.00  0.00     0.168 C 
HETATM   11  S1  UNL     1       9.944   2.487  11.596  1.00  0.00    -0.041 SA
BRANCH  10  12
HETATM   12  N4  UNL     1      10.965   3.917   9.554  1.00  0.00    -0.365 N 
ATOM     13  H4  UNL     1      10.616   3.208   8.909  1.00  0.00     0.161 HD
BRANCH  12  14
HETATM   14  C6  UNL     1      11.625   5.077   9.043  1.00  0.00     0.154 C 
BRANCH  14  15
HETATM   15  C7  UNL     1      12.873   4.843   8.273  1.00  0.00     0.139 C 
HETATM   16  C8  UNL     1      12.575   4.143   6.959  1.00  0.00     0.035 C 
HETATM   17  C9  UNL     1      11.826   5.234   6.229  1.00  0.00     0.029 C 
HETATM   18  C10 UNL     1      12.414   6.479   6.846  1.00  0.00     0.168 C 
HETATM   19  O1  UNL     1      13.330   6.097   7.805  1.00  0.00    -0.384 OA
ENDBRANCH  14  15
ENDBRANCH  12  14
ENDBRANCH  10  12
ENDBRANCH   8  10
ENDBRANCH   7   8
ENDBRANCH   5   7
ENDBRANCH   4   5
ENDBRANCH   3   4
TORSDOF 8
ENDMDL
MODEL 3
REMARK VINA RESULT: -6.236867541      1.469      1.584
REMARK  8 active torsions:
REMARK  status: ('A' for Active; 'I' for Inactive)
REMARK    1  A    between atoms: C2_3  and  C3_4 
REMARK    2  A    between atoms: C3_4  and  N2_5 
REMARK    3  A    between atoms: N2_5  and  C4_7 
REMARK    4  A    between atoms: C4_7  and  N3_8 
REMARK    5  A    between atoms: N3_8  and  C5_10 
REMARK    6  A    between atoms: C5_10  and  N4_12 
REMARK    7  A    between atoms: N4_12  and  C6_14 
REMARK    8  A    between atoms: C6_14  and  C7_15 
ROOT
HETATM    1  N1  UNL     1       9.006   9.812  15.434  1.00  0.00    -0.197 NA
HETATM    2  C1  UNL     1       8.561   8.847  14.959  1.00  0.00     0.064 C 
HETATM    3  C2  UNL     1       7.967   7.663  14.383  1.00  0.00     0.168 C 
ENDROOT
BRANCH   3   4
HETATM    4  C3  UNL     1       8.635   7.089  13.190  1.00  0.00     0.071 C 
BRANCH   4   5
HETATM    5  N2  UNL     1       9.697   7.755  12.591  1.00  0.00    -0.386 N 
ATOM      6  H2  UNL     1       9.515   8.603  12.054  1.00  0.00     0.160 HD
BRANCH   5   7
HETATM    7  C4  UNL     1      11.027   7.280  12.710  1.00  0.00     0.244 C 
BRANCH   7   8
HETATM    8  N3  UNL     1      11.598   7.350  11.349  1.00  0.00    -0.351 N 
ATOM      9  H3  UNL     1      12.159   8.153  11.064  1.00  0.00     0.163 HD
BRANCH   8  10
HETATM   10  C5  UNL     1      11.352   6.275  10.440  1.00  0.00     0.168 C 
HETATM   11  S1  UNL     1      11.262   4.732  11.020  1.00  0.00    -0.041 SA
BRANCH  10  12
HETATM   12  N4  UNL     1      11.208   6.587   9.068  1.00  0.00    -0.365 N 
ATOM     13  H4  UNL     1      11.086   7.557   8.779  1.00  0.00     0.161 HD
BRANCH  12  14
HETATM   14  C6  UNL     1      11.230   5.550   8.084  1.00  0.00     0.154 C 
BRANCH  14  15
HETATM   15  C7  UNL     1      12.335   5.605   7.091  1.00  0.00     0.139 C 
HETATM   16  C8  UNL     1      13.097   4.293   7.058  1.00  0.00     0.035 C 
HETATM   17  C9  UNL     1      12.047   3.378   6.472  1.00  0.00     0.029 C 
HETATM   18  C10 UNL     1      11.225   4.337   5.646  1.00  0.00     0.168 C 
HETATM   19  O1  UNL     1      11.752   5.603   5.803  1.00  0.00    -0.384 OA
ENDBRANCH  14  15
ENDBRANCH  12  14
ENDBRANCH  10  12
ENDBRANCH   8  10
ENDBRANCH   7   8
ENDBRANCH   5   7
ENDBRANCH   4   5
ENDBRANCH   3   4
TORSDOF 8
ENDMDL
MODEL 4
REMARK VINA RESULT: -6.063247956      1.554      2.009
REMARK  8 active torsions:
REMARK  status: ('A' for Active; 'I' for Inactive)
REMARK    1  A    between atoms: C2_3  and  C3_4 
REMARK    2  A    between atoms: C3_4  and  N2_5 
REMARK    3  A    between atoms: N2_5  and  C4_7 
REMARK    4  A    between atoms: C4_7  and  N3_8 
REMARK    5  A    between atoms: N3_8  and  C5_10 
REMARK    6  A    between atoms: C5_10  and  N4_12 
REMARK    7  A    between atoms: N4_12  and  C6_14 
REMARK    8  A    between atoms: C6_14  and  C7_15 
ROOT
HETATM    1  N1  UNL     1      12.405   8.559  11.629  1.00  0.00    -0.197 NA
HETATM    2  C1  UNL     1      11.569   8.707  12.425  1.00  0.00     0.064 C 
HETATM    3  C2  UNL     1      10.535   8.937  13.407  1.00  0.00     0.168 C 
ENDROOT
BRANCH   3   4
HETATM    4  C3  UNL     1       9.465   7.914  13.508  1.00  0.00     0.071 C 
BRANCH   4   5
HETATM    5  N2  UNL     1       9.331   6.939  12.528  1.00  0.00    -0.386 N 
ATOM      6  H2  UNL     1       8.902   7.184  11.635  1.00  0.00     0.160 HD
BRANCH   5   7
HETATM    7  C4  UNL     1       9.778   5.611  12.742  1.00  0.00     0.244 C 
BRANCH   7   8
HETATM    8  N3  UNL     1      11.099   5.525  12.087  1.00  0.00    -0.351 N 
ATOM      9  H3  UNL     1      11.945   5.789  12.592  1.00  0.00     0.163 HD
BRANCH   8  10
HETATM   10  C5  UNL     1      11.173   5.067  10.735  1.00  0.00     0.168 C 
HETATM   11  S1  UNL     1      10.771   3.503  10.390  1.00  0.00    -0.041 SA
BRANCH  10  12
HETATM   12  N4  UNL     1      11.603   5.983   9.747  1.00  0.00    -0.365 N 
ATOM     13  H4  UNL     1      12.188   6.776  10.011  1.00  0.00     0.161 HD
BRANCH  12  14
HETATM   14  C6  UNL     1      11.224   5.804   8.381  1.00  0.00     0.154 C 
BRANCH  14  15
HETATM   15  C7  UNL     1      12.316   5.877   7.376  1.00  0.00     0.139 C 
HETATM   16  C8  UNL     1      13.180   4.630   7.425  1.00  0.00     0.035 C 
HETATM   17  C9  UNL     1      12.203   3.597   6.913  1.00  0.00     0.029 C 
HETATM   18  C10 UNL     1      11.305   4.430   6.031  1.00  0.00     0.168 C 
HETATM   19  O1  UNL     1      11.730   5.741   6.096  1.00  0.00    -0.384 OA
ENDBRANCH  14  15
ENDBRANCH  12  14
ENDBRANCH  10  12
ENDBRANCH   8  10
ENDBRANCH   7   8
ENDBRANCH   5   7
ENDBRANCH   4   5
ENDBRANCH   3   4
TORSDOF 8
ENDMDL
MODEL 5
REMARK VINA RESULT: -6.050926619      0.921      1.225
REMARK  8 active torsions:
REMARK  status: ('A' for Active; 'I' for Inactive)
REMARK    1  A    between atoms: C2_3  and  C3_4 
REMARK    2  A    between atoms: C3_4  and  N2_5 
REMARK    3  A    between atoms: N2_5  and  C4_7 
REMARK    4  A    between atoms: C4_7  and  N3_8 
REMARK    5  A    between atoms: N3_8  and  C5_10 
REMARK    6  A    between atoms: C5_10  and  N4_12 
REMARK    7  A    between atoms: N4_12  and  C6_14 
REMARK    8  A    between atoms: C6_14  and  C7_15 
ROOT
HETATM    1  N1  UNL     1       9.036   9.173  15.342  1.00  0.00    -0.197 NA
HETATM    2  C1  UNL     1       9.701   9.217  14.388  1.00  0.00     0.064 C 
HETATM    3  C2  UNL     1      10.534   9.317  13.212  1.00  0.00     0.168 C 
ENDROOT
BRANCH   3   4
HETATM    4  C3  UNL     1      11.296   8.104  12.824  1.00  0.00     0.071 C 
BRANCH   4   5
HETATM    5  N2  UNL     1      10.989   6.872  13.386  1.00  0.00    -0.386 N 
ATOM      6  H2  UNL     1      11.485   6.568  14.224  1.00  0.00     0.160 HD
BRANCH   5   7
HETATM    7  C4  UNL     1      10.000   6.028  12.821  1.00  0.00     0.244 C 
BRANCH   7   8
HETATM    8  N3  UNL     1      10.588   4.672  12.818  1.00  0.00    -0.351 N 
ATOM      9  H3  UNL     1      10.904   4.244  13.688  1.00  0.00     0.163 HD
BRANCH   8  10
HETATM   10  C5  UNL     1      10.705   3.972  11.578  1.00  0.00     0.168 C 
HETATM   11  S1  UNL     1      10.013   2.481  11.425  1.00  0.00    -0.041 SA
BRANCH  10  12
HETATM   12  N4  UNL     1      11.428   4.592  10.532  1.00  0.00    -0.365 N 
ATOM     13  H4  UNL     1      12.177   5.247  10.753  1.00  0.00     0.161 HD
BRANCH  12  14
HETATM   14  C6  UNL     1      11.114   4.306   9.167  1.00  0.00     0.154 C 
BRANCH  14  15
HETATM   15  C7  UNL     1      11.451   5.359   8.175  1.00  0.00     0.139 C 
HETATM   16  C8  UNL     1      12.934   5.343   7.853  1.00  0.00     0.035 C 
HETATM   17  C9  UNL     1      13.043   4.025   7.122  1.00  0.00     0.029 C 
HETATM   18  C10 UNL     1      11.661   3.881   6.533  1.00  0.00     0.168 C 
HETATM   19  O1  UNL     1      10.907   4.967   6.931  1.00  0.00    -0.384 OA
ENDBRANCH  14  15
ENDBRANCH  12  14
ENDBRANCH  10  12
ENDBRANCH   8  10
ENDBRANCH   7   8
ENDBRANCH   5   7
ENDBRANCH   4   5
ENDBRANCH   3   4
TORSDOF 8
ENDMDL
