MODEL 1
REMARK VINA RESULT: -9.238658679      0.000      0.000
REMARK  5 active torsions:
REMARK  status: ('A' for Active; 'I' for Inactive)
REMARK    1  A    between atoms: C2_2  and  N1_3 
REMARK       I    between atoms: N1_3  and  C3_5 
REMARK    2  A    between atoms: C3_5  and  C4_7 
REMARK       I    between atoms: N2_15  and  C8_16 
REMARK       I    between atoms: C8_16  and  N3_18 
REMARK       I    between atoms: N3_18  and  C9_20 
REMARK    3  A    between atoms: C9_20  and  C10_22 
REMARK    4  A    between atoms: C10_22  and  C11_23 
REMARK    5  A    between atoms: C11_23  and  C12_24 
ROOT
HETATM    1  C4  UNL     1       7.360   7.133  21.069  1.00  0.00     0.198 C 
HETATM    2  C5  UNL     1       8.401   8.216  21.030  1.00  0.00     0.179 C 
HETATM    3  S1  UNL     1       7.617   9.515  22.003  1.00  0.00     0.188 S 
HETATM    4  O2  UNL     1       8.631  10.281  22.778  1.00  0.00    -0.224 OA
HETATM    5  O3  UNL     1       6.762  10.367  21.131  1.00  0.00    -0.224 OA
HETATM    6  C6  UNL     1       6.673   8.420  23.025  1.00  0.00     0.215 C 
HETATM    7  C7  UNL     1       5.335   9.088  23.266  1.00  0.00     0.075 C 
HETATM    8 CL1  UNL     1       7.507   8.071  24.555  1.00  0.00    -0.078 Cl
HETATM    9  N2  UNL     1       6.529   7.257  22.208  1.00  0.00    -0.284 N 
HETATM   10  C8  UNL     1       5.578   6.225  22.512  1.00  0.00     0.328 C 
HETATM   11  O4  UNL     1       4.853   6.364  23.523  1.00  0.00    -0.247 OA
HETATM   12  N3  UNL     1       5.396   5.056  21.755  1.00  0.00    -0.279 N 
ATOM     13  H3  UNL     1       5.976   4.920  20.928  1.00  0.00     0.173 HD
HETATM   14  C9  UNL     1       4.444   4.053  22.083  1.00  0.00     0.225 C 
HETATM   15  O5  UNL     1       3.729   4.217  23.099  1.00  0.00    -0.273 OA
ENDROOT
BRANCH   1  16
HETATM   16  C3  UNL     1       6.544   7.313  19.855  1.00  0.00     0.241 C 
HETATM   17  N1  UNL     1       5.471   8.223  19.853  1.00  0.00    -0.360 N 
ATOM     18  H1  UNL     1       5.265   8.754  20.699  1.00  0.00     0.162 HD
HETATM   19  O1  UNL     1       6.804   6.663  18.832  1.00  0.00    -0.271 OA
BRANCH  17  20
HETATM   20  C2  UNL     1       4.650   8.422  18.672  1.00  0.00     0.118 C 
HETATM   21  C1  UNL     1       5.113   9.697  17.972  1.00  0.00     0.026 C 
ENDBRANCH  17  20
ENDBRANCH   1  16
BRANCH  14  22
HETATM   22  C10 UNL     1       4.266   2.828  21.275  1.00  0.00     0.104 C 
BRANCH  22  23
HETATM   23  C11 UNL     1       5.537   2.049  21.265  1.00  0.00     0.018 C 
BRANCH  23  24
HETATM   24  C12 UNL     1       6.235   2.074  19.935  1.00  0.00    -0.039 C 
HETATM   25  C13 UNL     1       5.260   2.053  18.788  1.00  0.00     0.014 C 
HETATM   26  C14 UNL     1       5.994   2.001  17.488  1.00  0.00    -0.013 C 
HETATM   27  C15 UNL     1       6.894   3.207  17.303  1.00  0.00     0.009 C 
HETATM   28  C19 UNL     1       6.871   0.776  17.425  1.00  0.00     0.009 C 
HETATM   29  C16 UNL     1       7.834   3.261  18.484  1.00  0.00    -0.013 C 
HETATM   30  C17 UNL     1       8.746   2.055  18.421  1.00  0.00     0.009 C 
HETATM   31  C21 UNL     1       7.089   3.311  19.787  1.00  0.00     0.014 C 
HETATM   32  C18 UNL     1       7.894   0.823  18.539  1.00  0.00    -0.013 C 
HETATM   33  C20 UNL     1       7.152   0.879  19.851  1.00  0.00     0.014 C 
ENDBRANCH  23  24
ENDBRANCH  22  23
ENDBRANCH  14  22
TORSDOF 5
ENDMDL
MODEL 2
REMARK VINA RESULT: -9.157924600      0.196      1.342
REMARK  5 active torsions:
REMARK  status: ('A' for Active; 'I' for Inactive)
REMARK    1  A    between atoms: C2_2  and  N1_3 
REMARK       I    between atoms: N1_3  and  C3_5 
REMARK    2  A    between atoms: C3_5  and  C4_7 
REMARK       I    between atoms: N2_15  and  C8_16 
REMARK       I    between atoms: C8_16  and  N3_18 
REMARK       I    between atoms: N3_18  and  C9_20 
REMARK    3  A    between atoms: C9_20  and  C10_22 
REMARK    4  A    between atoms: C10_22  and  C11_23 
REMARK    5  A    between atoms: C11_23  and  C12_24 
ROOT
HETATM    1  C4  UNL     1       7.451   7.189  21.099  1.00  0.00     0.198 C 
HETATM    2  C5  UNL     1       8.511   8.253  21.085  1.00  0.00     0.179 C 
HETATM    3  S1  UNL     1       7.741   9.551  22.071  1.00  0.00     0.188 S 
HETATM    4  O2  UNL     1       8.762  10.287  22.867  1.00  0.00    -0.224 OA
HETATM    5  O3  UNL     1       6.910  10.432  21.204  1.00  0.00    -0.224 OA
HETATM    6  C6  UNL     1       6.768   8.458  23.068  1.00  0.00     0.215 C 
HETATM    7  C7  UNL     1       5.440   9.147  23.306  1.00  0.00     0.075 C 
HETATM    8 CL1  UNL     1       7.582   8.071  24.599  1.00  0.00    -0.078 Cl
HETATM    9  N2  UNL     1       6.611   7.311  22.231  1.00  0.00    -0.284 N 
HETATM   10  C8  UNL     1       5.639   6.291  22.511  1.00  0.00     0.328 C 
HETATM   11  O4  UNL     1       4.906   6.429  23.517  1.00  0.00    -0.247 OA
HETATM   12  N3  UNL     1       5.443   5.137  21.735  1.00  0.00    -0.279 N 
ATOM     13  H3  UNL     1       6.028   5.003  20.910  1.00  0.00     0.173 HD
HETATM   14  C9  UNL     1       4.471   4.147  22.038  1.00  0.00     0.225 C 
HETATM   15  O5  UNL     1       3.748   4.309  23.050  1.00  0.00    -0.273 OA
ENDROOT
BRANCH   1  16
HETATM   16  C3  UNL     1       6.650   7.402  19.880  1.00  0.00     0.241 C 
HETATM   17  N1  UNL     1       5.816   8.530  19.770  1.00  0.00    -0.360 N 
ATOM     18  H1  UNL     1       5.773   9.196  20.541  1.00  0.00     0.162 HD
HETATM   19  O1  UNL     1       6.710   6.586  18.948  1.00  0.00    -0.271 OA
BRANCH  17  20
HETATM   20  C2  UNL     1       5.016   8.767  18.581  1.00  0.00     0.118 C 
HETATM   21  C1  UNL     1       5.673   9.881  17.771  1.00  0.00     0.026 C 
ENDBRANCH  17  20
ENDBRANCH   1  16
BRANCH  14  22
HETATM   22  C10 UNL     1       4.277   2.938  21.210  1.00  0.00     0.104 C 
BRANCH  22  23
HETATM   23  C11 UNL     1       5.501   2.087  21.279  1.00  0.00     0.018 C 
BRANCH  23  24
HETATM   24  C12 UNL     1       6.281   2.071  19.996  1.00  0.00    -0.039 C 
HETATM   25  C13 UNL     1       7.174   3.276  19.866  1.00  0.00     0.014 C 
HETATM   26  C14 UNL     1       7.872   3.260  18.544  1.00  0.00    -0.013 C 
HETATM   27  C15 UNL     1       8.739   2.027  18.383  1.00  0.00     0.009 C 
HETATM   28  C19 UNL     1       6.871   3.252  17.418  1.00  0.00     0.009 C 
HETATM   29  C16 UNL     1       7.854   0.818  18.572  1.00  0.00    -0.013 C 
HETATM   30  C17 UNL     1       6.860   0.773  17.431  1.00  0.00     0.009 C 
HETATM   31  C21 UNL     1       7.154   0.842  19.901  1.00  0.00     0.014 C 
HETATM   32  C18 UNL     1       6.011   2.010  17.508  1.00  0.00    -0.013 C 
HETATM   33  C20 UNL     1       5.309   2.025  18.843  1.00  0.00     0.014 C 
ENDBRANCH  23  24
ENDBRANCH  22  23
ENDBRANCH  14  22
TORSDOF 5
ENDMDL
MODEL 3
REMARK VINA RESULT: -9.065495866      0.424      1.454
REMARK  5 active torsions:
REMARK  status: ('A' for Active; 'I' for Inactive)
REMARK    1  A    between atoms: C2_2  and  N1_3 
REMARK       I    between atoms: N1_3  and  C3_5 
REMARK    2  A    between atoms: C3_5  and  C4_7 
REMARK       I    between atoms: N2_15  and  C8_16 
REMARK       I    between atoms: C8_16  and  N3_18 
REMARK       I    between atoms: N3_18  and  C9_20 
REMARK    3  A    between atoms: C9_20  and  C10_22 
REMARK    4  A    between atoms: C10_22  and  C11_23 
REMARK    5  A    between atoms: C11_23  and  C12_24 
ROOT
HETATM    1  C4  UNL     1       7.568   7.199  21.061  1.00  0.00     0.198 C 
HETATM    2  C5  UNL     1       8.620   8.271  21.097  1.00  0.00     0.179 C 
HETATM    3  S1  UNL     1       7.835   9.520  22.134  1.00  0.00     0.188 S 
HETATM    4  O2  UNL     1       8.847  10.230  22.964  1.00  0.00    -0.224 OA
HETATM    5  O3  UNL     1       7.000  10.430  21.302  1.00  0.00    -0.224 OA
HETATM    6  C6  UNL     1       6.868   8.378  23.079  1.00  0.00     0.215 C 
HETATM    7  C7  UNL     1       5.534   9.044  23.342  1.00  0.00     0.075 C 
HETATM    8 CL1  UNL     1       7.680   7.932  24.596  1.00  0.00    -0.078 Cl
HETATM    9  N2  UNL     1       6.724   7.265  22.194  1.00  0.00    -0.284 N 
HETATM   10  C8  UNL     1       5.759   6.227  22.426  1.00  0.00     0.328 C 
HETATM   11  O4  UNL     1       5.022   6.316  23.435  1.00  0.00    -0.247 OA
HETATM   12  N3  UNL     1       5.575   5.106  21.601  1.00  0.00    -0.279 N 
ATOM     13  H3  UNL     1       6.164   5.012  20.774  1.00  0.00     0.173 HD
HETATM   14  C9  UNL     1       4.610   4.096  21.859  1.00  0.00     0.225 C 
HETATM   15  O5  UNL     1       3.883   4.208  22.874  1.00  0.00    -0.273 OA
ENDROOT
BRANCH   1  16
HETATM   16  C3  UNL     1       6.770   7.457  19.849  1.00  0.00     0.241 C 
HETATM   17  N1  UNL     1       5.995   8.628  19.749  1.00  0.00    -0.360 N 
ATOM     18  H1  UNL     1       5.993   9.293  20.522  1.00  0.00     0.162 HD
HETATM   19  O1  UNL     1       6.780   6.642  18.914  1.00  0.00    -0.271 OA
BRANCH  17  20
HETATM   20  C2  UNL     1       5.199   8.910  18.568  1.00  0.00     0.118 C 
HETATM   21  C1  UNL     1       5.918   9.975  17.744  1.00  0.00     0.026 C 
ENDBRANCH  17  20
ENDBRANCH   1  16
BRANCH  14  22
HETATM   22  C10 UNL     1       4.430   2.921  20.979  1.00  0.00     0.104 C 
BRANCH  22  23
HETATM   23  C11 UNL     1       5.664   2.084  21.009  1.00  0.00     0.018 C 
BRANCH  23  24
HETATM   24  C12 UNL     1       6.302   1.924  19.659  1.00  0.00    -0.039 C 
HETATM   25  C13 UNL     1       7.393   0.887  19.672  1.00  0.00     0.014 C 
HETATM   26  C14 UNL     1       8.053   0.816  18.333  1.00  0.00    -0.013 C 
HETATM   27  C15 UNL     1       7.070   0.434  17.243  1.00  0.00     0.009 C 
HETATM   28  C19 UNL     1       8.636   2.154  17.959  1.00  0.00     0.009 C 
HETATM   29  C16 UNL     1       5.946   1.442  17.269  1.00  0.00    -0.013 C 
HETATM   30  C17 UNL     1       6.505   2.789  16.864  1.00  0.00     0.009 C 
HETATM   31  C21 UNL     1       5.289   1.510  18.618  1.00  0.00     0.014 C 
HETATM   32  C18 UNL     1       7.534   3.188  17.883  1.00  0.00    -0.013 C 
HETATM   33  C20 UNL     1       6.867   3.258  19.234  1.00  0.00     0.014 C 
ENDBRANCH  23  24
ENDBRANCH  22  23
ENDBRANCH  14  22
TORSDOF 5
ENDMDL
MODEL 4
REMARK VINA RESULT: -8.956937347      2.634      3.628
REMARK  5 active torsions:
REMARK  status: ('A' for Active; 'I' for Inactive)
REMARK    1  A    between atoms: C2_2  and  N1_3 
REMARK       I    between atoms: N1_3  and  C3_5 
REMARK    2  A    between atoms: C3_5  and  C4_7 
REMARK       I    between atoms: N2_15  and  C8_16 
REMARK       I    between atoms: C8_16  and  N3_18 
REMARK       I    between atoms: N3_18  and  C9_20 
REMARK    3  A    between atoms: C9_20  and  C10_22 
REMARK    4  A    between atoms: C10_22  and  C11_23 
REMARK    5  A    between atoms: C11_23  and  C12_24 
ROOT
HETATM    1  C4  UNL     1       5.058   7.347  23.466  1.00  0.00     0.198 C 
HETATM    2  C5  UNL     1       4.552   8.181  24.609  1.00  0.00     0.179 C 
HETATM    3  S1  UNL     1       2.838   8.463  24.128  1.00  0.00     0.188 S 
HETATM    4  O2  UNL     1       1.954   8.512  25.325  1.00  0.00    -0.224 OA
HETATM    5  O3  UNL     1       2.738   9.670  23.262  1.00  0.00    -0.224 OA
HETATM    6  C6  UNL     1       2.662   6.953  23.220  1.00  0.00     0.215 C 
HETATM    7  C7  UNL     1       1.796   7.263  22.017  1.00  0.00     0.075 C 
HETATM    8 CL1  UNL     1       1.949   5.669  24.220  1.00  0.00    -0.078 Cl
HETATM    9  N2  UNL     1       4.003   6.654  22.827  1.00  0.00    -0.284 N 
HETATM   10  C8  UNL     1       4.300   5.678  21.817  1.00  0.00     0.328 C 
HETATM   11  O4  UNL     1       3.346   5.083  21.265  1.00  0.00    -0.247 OA
HETATM   12  N3  UNL     1       5.594   5.332  21.394  1.00  0.00    -0.279 N 
ATOM     13  H3  UNL     1       6.387   5.802  21.829  1.00  0.00     0.173 HD
HETATM   14  C9  UNL     1       5.855   4.361  20.390  1.00  0.00     0.225 C 
HETATM   15  O5  UNL     1       4.882   3.782  19.851  1.00  0.00    -0.273 OA
ENDROOT
BRANCH   1  16
HETATM   16  C3  UNL     1       5.661   8.294  22.511  1.00  0.00     0.241 C 
HETATM   17  N1  UNL     1       6.895   8.903  22.803  1.00  0.00    -0.360 N 
ATOM     18  H1  UNL     1       7.366   8.682  23.681  1.00  0.00     0.162 HD
HETATM   19  O1  UNL     1       5.081   8.555  21.447  1.00  0.00    -0.271 OA
BRANCH  17  20
HETATM   20  C2  UNL     1       7.514   9.840  21.882  1.00  0.00     0.118 C 
HETATM   21  C1  UNL     1       8.586   9.098  21.088  1.00  0.00     0.026 C 
ENDBRANCH  17  20
ENDBRANCH   1  16
BRANCH  14  22
HETATM   22  C10 UNL     1       7.224   4.009  19.956  1.00  0.00     0.104 C 
BRANCH  22  23
HETATM   23  C11 UNL     1       7.344   2.526  19.844  1.00  0.00     0.018 C 
BRANCH  23  24
HETATM   24  C12 UNL     1       7.698   2.066  18.459  1.00  0.00    -0.039 C 
HETATM   25  C13 UNL     1       7.527   3.162  17.441  1.00  0.00     0.014 C 
HETATM   26  C14 UNL     1       7.813   2.642  16.070  1.00  0.00    -0.013 C 
HETATM   27  C15 UNL     1       9.233   2.123  15.952  1.00  0.00     0.009 C 
HETATM   28  C19 UNL     1       6.891   1.498  15.736  1.00  0.00     0.009 C 
HETATM   29  C16 UNL     1       9.422   1.064  17.012  1.00  0.00    -0.013 C 
HETATM   30  C17 UNL     1       8.527  -0.110  16.676  1.00  0.00     0.009 C 
HETATM   31  C21 UNL     1       9.130   1.593  18.387  1.00  0.00     0.014 C 
HETATM   32  C18 UNL     1       7.103   0.367  16.718  1.00  0.00    -0.013 C 
HETATM   33  C20 UNL     1       6.817   0.893  18.103  1.00  0.00     0.014 C 
ENDBRANCH  23  24
ENDBRANCH  22  23
ENDBRANCH  14  22
TORSDOF 5
ENDMDL
MODEL 5
REMARK VINA RESULT: -8.941380915      2.522      3.440
REMARK  5 active torsions:
REMARK  status: ('A' for Active; 'I' for Inactive)
REMARK    1  A    between atoms: C2_2  and  N1_3 
REMARK       I    between atoms: N1_3  and  C3_5 
REMARK    2  A    between atoms: C3_5  and  C4_7 
REMARK       I    between atoms: N2_15  and  C8_16 
REMARK       I    between atoms: C8_16  and  N3_18 
REMARK       I    between atoms: N3_18  and  C9_20 
REMARK    3  A    between atoms: C9_20  and  C10_22 
REMARK    4  A    between atoms: C10_22  and  C11_23 
REMARK    5  A    between atoms: C11_23  and  C12_24 
ROOT
HETATM    1  C4  UNL     1       5.154   6.276  23.123  1.00  0.00     0.198 C 
HETATM    2  C5  UNL     1       4.878   7.471  23.992  1.00  0.00     0.179 C 
HETATM    3  S1  UNL     1       3.269   8.006  23.379  1.00  0.00     0.188 S 
HETATM    4  O2  UNL     1       2.442   8.565  24.484  1.00  0.00    -0.224 OA
HETATM    5  O3  UNL     1       3.440   8.939  22.231  1.00  0.00    -0.224 OA
HETATM    6  C6  UNL     1       2.730   6.396  22.879  1.00  0.00     0.215 C 
HETATM    7  C7  UNL     1       1.939   6.576  21.600  1.00  0.00     0.075 C 
HETATM    8 CL1  UNL     1       1.752   5.613  24.140  1.00  0.00    -0.078 Cl
HETATM    9  N2  UNL     1       3.956   5.704  22.635  1.00  0.00    -0.284 N 
HETATM   10  C8  UNL     1       3.999   4.460  21.921  1.00  0.00     0.328 C 
HETATM   11  O4  UNL     1       2.922   3.980  21.497  1.00  0.00    -0.247 OA
HETATM   12  N3  UNL     1       5.168   3.727  21.658  1.00  0.00    -0.279 N 
ATOM     13  H3  UNL     1       6.057   4.098  21.994  1.00  0.00     0.173 HD
HETATM   14  C9  UNL     1       5.177   2.498  20.947  1.00  0.00     0.225 C 
HETATM   15  O5  UNL     1       4.087   2.040  20.530  1.00  0.00    -0.273 OA
ENDROOT
BRANCH   1  16
HETATM   16  C3  UNL     1       5.946   6.779  21.986  1.00  0.00     0.241 C 
HETATM   17  N1  UNL     1       7.317   7.053  22.145  1.00  0.00    -0.360 N 
ATOM     18  H1  UNL     1       7.755   6.900  23.053  1.00  0.00     0.162 HD
HETATM   19  O1  UNL     1       5.404   6.962  20.886  1.00  0.00    -0.271 OA
BRANCH  17  20
HETATM   20  C2  UNL     1       8.122   7.550  21.043  1.00  0.00     0.118 C 
HETATM   21  C1  UNL     1       8.928   8.749  21.537  1.00  0.00     0.026 C 
ENDBRANCH  17  20
ENDBRANCH   1  16
BRANCH  14  22
HETATM   22  C10 UNL     1       6.418   1.740  20.678  1.00  0.00     0.104 C 
BRANCH  22  23
HETATM   23  C11 UNL     1       7.361   2.590  19.896  1.00  0.00     0.018 C 
BRANCH  23  24
HETATM   24  C12 UNL     1       7.600   2.080  18.504  1.00  0.00    -0.039 C 
HETATM   25  C13 UNL     1       6.659   0.961  18.146  1.00  0.00     0.014 C 
HETATM   26  C14 UNL     1       6.981   0.432  16.786  1.00  0.00    -0.013 C 
HETATM   27  C15 UNL     1       6.846   1.503  15.721  1.00  0.00     0.009 C 
HETATM   28  C19 UNL     1       8.401  -0.070  16.737  1.00  0.00     0.009 C 
HETATM   29  C16 UNL     1       7.747   2.651  16.111  1.00  0.00    -0.013 C 
HETATM   30  C17 UNL     1       9.182   2.176  16.037  1.00  0.00     0.009 C 
HETATM   31  C21 UNL     1       7.419   3.176  17.480  1.00  0.00     0.014 C 
HETATM   32  C18 UNL     1       9.355   1.066  17.035  1.00  0.00    -0.013 C 
HETATM   33  C20 UNL     1       9.028   1.601  18.406  1.00  0.00     0.014 C 
ENDBRANCH  23  24
ENDBRANCH  22  23
ENDBRANCH  14  22
TORSDOF 5
ENDMDL
