MODEL 1
REMARK VINA RESULT: -7.033355833      0.000      0.000
REMARK  8 active torsions:
REMARK  status: ('A' for Active; 'I' for Inactive)
REMARK       I    between atoms: C2_2  and  N1_4 
REMARK    1  A    between atoms: N1_4  and  C3_6 
REMARK    2  A    between atoms: C3_6  and  C4_7 
REMARK    3  A    between atoms: C4_7  and  N2_8 
REMARK    4  A    between atoms: C12_16  and  O2_17 
REMARK    5  A    between atoms: C12_16  and  N3_19 
REMARK    6  A    between atoms: C16_23  and  C17_24 
REMARK       I    between atoms: C17_24  and  N4_26 
REMARK    7  A    between atoms: N4_26  and  C18_28 
REMARK    8  A    between atoms: C20_31  and  N5_32 
ROOT
HETATM    1  C3  UNL     1       5.900   5.418  20.145  1.00  0.00     0.091 C 
HETATM    2  C12 UNL     1       6.937   6.141  20.809  1.00  0.00     0.164 C 
ENDROOT
BRANCH   2   3
HETATM    3  O2  UNL     1       8.010   5.443  21.183  1.00  0.00    -0.345 OA
ATOM      4  H2  UNL     1       8.781   5.520  20.634  1.00  0.00     0.219 HD
ENDBRANCH   2   3
BRANCH   2   5
HETATM    5  N3  UNL     1       7.092   7.497  21.179  1.00  0.00    -0.347 N 
HETATM    6  C13 UNL     1       6.240   8.397  21.860  1.00  0.00     0.126 C 
HETATM    7  C14 UNL     1       7.087   9.488  22.456  1.00  0.00     0.022 C 
HETATM    8  C15 UNL     1       8.498   9.018  22.169  1.00  0.00     0.037 C 
HETATM    9  C16 UNL     1       8.290   8.306  20.814  1.00  0.00     0.178 C 
BRANCH   9  10
HETATM   10  C17 UNL     1       7.984   9.351  19.839  1.00  0.00     0.241 C 
HETATM   11  O3  UNL     1       8.533  10.460  19.876  1.00  0.00    -0.271 OA
HETATM   12  N4  UNL     1       7.032   9.057  18.835  1.00  0.00    -0.351 N 
ATOM     13  H4  UNL     1       6.580   8.142  18.830  1.00  0.00     0.163 HD
BRANCH  12  14
HETATM   14  C18 UNL     1       6.678  10.034  17.798  1.00  0.00     0.137 A 
HETATM   15  C19 UNL     1       5.227  10.416  17.764  1.00  0.00     0.140 A 
HETATM   16 CL1  UNL     1       4.857  12.126  17.426  1.00  0.00    -0.120 Cl
HETATM   17  C20 UNL     1       5.783   9.549  16.717  1.00  0.00     0.233 A 
BRANCH  17  18
HETATM   18  N5  UNL     1       5.949   9.913  15.348  1.00  0.00    -0.071 N 
HETATM   19  C21 UNL     1       4.724  10.474  14.806  1.00  0.00     0.272 C 
HETATM   20  C22 UNL     1       7.092  10.767  15.103  1.00  0.00     0.272 C 
HETATM   21  C23 UNL     1       6.214   8.692  14.565  1.00  0.00     0.272 C 
ENDBRANCH  17  18
ENDBRANCH  12  14
ENDBRANCH   9  10
ENDBRANCH   2   5
BRANCH   1  22
HETATM   22  N1  UNL     1       4.846   5.736  19.641  1.00  0.00    -0.326 N 
HETATM   23  C2  UNL     1       4.210   6.624  18.825  1.00  0.00     0.218 C 
HETATM   24  C1  UNL     1       3.316   7.741  19.316  1.00  0.00     0.117 C 
HETATM   25  O1  UNL     1       4.345   6.539  17.572  1.00  0.00    -0.274 OA
ATOM     26  H1  UNL     1       4.147   5.064  19.956  1.00  0.00     0.168 HD
ENDBRANCH   1  22
BRANCH   1  27
HETATM   27  C4  UNL     1       6.200   3.885  20.136  1.00  0.00     0.334 C 
BRANCH  27  28
HETATM   28  N2  UNL     1       5.853   3.270  18.923  1.00  0.00     0.099 N 
HETATM   29  C5  UNL     1       6.879   3.703  17.946  1.00  0.00     0.278 C 
HETATM   30  C6  UNL     1       7.255   2.483  17.146  1.00  0.00     0.016 C 
HETATM   31  C7  UNL     1       8.470   1.863  17.783  1.00  0.00     0.006 C 
HETATM   32  C11 UNL     1       6.037   1.603  17.323  1.00  0.00     0.042 C 
HETATM   33  C8  UNL     1       8.217   1.111  19.023  1.00  0.00     0.002 C 
HETATM   34  C9  UNL     1       6.835   1.081  19.552  1.00  0.00     0.036 C 
HETATM   35  C10 UNL     1       5.803   1.859  18.833  1.00  0.00     0.224 C 
ENDBRANCH  27  28
ENDBRANCH   1  27
TORSDOF 8
ENDMDL
MODEL 2
REMARK VINA RESULT: -7.019826280      3.863      5.815
REMARK  8 active torsions:
REMARK  status: ('A' for Active; 'I' for Inactive)
REMARK       I    between atoms: C2_2  and  N1_4 
REMARK    1  A    between atoms: N1_4  and  C3_6 
REMARK    2  A    between atoms: C3_6  and  C4_7 
REMARK    3  A    between atoms: C4_7  and  N2_8 
REMARK    4  A    between atoms: C12_16  and  O2_17 
REMARK    5  A    between atoms: C12_16  and  N3_19 
REMARK    6  A    between atoms: C16_23  and  C17_24 
REMARK       I    between atoms: C17_24  and  N4_26 
REMARK    7  A    between atoms: N4_26  and  C18_28 
REMARK    8  A    between atoms: C20_31  and  N5_32 
ROOT
HETATM    1  C3  UNL     1       5.318   1.856  18.878  1.00  0.00     0.091 C 
HETATM    2  C12 UNL     1       5.284   2.688  20.039  1.00  0.00     0.164 C 
ENDROOT
BRANCH   2   3
HETATM    3  O2  UNL     1       6.420   2.798  20.730  1.00  0.00    -0.345 OA
ATOM      4  H2  UNL     1       6.357   2.698  21.672  1.00  0.00     0.219 HD
ENDBRANCH   2   3
BRANCH   2   5
HETATM    5  N3  UNL     1       4.271   3.460  20.653  1.00  0.00    -0.347 N 
HETATM    6  C13 UNL     1       3.179   4.184  20.121  1.00  0.00     0.126 C 
HETATM    7  C14 UNL     1       2.145   4.339  21.203  1.00  0.00     0.022 C 
HETATM    8  C15 UNL     1       2.706   3.499  22.331  1.00  0.00     0.037 C 
HETATM    9  C16 UNL     1       4.221   3.715  22.121  1.00  0.00     0.178 C 
BRANCH   9  10
HETATM   10  C17 UNL     1       4.491   5.111  22.455  1.00  0.00     0.241 C 
HETATM   11  O3  UNL     1       3.816   5.725  23.292  1.00  0.00    -0.271 OA
HETATM   12  N4  UNL     1       5.564   5.752  21.792  1.00  0.00    -0.351 N 
ATOM     13  H4  UNL     1       6.099   5.234  21.096  1.00  0.00     0.163 HD
BRANCH  12  14
HETATM   14  C18 UNL     1       5.927   7.145  22.081  1.00  0.00     0.137 A 
HETATM   15  C19 UNL     1       6.927   7.742  21.134  1.00  0.00     0.140 A 
HETATM   16 CL1  UNL     1       6.678   9.447  20.678  1.00  0.00    -0.120 Cl
HETATM   17  C20 UNL     1       7.332   7.384  22.500  1.00  0.00     0.233 A 
BRANCH  17  18
HETATM   18  N5  UNL     1       7.691   8.310  23.523  1.00  0.00    -0.071 N 
HETATM   19  C21 UNL     1       8.675   9.262  23.040  1.00  0.00     0.272 C 
HETATM   20  C22 UNL     1       6.560   8.966  24.143  1.00  0.00     0.272 C 
HETATM   21  C23 UNL     1       8.347   7.573  24.617  1.00  0.00     0.272 C 
ENDBRANCH  17  18
ENDBRANCH  12  14
ENDBRANCH   9  10
ENDBRANCH   2   5
BRANCH   1  22
HETATM   22  N1  UNL     1       4.509   1.583  18.020  1.00  0.00    -0.326 N 
HETATM   23  C2  UNL     1       3.804   0.588  17.412  1.00  0.00     0.218 C 
HETATM   24  C1  UNL     1       4.141   0.013  16.053  1.00  0.00     0.117 C 
HETATM   25  O1  UNL     1       2.794   0.088  17.984  1.00  0.00    -0.274 OA
ATOM     26  H1  UNL     1       4.248   2.457  17.563  1.00  0.00     0.168 HD
ENDBRANCH   1  22
BRANCH   1  27
HETATM   27  C4  UNL     1       6.688   1.116  18.756  1.00  0.00     0.334 C 
BRANCH  27  28
HETATM   28  N2  UNL     1       7.601   1.795  17.934  1.00  0.00     0.099 N 
HETATM   29  C5  UNL     1       8.927   1.611  18.571  1.00  0.00     0.278 C 
HETATM   30  C6  UNL     1       9.899   1.303  17.461  1.00  0.00     0.016 C 
HETATM   31  C7  UNL     1      10.015  -0.194  17.346  1.00  0.00     0.006 C 
HETATM   32  C11 UNL     1       9.198   1.891  16.257  1.00  0.00     0.042 C 
HETATM   33  C8  UNL     1       8.880  -0.865  16.690  1.00  0.00     0.002 C 
HETATM   34  C9  UNL     1       7.729  -0.038  16.268  1.00  0.00     0.036 C 
HETATM   35  C10 UNL     1       7.763   1.407  16.584  1.00  0.00     0.224 C 
ENDBRANCH  27  28
ENDBRANCH   1  27
TORSDOF 8
ENDMDL
MODEL 3
REMARK VINA RESULT: -6.849100375      1.504      2.213
REMARK  8 active torsions:
REMARK  status: ('A' for Active; 'I' for Inactive)
REMARK       I    between atoms: C2_2  and  N1_4 
REMARK    1  A    between atoms: N1_4  and  C3_6 
REMARK    2  A    between atoms: C3_6  and  C4_7 
REMARK    3  A    between atoms: C4_7  and  N2_8 
REMARK    4  A    between atoms: C12_16  and  O2_17 
REMARK    5  A    between atoms: C12_16  and  N3_19 
REMARK    6  A    between atoms: C16_23  and  C17_24 
REMARK       I    between atoms: C17_24  and  N4_26 
REMARK    7  A    between atoms: N4_26  and  C18_28 
REMARK    8  A    between atoms: C20_31  and  N5_32 
ROOT
HETATM    1  C3  UNL     1       6.048   4.252  20.233  1.00  0.00     0.091 C 
HETATM    2  C12 UNL     1       6.495   5.608  20.181  1.00  0.00     0.164 C 
ENDROOT
BRANCH   2   3
HETATM    3  O2  UNL     1       7.659   5.831  19.569  1.00  0.00    -0.345 OA
ATOM      4  H2  UNL     1       8.259   6.429  19.999  1.00  0.00     0.219 HD
ENDBRANCH   2   3
BRANCH   2   5
HETATM    5  N3  UNL     1       5.957   6.827  20.654  1.00  0.00    -0.347 N 
HETATM    6  C13 UNL     1       4.627   7.260  20.857  1.00  0.00     0.126 C 
HETATM    7  C14 UNL     1       4.644   8.380  21.861  1.00  0.00     0.022 C 
HETATM    8  C15 UNL     1       6.092   8.417  22.303  1.00  0.00     0.037 C 
HETATM    9  C16 UNL     1       6.801   8.009  20.993  1.00  0.00     0.178 C 
BRANCH   9  10
HETATM   10  C17 UNL     1       6.613   9.116  20.058  1.00  0.00     0.241 C 
HETATM   11  O3  UNL     1       6.640  10.297  20.431  1.00  0.00    -0.271 OA
HETATM   12  N4  UNL     1       6.403   8.800  18.695  1.00  0.00    -0.351 N 
ATOM     13  H4  UNL     1       6.371   7.821  18.411  1.00  0.00     0.163 HD
BRANCH  12  14
HETATM   14  C18 UNL     1       6.231   9.845  17.679  1.00  0.00     0.137 A 
HETATM   15  C19 UNL     1       4.822  10.336  17.516  1.00  0.00     0.140 A 
HETATM   16 CL1  UNL     1       4.611  12.083  17.231  1.00  0.00    -0.120 Cl
HETATM   17  C20 UNL     1       5.424   9.477  16.488  1.00  0.00     0.233 A 
BRANCH  17  18
HETATM   18  N5  UNL     1       5.759   9.887  15.164  1.00  0.00    -0.071 N 
HETATM   19  C21 UNL     1       4.598  10.419  14.474  1.00  0.00     0.272 C 
HETATM   20  C22 UNL     1       6.889  10.788  15.098  1.00  0.00     0.272 C 
HETATM   21  C23 UNL     1       6.176   8.700  14.395  1.00  0.00     0.272 C 
ENDBRANCH  17  18
ENDBRANCH  12  14
ENDBRANCH   9  10
ENDBRANCH   2   5
BRANCH   1  22
HETATM   22  N1  UNL     1       5.047   3.715  20.651  1.00  0.00    -0.326 N 
HETATM   23  C2  UNL     1       4.482   3.037  21.690  1.00  0.00     0.218 C 
HETATM   24  C1  UNL     1       4.236   1.544  21.698  1.00  0.00     0.117 C 
HETATM   25  O1  UNL     1       4.122   3.658  22.730  1.00  0.00    -0.274 OA
ATOM     26  H1  UNL     1       4.331   3.810  19.930  1.00  0.00     0.168 HD
ENDBRANCH   1  22
BRANCH   1  27
HETATM   27  C4  UNL     1       7.134   3.280  19.671  1.00  0.00     0.334 C 
BRANCH  27  28
HETATM   28  N2  UNL     1       6.650   2.464  18.636  1.00  0.00     0.099 N 
HETATM   29  C5  UNL     1       7.160   3.065  17.381  1.00  0.00     0.278 C 
HETATM   30  C6  UNL     1       7.637   1.923  16.520  1.00  0.00     0.016 C 
HETATM   31  C7  UNL     1       9.115   1.749  16.754  1.00  0.00     0.006 C 
HETATM   32  C11 UNL     1       6.855   0.757  17.082  1.00  0.00     0.042 C 
HETATM   33  C8  UNL     1       9.479   1.094  18.021  1.00  0.00     0.002 C 
HETATM   34  C9  UNL     1       8.392   0.728  18.956  1.00  0.00     0.036 C 
HETATM   35  C10 UNL     1       7.009   1.097  18.585  1.00  0.00     0.224 C 
ENDBRANCH  27  28
ENDBRANCH   1  27
TORSDOF 8
ENDMDL
MODEL 4
REMARK VINA RESULT: -6.777355840      3.400      5.197
REMARK  8 active torsions:
REMARK  status: ('A' for Active; 'I' for Inactive)
REMARK       I    between atoms: C2_2  and  N1_4 
REMARK    1  A    between atoms: N1_4  and  C3_6 
REMARK    2  A    between atoms: C3_6  and  C4_7 
REMARK    3  A    between atoms: C4_7  and  N2_8 
REMARK    4  A    between atoms: C12_16  and  O2_17 
REMARK    5  A    between atoms: C12_16  and  N3_19 
REMARK    6  A    between atoms: C16_23  and  C17_24 
REMARK       I    between atoms: C17_24  and  N4_26 
REMARK    7  A    between atoms: N4_26  and  C18_28 
REMARK    8  A    between atoms: C20_31  and  N5_32 
ROOT
HETATM    1  C3  UNL     1       6.350   5.976  19.549  1.00  0.00     0.091 C 
HETATM    2  C12 UNL     1       6.938   6.222  20.828  1.00  0.00     0.164 C 
ENDROOT
BRANCH   2   3
HETATM    3  O2  UNL     1       7.828   5.327  21.259  1.00  0.00    -0.345 OA
ATOM      4  H2  UNL     1       7.921   5.237  22.200  1.00  0.00     0.219 HD
ENDBRANCH   2   3
BRANCH   2   5
HETATM    5  N3  UNL     1       6.784   7.249  21.787  1.00  0.00    -0.347 N 
HETATM    6  C13 UNL     1       7.322   7.423  23.083  1.00  0.00     0.126 C 
HETATM    7  C14 UNL     1       7.284   8.890  23.416  1.00  0.00     0.022 C 
HETATM    8  C15 UNL     1       6.818   9.520  22.120  1.00  0.00     0.037 C 
HETATM    9  C16 UNL     1       5.877   8.415  21.589  1.00  0.00     0.178 C 
BRANCH   9  10
HETATM   10  C17 UNL     1       4.725   8.386  22.486  1.00  0.00     0.241 C 
HETATM   11  O3  UNL     1       4.448   9.340  23.225  1.00  0.00    -0.271 OA
HETATM   12  N4  UNL     1       3.918   7.224  22.486  1.00  0.00    -0.351 N 
ATOM     13  H4  UNL     1       4.171   6.443  21.881  1.00  0.00     0.163 HD
BRANCH  12  14
HETATM   14  C18 UNL     1       2.725   7.113  23.334  1.00  0.00     0.137 A 
HETATM   15  C19 UNL     1       1.547   6.453  22.678  1.00  0.00     0.140 A 
HETATM   16 CL1  UNL     1       0.569   5.366  23.697  1.00  0.00    -0.120 Cl
HETATM   17  C20 UNL     1       1.542   7.904  22.911  1.00  0.00     0.233 A 
BRANCH  17  18
HETATM   18  N5  UNL     1       0.694   8.588  23.830  1.00  0.00    -0.071 N 
HETATM   19  C21 UNL     1      -0.699   8.476  23.436  1.00  0.00     0.272 C 
HETATM   20  C22 UNL     1       0.899   8.208  25.211  1.00  0.00     0.272 C 
HETATM   21  C23 UNL     1       1.011  10.027  23.783  1.00  0.00     0.272 C 
ENDBRANCH  17  18
ENDBRANCH  12  14
ENDBRANCH   9  10
ENDBRANCH   2   5
BRANCH   1  22
HETATM   22  N1  UNL     1       5.571   6.588  18.854  1.00  0.00    -0.326 N 
HETATM   23  C2  UNL     1       5.427   7.560  17.909  1.00  0.00     0.218 C 
HETATM   24  C1  UNL     1       4.921   8.957  18.195  1.00  0.00     0.117 C 
HETATM   25  O1  UNL     1       5.720   7.319  16.704  1.00  0.00    -0.274 OA
ATOM     26  H1  UNL     1       4.638   6.229  19.059  1.00  0.00     0.168 HD
ENDBRANCH   1  22
BRANCH   1  27
HETATM   27  C4  UNL     1       6.786   4.585  18.988  1.00  0.00     0.334 C 
BRANCH  27  28
HETATM   28  N2  UNL     1       5.721   3.674  18.906  1.00  0.00     0.099 N 
HETATM   29  C5  UNL     1       5.869   3.002  17.593  1.00  0.00     0.278 C 
HETATM   30  C6  UNL     1       5.611   1.536  17.829  1.00  0.00     0.016 C 
HETATM   31  C7  UNL     1       6.938   0.860  18.053  1.00  0.00     0.006 C 
HETATM   32  C11 UNL     1       4.790   1.560  19.099  1.00  0.00     0.042 C 
HETATM   33  C8  UNL     1       7.542   1.081  19.377  1.00  0.00     0.002 C 
HETATM   34  C9  UNL     1       6.840   1.974  20.325  1.00  0.00     0.036 C 
HETATM   35  C10 UNL     1       5.602   2.637  19.861  1.00  0.00     0.224 C 
ENDBRANCH  27  28
ENDBRANCH   1  27
TORSDOF 8
ENDMDL
MODEL 5
REMARK VINA RESULT: -6.776704022      3.801      5.237
REMARK  8 active torsions:
REMARK  status: ('A' for Active; 'I' for Inactive)
REMARK       I    between atoms: C2_2  and  N1_4 
REMARK    1  A    between atoms: N1_4  and  C3_6 
REMARK    2  A    between atoms: C3_6  and  C4_7 
REMARK    3  A    between atoms: C4_7  and  N2_8 
REMARK    4  A    between atoms: C12_16  and  O2_17 
REMARK    5  A    between atoms: C12_16  and  N3_19 
REMARK    6  A    between atoms: C16_23  and  C17_24 
REMARK       I    between atoms: C17_24  and  N4_26 
REMARK    7  A    between atoms: N4_26  and  C18_28 
REMARK    8  A    between atoms: C20_31  and  N5_32 
ROOT
HETATM    1  C3  UNL     1       6.040   4.920  20.728  1.00  0.00     0.091 C 
HETATM    2  C12 UNL     1       6.752   6.097  21.112  1.00  0.00     0.164 C 
ENDROOT
BRANCH   2   3
HETATM    3  O2  UNL     1       7.895   6.341  20.469  1.00  0.00    -0.345 OA
ATOM      4  H2  UNL     1       8.525   6.895  20.915  1.00  0.00     0.219 HD
ENDBRANCH   2   3
BRANCH   2   5
HETATM    5  N3  UNL     1       6.509   7.113  22.065  1.00  0.00    -0.347 N 
HETATM    6  C13 UNL     1       6.817   7.213  23.441  1.00  0.00     0.126 C 
HETATM    7  C14 UNL     1       6.835   8.670  23.815  1.00  0.00     0.022 C 
HETATM    8  C15 UNL     1       6.659   9.365  22.480  1.00  0.00     0.037 C 
HETATM    9  C16 UNL     1       5.746   8.354  21.751  1.00  0.00     0.178 C 
BRANCH   9  10
HETATM   10  C17 UNL     1       4.452   8.402  22.429  1.00  0.00     0.241 C 
HETATM   11  O3  UNL     1       4.118   9.365  23.132  1.00  0.00    -0.271 OA
HETATM   12  N4  UNL     1       3.575   7.305  22.254  1.00  0.00    -0.351 N 
ATOM     13  H4  UNL     1       3.876   6.515  21.682  1.00  0.00     0.163 HD
BRANCH  12  14
HETATM   14  C18 UNL     1       2.246   7.275  22.873  1.00  0.00     0.137 A 
HETATM   15  C19 UNL     1       1.158   6.722  21.999  1.00  0.00     0.140 A 
HETATM   16 CL1  UNL     1      -0.066   5.699  22.794  1.00  0.00    -0.120 Cl
HETATM   17  C20 UNL     1       1.220   8.164  22.271  1.00  0.00     0.233 A 
BRANCH  17  18
HETATM   18  N5  UNL     1       0.275   8.898  23.047  1.00  0.00    -0.071 N 
HETATM   19  C21 UNL     1      -1.043   8.853  22.439  1.00  0.00     0.272 C 
HETATM   20  C22 UNL     1       0.242   8.519  24.443  1.00  0.00     0.272 C 
HETATM   21  C23 UNL     1       0.669  10.319  23.049  1.00  0.00     0.272 C 
ENDBRANCH  17  18
ENDBRANCH  12  14
ENDBRANCH   9  10
ENDBRANCH   2   5
BRANCH   1  22
HETATM   22  N1  UNL     1       4.979   4.438  21.056  1.00  0.00    -0.326 N 
HETATM   23  C2  UNL     1       4.301   3.758  22.023  1.00  0.00     0.218 C 
HETATM   24  C1  UNL     1       3.954   2.287  21.944  1.00  0.00     0.117 C 
HETATM   25  O1  UNL     1       3.915   4.357  23.066  1.00  0.00    -0.274 OA
ATOM     26  H1  UNL     1       4.321   4.614  20.296  1.00  0.00     0.168 HD
ENDBRANCH   1  22
BRANCH   1  27
HETATM   27  C4  UNL     1       6.864   4.072  19.707  1.00  0.00     0.334 C 
BRANCH  27  28
HETATM   28  N2  UNL     1       6.061   3.211  18.942  1.00  0.00     0.099 N 
HETATM   29  C5  UNL     1       6.560   3.329  17.551  1.00  0.00     0.278 C 
HETATM   30  C6  UNL     1       6.610   1.931  16.992  1.00  0.00     0.016 C 
HETATM   31  C7  UNL     1       8.004   1.398  17.191  1.00  0.00     0.006 C 
HETATM   32  C11 UNL     1       5.617   1.204  17.872  1.00  0.00     0.042 C 
HETATM   33  C8  UNL     1       8.328   0.980  18.566  1.00  0.00     0.002 C 
HETATM   34  C9  UNL     1       7.302   1.172  19.614  1.00  0.00     0.036 C 
HETATM   35  C10 UNL     1       6.033   1.827  19.228  1.00  0.00     0.224 C 
ENDBRANCH  27  28
ENDBRANCH   1  27
TORSDOF 8
ENDMDL
