MODEL 1
REMARK VINA RESULT: -7.146647405      0.000      0.000
REMARK  5 active torsions:
REMARK  status: ('A' for Active; 'I' for Inactive)
REMARK    1  A    between atoms: C5_6  and  C6_7 
REMARK       I    between atoms: C6_7  and  N2_9 
REMARK    2  A    between atoms: N3_12  and  C9_13 
REMARK    3  A    between atoms: C12_16  and  N4_17 
REMARK       I    between atoms: N4_17  and  C13_19 
REMARK    4  A    between atoms: C13_19  and  C14_21 
REMARK    5  A    between atoms: C16_23  and  C17_24 
ROOT
HETATM    1  C9  UNL     1       8.108   2.158  18.568  1.00  0.00     0.225 C 
HETATM    2  C10 UNL     1       7.947   2.856  17.259  1.00  0.00     0.038 C 
HETATM    3  C11 UNL     1       8.635   1.914  16.259  1.00  0.00     0.027 C 
HETATM    4  C12 UNL     1       8.956   0.652  17.026  1.00  0.00     0.086 C 
HETATM    5  C18 UNL     1       7.900   0.702  18.131  1.00  0.00     0.061 C 
ENDROOT
BRANCH   1   6
HETATM    6  N3  UNL     1       7.246   2.541  19.617  1.00  0.00     0.096 N 
HETATM    7  C8  UNL     1       6.297   1.551  20.060  1.00  0.00     0.292 C 
HETATM    8  C7  UNL     1       5.641   2.091  21.307  1.00  0.00     0.156 C 
HETATM    9  N2  UNL     1       5.317   3.485  21.278  1.00  0.00    -0.348 N 
HETATM   10  C6  UNL     1       4.279   3.990  22.091  1.00  0.00     0.225 C 
HETATM   11  C20 UNL     1       6.025   4.406  20.438  1.00  0.00     0.156 C 
HETATM   12  O1  UNL     1       3.655   3.151  22.829  1.00  0.00    -0.273 OA
HETATM   13  C19 UNL     1       6.485   3.706  19.194  1.00  0.00     0.292 C 
BRANCH  10  14
HETATM   14  C5  UNL     1       3.863   5.399  22.158  1.00  0.00     0.105 C 
HETATM   15  C4  UNL     1       4.689   6.260  23.065  1.00  0.00     0.043 C 
HETATM   16  C3  UNL     1       3.736   7.390  23.396  1.00  0.00     0.237 C 
HETATM   17  N1  UNL     1       2.412   6.875  23.256  1.00  0.00    -0.074 N 
HETATM   18  C1  UNL     1       1.771   6.833  24.579  1.00  0.00     0.272 C 
HETATM   19  C2  UNL     1       1.582   7.658  22.359  1.00  0.00     0.272 C 
HETATM   20  C21 UNL     1       2.469   5.532  22.779  1.00  0.00     0.250 C 
ENDBRANCH  10  14
ENDBRANCH   1   6
BRANCH   4  21
HETATM   21  N4  UNL     1       8.885  -0.540  16.251  1.00  0.00    -0.355 N 
HETATM   22  C13 UNL     1       9.916  -1.507  16.369  1.00  0.00     0.248 C 
HETATM   23  O2  UNL     1      10.878  -1.312  17.148  1.00  0.00    -0.271 OA
ATOM     24  H4  UNL     1       8.101  -0.697  15.618  1.00  0.00     0.162 HD
BRANCH  22  25
HETATM   25  C14 UNL     1       9.853  -2.748  15.571  1.00  0.00     0.279 C 
HETATM   26  C15 UNL     1       9.134  -3.902  16.246  1.00  0.00     0.076 C 
HETATM   27  C16 UNL     1       8.620  -4.159  14.854  1.00  0.00     0.199 C 
HETATM   28  N5  UNL     1       8.748  -2.712  14.623  1.00  0.00    -0.057 N 
ATOM     29  H52 UNL     1       7.958  -2.081  14.749  1.00  0.00     0.278 HD
ATOM     30  H51 UNL     1       8.863  -2.330  13.684  1.00  0.00     0.278 HD
BRANCH  27  31
HETATM   31  C17 UNL     1       7.197  -4.663  14.764  1.00  0.00     0.118 C 
HETATM   32 BR1  UNL     1       7.025  -6.007  13.382  1.00  0.00    -0.094 Br
ENDBRANCH  27  31
ENDBRANCH  22  25
ENDBRANCH   4  21
TORSDOF 5
ENDMDL
MODEL 2
REMARK VINA RESULT: -7.031961681      2.810      3.585
REMARK  5 active torsions:
REMARK  status: ('A' for Active; 'I' for Inactive)
REMARK    1  A    between atoms: C5_6  and  C6_7 
REMARK       I    between atoms: C6_7  and  N2_9 
REMARK    2  A    between atoms: N3_12  and  C9_13 
REMARK    3  A    between atoms: C12_16  and  N4_17 
REMARK       I    between atoms: N4_17  and  C13_19 
REMARK    4  A    between atoms: C13_19  and  C14_21 
REMARK    5  A    between atoms: C16_23  and  C17_24 
ROOT
HETATM    1  C9  UNL     1       8.147   0.896  17.920  1.00  0.00     0.225 C 
HETATM    2  C10 UNL     1       9.636   0.899  17.812  1.00  0.00     0.038 C 
HETATM    3  C11 UNL     1       9.948  -0.421  17.088  1.00  0.00     0.027 C 
HETATM    4  C12 UNL     1       8.617  -0.983  16.648  1.00  0.00     0.086 C 
HETATM    5  C18 UNL     1       7.774   0.291  16.559  1.00  0.00     0.061 C 
ENDROOT
BRANCH   1   6
HETATM    6  N3  UNL     1       7.514   2.133  18.158  1.00  0.00     0.096 N 
HETATM    7  C8  UNL     1       7.493   3.065  17.059  1.00  0.00     0.292 C 
HETATM    8  C7  UNL     1       6.593   4.207  17.461  1.00  0.00     0.156 C 
HETATM    9  N2  UNL     1       6.724   4.646  18.817  1.00  0.00    -0.348 N 
HETATM   10  C6  UNL     1       6.373   5.966  19.174  1.00  0.00     0.225 C 
HETATM   11  C20 UNL     1       7.205   3.773  19.848  1.00  0.00     0.156 C 
HETATM   12  O1  UNL     1       5.952   6.731  18.238  1.00  0.00    -0.273 OA
HETATM   13  C19 UNL     1       8.182   2.794  19.268  1.00  0.00     0.292 C 
BRANCH  10  14
HETATM   14  C5  UNL     1       6.451   6.528  20.531  1.00  0.00     0.105 C 
HETATM   15  C4  UNL     1       5.358   7.492  20.880  1.00  0.00     0.043 C 
HETATM   16  C3  UNL     1       5.990   8.312  21.987  1.00  0.00     0.237 C 
HETATM   17  N1  UNL     1       7.403   8.257  21.793  1.00  0.00    -0.074 N 
HETATM   18  C1  UNL     1       7.889   9.596  21.428  1.00  0.00     0.272 C 
HETATM   19  C2  UNL     1       8.128   7.799  22.964  1.00  0.00     0.272 C 
HETATM   20  C21 UNL     1       7.702   7.395  20.697  1.00  0.00     0.250 C 
ENDBRANCH  10  14
ENDBRANCH   1   6
BRANCH   4  21
HETATM   21  N4  UNL     1       8.658  -1.700  15.420  1.00  0.00    -0.355 N 
HETATM   22  C13 UNL     1       9.147  -3.033  15.410  1.00  0.00     0.248 C 
HETATM   23  O2  UNL     1       9.536  -3.569  16.473  1.00  0.00    -0.271 OA
ATOM     24  H4  UNL     1       8.341  -1.261  14.555  1.00  0.00     0.162 HD
BRANCH  22  25
HETATM   25  C14 UNL     1       9.195  -3.786  14.141  1.00  0.00     0.279 C 
HETATM   26  C15 UNL     1       8.051  -4.765  13.940  1.00  0.00     0.076 C 
HETATM   27  C16 UNL     1       8.142  -4.296  12.511  1.00  0.00     0.199 C 
HETATM   28  N5  UNL     1       8.629  -3.015  13.044  1.00  0.00    -0.057 N 
ATOM     29  H52 UNL     1       7.997  -2.233  13.213  1.00  0.00     0.278 HD
ATOM     30  H51 UNL     1       9.203  -2.387  12.482  1.00  0.00     0.278 HD
BRANCH  27  31
HETATM   31  C17 UNL     1       6.826  -4.184  11.774  1.00  0.00     0.118 C 
HETATM   32 BR1  UNL     1       7.062  -4.514   9.882  1.00  0.00    -0.094 Br
ENDBRANCH  27  31
ENDBRANCH  22  25
ENDBRANCH   4  21
TORSDOF 5
ENDMDL
MODEL 3
REMARK VINA RESULT: -6.910789637      1.789      2.529
REMARK  5 active torsions:
REMARK  status: ('A' for Active; 'I' for Inactive)
REMARK    1  A    between atoms: C5_6  and  C6_7 
REMARK       I    between atoms: C6_7  and  N2_9 
REMARK    2  A    between atoms: N3_12  and  C9_13 
REMARK    3  A    between atoms: C12_16  and  N4_17 
REMARK       I    between atoms: N4_17  and  C13_19 
REMARK    4  A    between atoms: C13_19  and  C14_21 
REMARK    5  A    between atoms: C16_23  and  C17_24 
ROOT
HETATM    1  C9  UNL     1       6.684   2.274  20.715  1.00  0.00     0.225 C 
HETATM    2  C10 UNL     1       7.216   3.413  19.911  1.00  0.00     0.038 C 
HETATM    3  C11 UNL     1       8.132   2.732  18.882  1.00  0.00     0.027 C 
HETATM    4  C12 UNL     1       7.900   1.246  19.031  1.00  0.00     0.086 C 
HETATM    5  C18 UNL     1       6.484   1.227  19.610  1.00  0.00     0.061 C 
ENDROOT
BRANCH   1   6
HETATM    6  N3  UNL     1       5.512   2.503  21.467  1.00  0.00     0.096 N 
HETATM    7  C8  UNL     1       4.540   1.440  21.478  1.00  0.00     0.292 C 
HETATM    8  C7  UNL     1       3.491   1.808  22.499  1.00  0.00     0.156 C 
HETATM    9  N2  UNL     1       3.101   3.186  22.512  1.00  0.00    -0.348 N 
HETATM   10  C6  UNL     1       1.830   3.560  22.999  1.00  0.00     0.225 C 
HETATM   11  C20 UNL     1       3.976   4.220  22.043  1.00  0.00     0.156 C 
HETATM   12  O1  UNL     1       1.062   2.621  23.407  1.00  0.00    -0.273 OA
HETATM   13  C19 UNL     1       4.848   3.688  20.945  1.00  0.00     0.292 C 
BRANCH  10  14
HETATM   14  C5  UNL     1       1.322   4.938  23.074  1.00  0.00     0.105 C 
HETATM   15  C4  UNL     1       1.681   5.677  24.328  1.00  0.00     0.043 C 
HETATM   16  C3  UNL     1       0.597   6.732  24.405  1.00  0.00     0.237 C 
HETATM   17  N1  UNL     1      -0.536   6.220  23.703  1.00  0.00    -0.074 N 
HETATM   18  C1  UNL     1      -1.626   5.980  24.661  1.00  0.00     0.272 C 
HETATM   19  C2  UNL     1      -1.016   7.107  22.660  1.00  0.00     0.272 C 
HETATM   20  C21 UNL     1      -0.209   4.959  23.123  1.00  0.00     0.250 C 
ENDBRANCH  10  14
ENDBRANCH   1   6
BRANCH   4  21
HETATM   21  N4  UNL     1       8.007   0.510  17.818  1.00  0.00    -0.355 N 
HETATM   22  C13 UNL     1       9.267  -0.019  17.437  1.00  0.00     0.248 C 
HETATM   23  O2  UNL     1      10.273   0.162  18.162  1.00  0.00    -0.271 OA
ATOM     24  H4  UNL     1       7.187   0.364  17.230  1.00  0.00     0.162 HD
BRANCH  22  25
HETATM   25  C14 UNL     1       9.391  -0.785  16.180  1.00  0.00     0.279 C 
HETATM   26  C15 UNL     1      10.076  -2.132  16.323  1.00  0.00     0.076 C 
HETATM   27  C16 UNL     1       9.040  -2.562  15.318  1.00  0.00     0.199 C 
HETATM   28  N5  UNL     1       8.170  -1.521  15.886  1.00  0.00    -0.057 N 
ATOM     29  H52 UNL     1       7.487  -1.735  16.613  1.00  0.00     0.278 HD
ATOM     30  H51 UNL     1       7.413  -1.103  15.344  1.00  0.00     0.278 HD
BRANCH  27  31
HETATM   31  C17 UNL     1       8.500  -3.963  15.492  1.00  0.00     0.118 C 
HETATM   32 BR1  UNL     1       9.336  -5.187  14.248  1.00  0.00    -0.094 Br
ENDBRANCH  27  31
ENDBRANCH  22  25
ENDBRANCH   4  21
TORSDOF 5
ENDMDL
MODEL 4
REMARK VINA RESULT: -6.908762587      5.319     10.442
REMARK  5 active torsions:
REMARK  status: ('A' for Active; 'I' for Inactive)
REMARK    1  A    between atoms: C5_6  and  C6_7 
REMARK       I    between atoms: C6_7  and  N2_9 
REMARK    2  A    between atoms: N3_12  and  C9_13 
REMARK    3  A    between atoms: C12_16  and  N4_17 
REMARK       I    between atoms: N4_17  and  C13_19 
REMARK    4  A    between atoms: C13_19  and  C14_21 
REMARK    5  A    between atoms: C16_23  and  C17_24 
ROOT
HETATM    1  C9  UNL     1       5.541   7.383  21.124  1.00  0.00     0.225 C 
HETATM    2  C10 UNL     1       6.417   8.365  20.418  1.00  0.00     0.038 C 
HETATM    3  C11 UNL     1       6.824   9.348  21.527  1.00  0.00     0.027 C 
HETATM    4  C12 UNL     1       6.329   8.748  22.822  1.00  0.00     0.086 C 
HETATM    5  C18 UNL     1       6.286   7.262  22.460  1.00  0.00     0.061 C 
ENDROOT
BRANCH   1   6
HETATM    6  N3  UNL     1       5.335   6.135  20.500  1.00  0.00     0.096 N 
HETATM    7  C8  UNL     1       4.903   5.056  21.352  1.00  0.00     0.292 C 
HETATM    8  C7  UNL     1       4.543   3.898  20.455  1.00  0.00     0.156 C 
HETATM    9  N2  UNL     1       5.425   3.677  19.349  1.00  0.00    -0.348 N 
HETATM   10  C6  UNL     1       5.532   2.394  18.770  1.00  0.00     0.225 C 
HETATM   11  C20 UNL     1       6.218   4.736  18.796  1.00  0.00     0.156 C 
HETATM   12  O1  UNL     1       4.820   1.462  19.283  1.00  0.00    -0.273 OA
HETATM   13  C19 UNL     1       6.579   5.715  19.873  1.00  0.00     0.292 C 
BRANCH  10  14
HETATM   14  C5  UNL     1       6.390   2.047  17.628  1.00  0.00     0.105 C 
HETATM   15  C4  UNL     1       6.103   0.715  17.002  1.00  0.00     0.043 C 
HETATM   16  C3  UNL     1       7.421   0.380  16.334  1.00  0.00     0.237 C 
HETATM   17  N1  UNL     1       8.442   1.073  17.052  1.00  0.00    -0.074 N 
HETATM   18  C1  UNL     1       9.298   0.092  17.735  1.00  0.00     0.272 C 
HETATM   19  C2  UNL     1       9.272   1.911  16.207  1.00  0.00     0.272 C 
HETATM   20  C21 UNL     1       7.849   1.882  18.065  1.00  0.00     0.250 C 
ENDBRANCH  10  14
ENDBRANCH   1   6
BRANCH   4  21
HETATM   21  N4  UNL     1       7.158   9.015  23.948  1.00  0.00    -0.355 N 
HETATM   22  C13 UNL     1       8.377   8.303  24.096  1.00  0.00     0.248 C 
HETATM   23  O2  UNL     1       8.717   7.450  23.244  1.00  0.00    -0.271 OA
ATOM     24  H4  UNL     1       6.879   9.710  24.640  1.00  0.00     0.162 HD
BRANCH  22  25
HETATM   25  C14 UNL     1       9.245   8.572  25.261  1.00  0.00     0.279 C 
HETATM   26  C15 UNL     1       9.318   7.442  26.272  1.00  0.00     0.076 C 
HETATM   27  C16 UNL     1      10.764   7.854  26.357  1.00  0.00     0.199 C 
HETATM   28  N5  UNL     1      10.641   8.291  24.958  1.00  0.00    -0.057 N 
ATOM     29  H52 UNL     1      10.907   7.683  24.184  1.00  0.00     0.278 HD
ATOM     30  H51 UNL     1      11.255   9.005  24.566  1.00  0.00     0.278 HD
BRANCH  27  31
HETATM   31  C17 UNL     1      11.755   6.729  26.555  1.00  0.00     0.118 C 
HETATM   32 BR1  UNL     1      13.558   7.320  26.175  1.00  0.00    -0.094 Br
ENDBRANCH  27  31
ENDBRANCH  22  25
ENDBRANCH   4  21
TORSDOF 5
ENDMDL
MODEL 5
REMARK VINA RESULT: -6.867235442      5.211     10.628
REMARK  5 active torsions:
REMARK  status: ('A' for Active; 'I' for Inactive)
REMARK    1  A    between atoms: C5_6  and  C6_7 
REMARK       I    between atoms: C6_7  and  N2_9 
REMARK    2  A    between atoms: N3_12  and  C9_13 
REMARK    3  A    between atoms: C12_16  and  N4_17 
REMARK       I    between atoms: N4_17  and  C13_19 
REMARK    4  A    between atoms: C13_19  and  C14_21 
REMARK    5  A    between atoms: C16_23  and  C17_24 
ROOT
HETATM    1  C9  UNL     1       5.207   6.808  21.654  1.00  0.00     0.225 C 
HETATM    2  C10 UNL     1       5.328   8.232  21.222  1.00  0.00     0.038 C 
HETATM    3  C11 UNL     1       5.596   8.986  22.534  1.00  0.00     0.027 C 
HETATM    4  C12 UNL     1       5.818   7.927  23.589  1.00  0.00     0.086 C 
HETATM    5  C18 UNL     1       6.298   6.754  22.732  1.00  0.00     0.061 C 
ENDROOT
BRANCH   1   6
HETATM    6  N3  UNL     1       5.369   5.816  20.664  1.00  0.00     0.096 N 
HETATM    7  C8  UNL     1       4.391   4.759  20.650  1.00  0.00     0.292 C 
HETATM    8  C7  UNL     1       4.629   3.948  19.401  1.00  0.00     0.156 C 
HETATM    9  N2  UNL     1       6.003   3.707  19.076  1.00  0.00    -0.348 N 
HETATM   10  C6  UNL     1       6.363   2.585  18.298  1.00  0.00     0.225 C 
HETATM   11  C20 UNL     1       7.046   4.585  19.518  1.00  0.00     0.156 C 
HETATM   12  O1  UNL     1       5.418   1.810  17.919  1.00  0.00    -0.273 OA
HETATM   13  C19 UNL     1       6.672   5.193  20.837  1.00  0.00     0.292 C 
BRANCH  10  14
HETATM   14  C5  UNL     1       7.733   2.239  17.891  1.00  0.00     0.105 C 
HETATM   15  C4  UNL     1       8.057   2.523  16.455  1.00  0.00     0.043 C 
HETATM   16  C3  UNL     1       9.205   1.572  16.187  1.00  0.00     0.237 C 
HETATM   17  N1  UNL     1       9.068   0.484  17.100  1.00  0.00    -0.074 N 
HETATM   18  C1  UNL     1       8.751  -0.739  16.347  1.00  0.00     0.272 C 
HETATM   19  C2  UNL     1      10.258   0.247  17.896  1.00  0.00     0.272 C 
HETATM   20  C21 UNL     1       7.968   0.729  17.975  1.00  0.00     0.250 C 
ENDBRANCH  10  14
ENDBRANCH   1   6
BRANCH   4  21
HETATM   21  N4  UNL     1       6.753   8.289  24.598  1.00  0.00    -0.355 N 
HETATM   22  C13 UNL     1       8.131   8.017  24.397  1.00  0.00     0.248 C 
HETATM   23  O2  UNL     1       8.517   7.464  23.341  1.00  0.00    -0.271 OA
ATOM     24  H4  UNL     1       6.436   8.739  25.457  1.00  0.00     0.162 HD
BRANCH  22  25
HETATM   25  C14 UNL     1       9.111   8.388  25.437  1.00  0.00     0.279 C 
HETATM   26  C15 UNL     1       9.329   7.335  26.509  1.00  0.00     0.076 C 
HETATM   27  C16 UNL     1      10.762   7.787  26.406  1.00  0.00     0.199 C 
HETATM   28  N5  UNL     1      10.474   8.120  25.002  1.00  0.00    -0.057 N 
ATOM     29  H52 UNL     1      10.674   7.464  24.247  1.00  0.00     0.278 HD
ATOM     30  H51 UNL     1      11.020   8.818  24.497  1.00  0.00     0.278 HD
BRANCH  27  31
HETATM   31  C17 UNL     1      11.803   6.703  26.569  1.00  0.00     0.118 C 
HETATM   32 BR1  UNL     1      13.571   7.373  26.157  1.00  0.00    -0.094 Br
ENDBRANCH  27  31
ENDBRANCH  22  25
ENDBRANCH   4  21
TORSDOF 5
ENDMDL
