MODEL 1
REMARK VINA RESULT: -8.678224141      0.000      0.000
REMARK  5 active torsions:
REMARK  status: ('A' for Active; 'I' for Inactive)
REMARK       I    between atoms: C3_3  and  N1_5 
REMARK    1  A    between atoms: N1_5  and  C4_7 
REMARK    2  A    between atoms: C4_7  and  C5_8 
REMARK    3  A    between atoms: C9_12  and  N2_13 
REMARK       I    between atoms: N2_13  and  C10_15 
REMARK    4  A    between atoms: C10_15  and  C11_17 
REMARK       I    between atoms: N3_27  and  C20_28 
REMARK    5  A    between atoms: C20_28  and  C21_30 
ROOT
HETATM    1  C1  UNL     1       9.985   7.560  26.075  1.00  0.00     0.022 C 
HETATM    2  C2  UNL     1       9.020   7.765  25.388  1.00  0.00    -0.017 C 
HETATM    3  C3  UNL     1       7.840   8.018  24.579  1.00  0.00     0.295 C 
HETATM    4  O1  UNL     1       7.305   9.149  24.579  1.00  0.00    -0.258 OA
HETATM    5  N1  UNL     1       7.278   6.968  23.773  1.00  0.00    -0.350 N 
ATOM      6  H1  UNL     1       7.707   6.043  23.765  1.00  0.00     0.163 HD
ENDROOT
BRANCH   5   7
HETATM    7  C4  UNL     1       6.112   7.229  22.980  1.00  0.00     0.128 C 
BRANCH   7   8
HETATM    8  C5  UNL     1       6.370   8.145  21.831  1.00  0.00     0.011 C 
HETATM    9  C6  UNL     1       5.158   8.296  20.943  1.00  0.00     0.032 C 
HETATM   10  C7  UNL     1       5.574   8.413  19.525  1.00  0.00     0.089 C 
HETATM   11  C8  UNL     1       5.882   7.116  18.834  1.00  0.00     0.050 C 
HETATM   12  N3  UNL     1       6.711   9.264  19.355  1.00  0.00    -0.346 N 
HETATM   13  C9  UNL     1       6.515   6.068  19.672  1.00  0.00     0.086 C 
HETATM   14  C17 UNL     1       7.707   6.502  20.462  1.00  0.00     0.032 C 
HETATM   15  C18 UNL     1       7.615   7.861  21.054  1.00  0.00     0.011 C 
HETATM   16  C19 UNL     1       7.923   8.966  20.063  1.00  0.00     0.131 C 
HETATM   17  C20 UNL     1       6.663  10.388  18.508  1.00  0.00     0.230 C 
HETATM   18  O4  UNL     1       7.702  11.130  18.350  1.00  0.00    -0.273 OA
BRANCH  13  19
HETATM   19  N2  UNL     1       6.802   4.936  18.805  1.00  0.00    -0.354 N 
HETATM   20  C10 UNL     1       7.023   3.621  19.254  1.00  0.00     0.252 C 
HETATM   21  O2  UNL     1       6.977   3.378  20.467  1.00  0.00    -0.270 OA
ATOM     22  H2  UNL     1       6.848   5.108  17.801  1.00  0.00     0.162 HD
BRANCH  20  23
HETATM   23  C11 UNL     1       7.304   2.553  18.332  1.00  0.00     0.141 C 
HETATM   24  C12 UNL     1       8.614   1.829  18.585  1.00  0.00     0.048 C 
HETATM   25  C13 UNL     1       8.446   0.597  17.707  1.00  0.00     0.010 C 
HETATM   26  C14 UNL     1       7.040   0.657  17.194  1.00  0.00     0.013 C 
HETATM   27  C15 UNL     1       6.962   1.813  16.223  1.00  0.00     0.174 C 
HETATM   28  C16 UNL     1       6.345   1.371  18.374  1.00  0.00     0.054 C 
HETATM   29  O3  UNL     1       7.266   2.928  16.992  1.00  0.00    -0.370 OA
ENDBRANCH  20  23
ENDBRANCH  13  19
BRANCH  17  30
HETATM   30  C21 UNL     1       5.457  10.815  17.743  1.00  0.00     0.188 C 
HETATM   31 BR1  UNL     1       5.763  10.483  15.869  1.00  0.00    -0.087 Br
ENDBRANCH  17  30
ENDBRANCH   7   8
ENDBRANCH   5   7
TORSDOF 5
ENDMDL
MODEL 2
REMARK VINA RESULT: -8.594969296      2.625      3.133
REMARK  5 active torsions:
REMARK  status: ('A' for Active; 'I' for Inactive)
REMARK       I    between atoms: C3_3  and  N1_5 
REMARK    1  A    between atoms: N1_5  and  C4_7 
REMARK    2  A    between atoms: C4_7  and  C5_8 
REMARK    3  A    between atoms: C9_12  and  N2_13 
REMARK       I    between atoms: N2_13  and  C10_15 
REMARK    4  A    between atoms: C10_15  and  C11_17 
REMARK       I    between atoms: N3_27  and  C20_28 
REMARK    5  A    between atoms: C20_28  and  C21_30 
ROOT
HETATM    1  C1  UNL     1      10.684   7.629  26.393  1.00  0.00     0.022 C 
HETATM    2  C2  UNL     1      10.412   8.140  25.340  1.00  0.00    -0.017 C 
HETATM    3  C3  UNL     1      10.087   8.782  24.078  1.00  0.00     0.295 C 
HETATM    4  O1  UNL     1      10.952   9.448  23.467  1.00  0.00    -0.258 OA
HETATM    5  N1  UNL     1       8.766   8.656  23.522  1.00  0.00    -0.350 N 
ATOM      6  H1  UNL     1       8.054   8.115  24.011  1.00  0.00     0.163 HD
ENDROOT
BRANCH   5   7
HETATM    7  C4  UNL     1       8.456   9.295  22.277  1.00  0.00     0.128 C 
BRANCH   7   8
HETATM    8  C5  UNL     1       7.023   9.165  21.884  1.00  0.00     0.011 C 
HETATM    9  C6  UNL     1       6.210   8.448  22.936  1.00  0.00     0.032 C 
HETATM   10  C7  UNL     1       5.176   7.600  22.294  1.00  0.00     0.089 C 
HETATM   11  C8  UNL     1       5.653   6.266  21.797  1.00  0.00     0.050 C 
HETATM   12  N3  UNL     1       4.531   8.255  21.198  1.00  0.00    -0.346 N 
HETATM   13  C9  UNL     1       7.034   6.232  21.253  1.00  0.00     0.086 C 
HETATM   14  C17 UNL     1       7.357   7.281  20.239  1.00  0.00     0.032 C 
HETATM   15  C18 UNL     1       6.783   8.624  20.511  1.00  0.00     0.011 C 
HETATM   16  C19 UNL     1       5.326   8.743  20.107  1.00  0.00     0.131 C 
HETATM   17  C20 UNL     1       3.135   8.431  21.170  1.00  0.00     0.230 C 
HETATM   18  O4  UNL     1       2.570   9.003  20.165  1.00  0.00    -0.273 OA
BRANCH  13  19
HETATM   19  N2  UNL     1       7.270   4.886  20.756  1.00  0.00    -0.354 N 
HETATM   20  C10 UNL     1       6.763   4.381  19.545  1.00  0.00     0.252 C 
HETATM   21  O2  UNL     1       6.062   5.109  18.829  1.00  0.00    -0.270 OA
ATOM     22  H2  UNL     1       7.842   4.264  21.326  1.00  0.00     0.162 HD
BRANCH  20  23
HETATM   23  C11 UNL     1       7.039   3.035  19.121  1.00  0.00     0.141 C 
HETATM   24  C12 UNL     1       8.477   2.785  18.704  1.00  0.00     0.048 C 
HETATM   25  C13 UNL     1       8.514   1.265  18.658  1.00  0.00     0.010 C 
HETATM   26  C14 UNL     1       7.192   0.813  19.199  1.00  0.00     0.013 C 
HETATM   27  C15 UNL     1       6.137   1.186  18.182  1.00  0.00     0.174 C 
HETATM   28  C16 UNL     1       6.893   1.960  20.190  1.00  0.00     0.054 C 
HETATM   29  O3  UNL     1       6.205   2.570  18.108  1.00  0.00    -0.370 OA
ENDBRANCH  20  23
ENDBRANCH  13  19
BRANCH  17  30
HETATM   30  C21 UNL     1       2.209   7.993  22.253  1.00  0.00     0.188 C 
HETATM   31 BR1  UNL     1       2.103   9.389  23.578  1.00  0.00    -0.087 Br
ENDBRANCH  17  30
ENDBRANCH   7   8
ENDBRANCH   5   7
TORSDOF 5
ENDMDL
MODEL 3
REMARK VINA RESULT: -8.591589515      1.543      1.825
REMARK  5 active torsions:
REMARK  status: ('A' for Active; 'I' for Inactive)
REMARK       I    between atoms: C3_3  and  N1_5 
REMARK    1  A    between atoms: N1_5  and  C4_7 
REMARK    2  A    between atoms: C4_7  and  C5_8 
REMARK    3  A    between atoms: C9_12  and  N2_13 
REMARK       I    between atoms: N2_13  and  C10_15 
REMARK    4  A    between atoms: C10_15  and  C11_17 
REMARK       I    between atoms: N3_27  and  C20_28 
REMARK    5  A    between atoms: C20_28  and  C21_30 
ROOT
HETATM    1  C1  UNL     1      12.073   7.858  25.804  1.00  0.00     0.022 C 
HETATM    2  C2  UNL     1      10.927   7.899  25.445  1.00  0.00    -0.017 C 
HETATM    3  C3  UNL     1       9.546   7.927  24.995  1.00  0.00     0.295 C 
HETATM    4  O1  UNL     1       8.765   6.998  25.297  1.00  0.00    -0.258 OA
HETATM    5  N1  UNL     1       9.067   9.025  24.199  1.00  0.00    -0.350 N 
ATOM      6  H1  UNL     1       9.695   9.788  23.948  1.00  0.00     0.163 HD
ENDROOT
BRANCH   5   7
HETATM    7  C4  UNL     1       7.702   9.041  23.759  1.00  0.00     0.128 C 
BRANCH   7   8
HETATM    8  C5  UNL     1       7.549   9.375  22.313  1.00  0.00     0.011 C 
HETATM    9  C6  UNL     1       6.106   9.342  21.872  1.00  0.00     0.032 C 
HETATM   10  C7  UNL     1       6.005   8.821  20.487  1.00  0.00     0.089 C 
HETATM   11  C8  UNL     1       6.049   7.326  20.355  1.00  0.00     0.050 C 
HETATM   12  N3  UNL     1       7.016   9.353  19.626  1.00  0.00    -0.346 N 
HETATM   13  C9  UNL     1       6.928   6.615  21.316  1.00  0.00     0.086 C 
HETATM   14  C17 UNL     1       8.322   7.141  21.430  1.00  0.00     0.032 C 
HETATM   15  C18 UNL     1       8.447   8.621  21.385  1.00  0.00     0.011 C 
HETATM   16  C19 UNL     1       8.397   9.180  19.977  1.00  0.00     0.131 C 
HETATM   17  C20 UNL     1       6.683  10.041  18.444  1.00  0.00     0.230 C 
HETATM   18  O4  UNL     1       7.606  10.493  17.670  1.00  0.00    -0.273 OA
BRANCH  13  19
HETATM   19  N2  UNL     1       6.893   5.203  20.971  1.00  0.00    -0.354 N 
HETATM   20  C10 UNL     1       6.889   4.701  19.657  1.00  0.00     0.252 C 
HETATM   21  O2  UNL     1       6.914   5.492  18.704  1.00  0.00    -0.270 OA
ATOM     22  H2  UNL     1       6.869   4.528  21.735  1.00  0.00     0.162 HD
BRANCH  20  23
HETATM   23  C11 UNL     1       6.851   3.287  19.395  1.00  0.00     0.141 C 
HETATM   24  C12 UNL     1       8.145   2.710  18.849  1.00  0.00     0.048 C 
HETATM   25  C13 UNL     1       7.897   1.218  19.012  1.00  0.00     0.010 C 
HETATM   26  C14 UNL     1       6.606   1.103  19.763  1.00  0.00     0.013 C 
HETATM   27  C15 UNL     1       5.501   1.561  18.838  1.00  0.00     0.174 C 
HETATM   28  C16 UNL     1       6.666   2.392  20.613  1.00  0.00     0.054 C 
HETATM   29  O3  UNL     1       5.810   2.886  18.563  1.00  0.00    -0.370 OA
ENDBRANCH  20  23
ENDBRANCH  13  19
BRANCH  17  30
HETATM   30  C21 UNL     1       5.288  10.305  17.989  1.00  0.00     0.188 C 
HETATM   31 BR1  UNL     1       5.344  10.983  16.185  1.00  0.00    -0.087 Br
ENDBRANCH  17  30
ENDBRANCH   7   8
ENDBRANCH   5   7
TORSDOF 5
ENDMDL
MODEL 4
REMARK VINA RESULT: -8.488064183      1.956      2.638
REMARK  5 active torsions:
REMARK  status: ('A' for Active; 'I' for Inactive)
REMARK       I    between atoms: C3_3  and  N1_5 
REMARK    1  A    between atoms: N1_5  and  C4_7 
REMARK    2  A    between atoms: C4_7  and  C5_8 
REMARK    3  A    between atoms: C9_12  and  N2_13 
REMARK       I    between atoms: N2_13  and  C10_15 
REMARK    4  A    between atoms: C10_15  and  C11_17 
REMARK       I    between atoms: N3_27  and  C20_28 
REMARK    5  A    between atoms: C20_28  and  C21_30 
ROOT
HETATM    1  C1  UNL     1       1.435   8.162  25.323  1.00  0.00     0.022 C 
HETATM    2  C2  UNL     1       2.515   7.896  24.871  1.00  0.00    -0.017 C 
HETATM    3  C3  UNL     1       3.826   7.555  24.342  1.00  0.00     0.295 C 
HETATM    4  O1  UNL     1       4.026   6.432  23.829  1.00  0.00    -0.258 OA
HETATM    5  N1  UNL     1       4.901   8.508  24.405  1.00  0.00    -0.350 N 
ATOM      6  H1  UNL     1       4.747   9.427  24.820  1.00  0.00     0.163 HD
ENDROOT
BRANCH   5   7
HETATM    7  C4  UNL     1       6.189   8.160  23.882  1.00  0.00     0.128 C 
BRANCH   7   8
HETATM    8  C5  UNL     1       6.550   8.913  22.645  1.00  0.00     0.011 C 
HETATM    9  C6  UNL     1       5.417   8.939  21.647  1.00  0.00     0.032 C 
HETATM   10  C7  UNL     1       5.951   8.864  20.266  1.00  0.00     0.089 C 
HETATM   11  C8  UNL     1       6.304   7.486  19.785  1.00  0.00     0.050 C 
HETATM   12  N3  UNL     1       7.105   9.687  20.077  1.00  0.00    -0.346 N 
HETATM   13  C9  UNL     1       6.855   6.562  20.807  1.00  0.00     0.086 C 
HETATM   14  C17 UNL     1       7.981   7.103  21.627  1.00  0.00     0.032 C 
HETATM   15  C18 UNL     1       7.853   8.529  22.021  1.00  0.00     0.011 C 
HETATM   16  C19 UNL     1       8.251   9.490  20.918  1.00  0.00     0.131 C 
HETATM   17  C20 UNL     1       7.138  10.686  19.085  1.00  0.00     0.230 C 
HETATM   18  O4  UNL     1       8.193  11.402  18.916  1.00  0.00    -0.273 OA
BRANCH  13  19
HETATM   19  N2  UNL     1       7.204   5.325  20.129  1.00  0.00    -0.354 N 
HETATM   20  C10 UNL     1       6.397   4.173  20.101  1.00  0.00     0.252 C 
HETATM   21  O2  UNL     1       5.306   4.182  20.689  1.00  0.00    -0.270 OA
ATOM     22  H2  UNL     1       8.097   5.289  19.638  1.00  0.00     0.162 HD
BRANCH  20  23
HETATM   23  C11 UNL     1       6.813   2.983  19.408  1.00  0.00     0.141 C 
HETATM   24  C12 UNL     1       8.278   2.962  19.012  1.00  0.00     0.048 C 
HETATM   25  C13 UNL     1       8.464   1.498  18.639  1.00  0.00     0.010 C 
HETATM   26  C14 UNL     1       7.179   0.822  19.007  1.00  0.00     0.013 C 
HETATM   27  C15 UNL     1       6.118   1.315  18.050  1.00  0.00     0.174 C 
HETATM   28  C16 UNL     1       6.745   1.691  20.210  1.00  0.00     0.054 C 
HETATM   29  O3  UNL     1       6.053   2.682  18.281  1.00  0.00    -0.370 OA
ENDBRANCH  20  23
ENDBRANCH  13  19
BRANCH  17  30
HETATM   30  C21 UNL     1       6.003  11.002  18.172  1.00  0.00     0.188 C 
HETATM   31 BR1  UNL     1       6.344  10.188  16.458  1.00  0.00    -0.087 Br
ENDBRANCH  17  30
ENDBRANCH   7   8
ENDBRANCH   5   7
TORSDOF 5
ENDMDL
MODEL 5
REMARK VINA RESULT: -8.453395939      3.307      4.349
REMARK  5 active torsions:
REMARK  status: ('A' for Active; 'I' for Inactive)
REMARK       I    between atoms: C3_3  and  N1_5 
REMARK    1  A    between atoms: N1_5  and  C4_7 
REMARK    2  A    between atoms: C4_7  and  C5_8 
REMARK    3  A    between atoms: C9_12  and  N2_13 
REMARK       I    between atoms: N2_13  and  C10_15 
REMARK    4  A    between atoms: C10_15  and  C11_17 
REMARK       I    between atoms: N3_27  and  C20_28 
REMARK    5  A    between atoms: C20_28  and  C21_30 
ROOT
HETATM    1  C1  UNL     1      10.670   7.866  25.874  1.00  0.00     0.022 C 
HETATM    2  C2  UNL     1      10.003   8.274  24.962  1.00  0.00    -0.017 C 
HETATM    3  C3  UNL     1       9.205   8.793  23.864  1.00  0.00     0.295 C 
HETATM    4  O1  UNL     1       9.759   9.339  22.884  1.00  0.00    -0.258 OA
HETATM    5  N1  UNL     1       7.771   8.682  23.897  1.00  0.00    -0.350 N 
ATOM      6  H1  UNL     1       7.310   8.237  24.691  1.00  0.00     0.163 HD
ENDROOT
BRANCH   5   7
HETATM    7  C4  UNL     1       6.994   9.199  22.809  1.00  0.00     0.128 C 
BRANCH   7   8
HETATM    8  C5  UNL     1       5.530   8.952  22.958  1.00  0.00     0.011 C 
HETATM    9  C6  UNL     1       5.224   8.036  24.119  1.00  0.00     0.032 C 
HETATM   10  C7  UNL     1       4.079   7.154  23.786  1.00  0.00     0.089 C 
HETATM   11  C8  UNL     1       4.414   5.946  22.960  1.00  0.00     0.050 C 
HETATM   12  N3  UNL     1       3.027   7.850  23.112  1.00  0.00    -0.346 N 
HETATM   13  C9  UNL     1       5.484   6.127  21.948  1.00  0.00     0.086 C 
HETATM   14  C17 UNL     1       5.331   7.312  21.051  1.00  0.00     0.032 C 
HETATM   15  C18 UNL     1       4.821   8.544  21.706  1.00  0.00     0.011 C 
HETATM   16  C19 UNL     1       3.316   8.542  21.889  1.00  0.00     0.131 C 
HETATM   17  C20 UNL     1       1.716   7.869  23.625  1.00  0.00     0.230 C 
HETATM   18  O4  UNL     1       0.778   8.482  22.994  1.00  0.00    -0.273 OA
BRANCH  13  19
HETATM   19  N2  UNL     1       5.597   4.880  21.209  1.00  0.00    -0.354 N 
HETATM   20  C10 UNL     1       6.734   4.480  20.484  1.00  0.00     0.252 C 
HETATM   21  O2  UNL     1       7.725   5.223  20.451  1.00  0.00    -0.270 OA
ATOM     22  H2  UNL     1       4.795   4.251  21.217  1.00  0.00     0.162 HD
BRANCH  20  23
HETATM   23  C11 UNL     1       6.768   3.229  19.776  1.00  0.00     0.141 C 
HETATM   24  C12 UNL     1       8.100   2.909  19.122  1.00  0.00     0.048 C 
HETATM   25  C13 UNL     1       7.918   1.437  18.781  1.00  0.00     0.010 C 
HETATM   26  C14 UNL     1       6.615   1.038  19.404  1.00  0.00     0.013 C 
HETATM   27  C15 UNL     1       5.514   1.733  18.635  1.00  0.00     0.174 C 
HETATM   28  C16 UNL     1       6.594   1.980  20.628  1.00  0.00     0.054 C 
HETATM   29  O3  UNL     1       5.768   3.085  18.818  1.00  0.00    -0.370 OA
ENDBRANCH  20  23
ENDBRANCH  13  19
BRANCH  17  30
HETATM   30  C21 UNL     1       1.300   7.213  24.897  1.00  0.00     0.188 C 
HETATM   31 BR1  UNL     1      -0.459   7.841  25.372  1.00  0.00    -0.087 Br
ENDBRANCH  17  30
ENDBRANCH   7   8
ENDBRANCH   5   7
TORSDOF 5
ENDMDL
