MODEL 1
REMARK VINA RESULT: -7.570601822      0.000      0.000
REMARK  7 active torsions:
REMARK  status: ('A' for Active; 'I' for Inactive)
REMARK    1  A    between atoms: C3_3  and  C4_4 
REMARK       I    between atoms: C4_4  and  N1_6 
REMARK    2  A    between atoms: N1_6  and  C5_8 
REMARK    3  A    between atoms: C11_15  and  S1_16 
REMARK    4  A    between atoms: S1_16  and  C12_17 
REMARK    5  A    between atoms: C12_17  and  C13_18 
REMARK       I    between atoms: C13_18  and  N3_20 
REMARK    6  A    between atoms: N4_23  and  C16_24 
REMARK    7  A    between atoms: C16_24  and  C17_26 
ROOT
HETATM    1  S1  UNL     1       6.092   8.457  19.428  1.00  0.00    -0.102 SA
ENDROOT
BRANCH   1   2
HETATM    2  C11 UNL     1       6.529   8.646  21.157  1.00  0.00     0.079 A 
HETATM    3  C2  UNL     1       7.793   8.840  21.658  1.00  0.00    -0.011 A 
HETATM    4  C1  UNL     1       9.042   8.906  20.853  1.00  0.00     0.052 C 
HETATM    5  C3  UNL     1       7.724   8.961  23.061  1.00  0.00     0.062 A 
HETATM    6  C8  UNL     1       6.395   8.830  23.367  1.00  0.00     0.024 A 
HETATM    7  C9  UNL     1       5.815   8.875  24.739  1.00  0.00     0.069 C 
HETATM    8  N2  UNL     1       5.727   8.646  22.213  1.00  0.00    -0.348 N 
HETATM    9  C10 UNL     1       4.290   8.469  22.123  1.00  0.00     0.156 C 
BRANCH   5  10
HETATM   10  C4  UNL     1       8.902   9.165  23.861  1.00  0.00     0.254 C 
HETATM   11  O1  UNL     1       9.688  10.119  23.586  1.00  0.00    -0.268 OA
HETATM   12  N1  UNL     1       9.258   8.368  24.959  1.00  0.00    -0.352 N 
ATOM     13  H1  UNL     1       8.657   7.589  25.226  1.00  0.00     0.163 HD
BRANCH  12  14
HETATM   14  C5  UNL     1      10.483   8.635  25.732  1.00  0.00     0.084 A 
HETATM   15  C6  UNL     1      11.711   7.910  25.411  1.00  0.00     0.027 A 
HETATM   16  C7  UNL     1      10.966   7.565  26.649  1.00  0.00     0.027 A 
ENDBRANCH  12  14
ENDBRANCH   5  10
ENDBRANCH   1   2
BRANCH   1  17
HETATM   17  C12 UNL     1       5.334   9.950  18.769  1.00  0.00     0.183 C 
BRANCH  17  18
HETATM   18  C13 UNL     1       4.831   9.740  17.398  1.00  0.00     0.229 C 
HETATM   19  O2  UNL     1       3.619   9.415  17.276  1.00  0.00    -0.273 OA
HETATM   20  N3  UNL     1       5.614   9.878  16.227  1.00  0.00    -0.345 N 
HETATM   21  C14 UNL     1       7.017  10.254  16.433  1.00  0.00     0.170 C 
HETATM   22  C22 UNL     1       5.024   9.651  14.947  1.00  0.00     0.146 C 
HETATM   23  C15 UNL     1       7.578  10.487  15.040  1.00  0.00     0.081 C 
HETATM   24  N4  UNL     1       7.366   9.328  14.281  1.00  0.00    -0.360 N 
HETATM   25  C21 UNL     1       5.983   9.119  13.916  1.00  0.00     0.145 C 
BRANCH  24  26
HETATM   26  C16 UNL     1       8.118   8.169  14.464  1.00  0.00     0.278 C 
HETATM   27  F1  UNL     1       7.279   7.136  14.941  1.00  0.00    -0.226 F 
BRANCH  26  28
HETATM   28  C17 UNL     1       8.861   7.579  13.313  1.00  0.00    -0.002 C 
HETATM   29  C18 UNL     1      10.007   6.694  13.865  1.00  0.00     0.019 C 
HETATM   30  C19 UNL     1       7.999   6.647  12.477  1.00  0.00     0.019 C 
HETATM   31  C20 UNL     1       9.559   8.567  12.415  1.00  0.00     0.019 C 
ENDBRANCH  26  28
ENDBRANCH  24  26
ENDBRANCH  17  18
ENDBRANCH   1  17
TORSDOF 7
ENDMDL
MODEL 2
REMARK VINA RESULT: -7.516173586      4.367      6.057
REMARK  7 active torsions:
REMARK  status: ('A' for Active; 'I' for Inactive)
REMARK    1  A    between atoms: C3_3  and  C4_4 
REMARK       I    between atoms: C4_4  and  N1_6 
REMARK    2  A    between atoms: N1_6  and  C5_8 
REMARK    3  A    between atoms: C11_15  and  S1_16 
REMARK    4  A    between atoms: S1_16  and  C12_17 
REMARK    5  A    between atoms: C12_17  and  C13_18 
REMARK       I    between atoms: C13_18  and  N3_20 
REMARK    6  A    between atoms: N4_23  and  C16_24 
REMARK    7  A    between atoms: C16_24  and  C17_26 
ROOT
HETATM    1  S1  UNL     1       4.065   8.467  22.336  1.00  0.00    -0.102 SA
ENDROOT
BRANCH   1   2
HETATM    2  C11 UNL     1       5.851   8.628  22.291  1.00  0.00     0.079 A 
HETATM    3  C2  UNL     1       6.676   8.825  23.370  1.00  0.00    -0.011 A 
HETATM    4  C1  UNL     1       6.233   8.965  24.784  1.00  0.00     0.052 C 
HETATM    5  C3  UNL     1       8.014   8.881  22.930  1.00  0.00     0.062 A 
HETATM    6  C8  UNL     1       7.952   8.716  21.572  1.00  0.00     0.024 A 
HETATM    7  C9  UNL     1       9.119   8.713  20.646  1.00  0.00     0.069 C 
HETATM    8  N2  UNL     1       6.656   8.570  21.238  1.00  0.00    -0.348 N 
HETATM    9  C10 UNL     1       6.181   8.369  19.882  1.00  0.00     0.156 C 
BRANCH   5  10
HETATM   10  C4  UNL     1       9.103   9.087  23.846  1.00  0.00     0.254 C 
HETATM   11  O1  UNL     1       9.850  10.102  23.713  1.00  0.00    -0.268 OA
HETATM   12  N1  UNL     1       9.413   8.228  24.911  1.00  0.00    -0.352 N 
ATOM     13  H1  UNL     1       8.841   7.398  25.066  1.00  0.00     0.163 HD
BRANCH  12  14
HETATM   14  C5  UNL     1      10.548   8.502  25.809  1.00  0.00     0.084 A 
HETATM   15  C6  UNL     1      11.828   7.833  25.579  1.00  0.00     0.027 A 
HETATM   16  C7  UNL     1      10.981   7.409  26.725  1.00  0.00     0.027 A 
ENDBRANCH  12  14
ENDBRANCH   5  10
ENDBRANCH   1   2
BRANCH   1  17
HETATM   17  C12 UNL     1       3.511   6.987  21.474  1.00  0.00     0.183 C 
BRANCH  17  18
HETATM   18  C13 UNL     1       3.856   5.766  22.227  1.00  0.00     0.229 C 
HETATM   19  O2  UNL     1       4.133   5.905  23.449  1.00  0.00    -0.273 OA
HETATM   20  N3  UNL     1       3.894   4.465  21.670  1.00  0.00    -0.345 N 
HETATM   21  C14 UNL     1       3.566   4.367  20.243  1.00  0.00     0.170 C 
HETATM   22  C22 UNL     1       4.240   3.350  22.492  1.00  0.00     0.146 C 
HETATM   23  C15 UNL     1       3.525   2.878  19.942  1.00  0.00     0.081 C 
HETATM   24  N4  UNL     1       4.753   2.319  20.323  1.00  0.00    -0.360 N 
HETATM   25  C21 UNL     1       4.935   2.238  21.754  1.00  0.00     0.145 C 
BRANCH  24  26
HETATM   26  C16 UNL     1       5.919   2.506  19.581  1.00  0.00     0.278 C 
HETATM   27  F1  UNL     1       7.000   1.878  20.240  1.00  0.00    -0.226 F 
BRANCH  26  28
HETATM   28  C17 UNL     1       5.981   2.028  18.169  1.00  0.00    -0.002 C 
HETATM   29  C18 UNL     1       6.054   3.262  17.233  1.00  0.00     0.019 C 
HETATM   30  C19 UNL     1       7.238   1.227  17.877  1.00  0.00     0.019 C 
HETATM   31  C20 UNL     1       4.772   1.270  17.686  1.00  0.00     0.019 C 
ENDBRANCH  26  28
ENDBRANCH  24  26
ENDBRANCH  17  18
ENDBRANCH   1  17
TORSDOF 7
ENDMDL
MODEL 3
REMARK VINA RESULT: -7.252105916      4.880      5.672
REMARK  7 active torsions:
REMARK  status: ('A' for Active; 'I' for Inactive)
REMARK    1  A    between atoms: C3_3  and  C4_4 
REMARK       I    between atoms: C4_4  and  N1_6 
REMARK    2  A    between atoms: N1_6  and  C5_8 
REMARK    3  A    between atoms: C11_15  and  S1_16 
REMARK    4  A    between atoms: S1_16  and  C12_17 
REMARK    5  A    between atoms: C12_17  and  C13_18 
REMARK       I    between atoms: C13_18  and  N3_20 
REMARK    6  A    between atoms: N4_23  and  C16_24 
REMARK    7  A    between atoms: C16_24  and  C17_26 
ROOT
HETATM    1  S1  UNL     1       5.271   5.392  20.135  1.00  0.00    -0.102 SA
ENDROOT
BRANCH   1   2
HETATM    2  C11 UNL     1       5.458   6.277  21.684  1.00  0.00     0.079 A 
HETATM    3  C2  UNL     1       6.625   6.794  22.189  1.00  0.00    -0.011 A 
HETATM    4  C1  UNL     1       7.964   6.695  21.547  1.00  0.00     0.052 C 
HETATM    5  C3  UNL     1       6.360   7.432  23.417  1.00  0.00     0.062 A 
HETATM    6  C8  UNL     1       5.015   7.273  23.621  1.00  0.00     0.024 A 
HETATM    7  C9  UNL     1       4.254   7.769  24.801  1.00  0.00     0.069 C 
HETATM    8  N2  UNL     1       4.523   6.586  22.573  1.00  0.00    -0.348 N 
HETATM    9  C10 UNL     1       3.127   6.220  22.421  1.00  0.00     0.156 C 
BRANCH   5  10
HETATM   10  C4  UNL     1       7.402   8.063  24.182  1.00  0.00     0.254 C 
HETATM   11  O1  UNL     1       7.638   9.297  24.021  1.00  0.00    -0.268 OA
HETATM   12  N1  UNL     1       8.201   7.399  25.124  1.00  0.00    -0.352 N 
ATOM     13  H1  UNL     1       8.051   6.405  25.296  1.00  0.00     0.163 HD
BRANCH  12  14
HETATM   14  C5  UNL     1       9.254   8.110  25.871  1.00  0.00     0.084 A 
HETATM   15  C6  UNL     1      10.617   8.142  25.342  1.00  0.00     0.027 A 
HETATM   16  C7  UNL     1      10.314   7.287  26.519  1.00  0.00     0.027 A 
ENDBRANCH  12  14
ENDBRANCH   5  10
ENDBRANCH   1   2
BRANCH   1  17
HETATM   17  C12 UNL     1       5.036   3.628  20.404  1.00  0.00     0.183 C 
BRANCH  17  18
HETATM   18  C13 UNL     1       6.166   2.846  19.865  1.00  0.00     0.229 C 
HETATM   19  O2  UNL     1       7.264   2.930  20.479  1.00  0.00    -0.273 OA
HETATM   20  N3  UNL     1       6.094   2.019  18.719  1.00  0.00    -0.345 N 
HETATM   21  C14 UNL     1       4.792   1.965  18.046  1.00  0.00     0.170 C 
HETATM   22  C22 UNL     1       7.252   1.305  18.285  1.00  0.00     0.146 C 
HETATM   23  C15 UNL     1       4.942   0.906  16.967  1.00  0.00     0.081 C 
HETATM   24  N4  UNL     1       6.031   1.256  16.155  1.00  0.00    -0.360 N 
HETATM   25  C21 UNL     1       7.313   1.082  16.798  1.00  0.00     0.145 C 
BRANCH  24  26
HETATM   26  C16 UNL     1       5.963   2.293  15.225  1.00  0.00     0.278 C 
HETATM   27  F1  UNL     1       7.246   2.863  15.065  1.00  0.00    -0.226 F 
BRANCH  26  28
HETATM   28  C17 UNL     1       5.475   2.015  13.843  1.00  0.00    -0.002 C 
HETATM   29  C18 UNL     1       3.980   2.415  13.757  1.00  0.00     0.019 C 
HETATM   30  C19 UNL     1       6.179   2.858  12.793  1.00  0.00     0.019 C 
HETATM   31  C20 UNL     1       5.493   0.567  13.427  1.00  0.00     0.019 C 
ENDBRANCH  26  28
ENDBRANCH  24  26
ENDBRANCH  17  18
ENDBRANCH   1  17
TORSDOF 7
ENDMDL
MODEL 4
REMARK VINA RESULT: -7.197090080      5.174      6.664
REMARK  7 active torsions:
REMARK  status: ('A' for Active; 'I' for Inactive)
REMARK    1  A    between atoms: C3_3  and  C4_4 
REMARK       I    between atoms: C4_4  and  N1_6 
REMARK    2  A    between atoms: N1_6  and  C5_8 
REMARK    3  A    between atoms: C11_15  and  S1_16 
REMARK    4  A    between atoms: S1_16  and  C12_17 
REMARK    5  A    between atoms: C12_17  and  C13_18 
REMARK       I    between atoms: C13_18  and  N3_20 
REMARK    6  A    between atoms: N4_23  and  C16_24 
REMARK    7  A    between atoms: C16_24  and  C17_26 
ROOT
HETATM    1  S1  UNL     1       4.709   1.314  15.458  1.00  0.00    -0.102 SA
ENDROOT
BRANCH   1   2
HETATM    2  C11 UNL     1       5.640   1.773  16.921  1.00  0.00     0.079 A 
HETATM    3  C2  UNL     1       5.301   2.749  17.826  1.00  0.00    -0.011 A 
HETATM    4  C1  UNL     1       4.101   3.626  17.744  1.00  0.00     0.052 C 
HETATM    5  C3  UNL     1       6.272   2.796  18.846  1.00  0.00     0.062 A 
HETATM    6  C8  UNL     1       7.186   1.831  18.516  1.00  0.00     0.024 A 
HETATM    7  C9  UNL     1       8.416   1.503  19.290  1.00  0.00     0.069 C 
HETATM    8  N2  UNL     1       6.772   1.252  17.373  1.00  0.00    -0.348 N 
HETATM    9  C10 UNL     1       7.478   0.176  16.702  1.00  0.00     0.156 C 
BRANCH   5  10
HETATM   10  C4  UNL     1       6.182   3.733  19.934  1.00  0.00     0.254 C 
HETATM   11  O1  UNL     1       5.524   3.426  20.972  1.00  0.00    -0.268 OA
HETATM   12  N1  UNL     1       6.785   4.999  19.937  1.00  0.00    -0.352 N 
ATOM     13  H1  UNL     1       7.330   5.295  19.127  1.00  0.00     0.163 HD
BRANCH  12  14
HETATM   14  C5  UNL     1       6.648   5.909  21.087  1.00  0.00     0.084 A 
HETATM   15  C6  UNL     1       6.484   7.344  20.857  1.00  0.00     0.027 A 
HETATM   16  C7  UNL     1       7.781   6.834  21.374  1.00  0.00     0.027 A 
ENDBRANCH  12  14
ENDBRANCH   5  10
ENDBRANCH   1   2
BRANCH   1  17
HETATM   17  C12 UNL     1       5.512   1.893  13.955  1.00  0.00     0.183 C 
BRANCH  17  18
HETATM   18  C13 UNL     1       4.856   3.106  13.427  1.00  0.00     0.229 C 
HETATM   19  O2  UNL     1       3.883   2.936  12.644  1.00  0.00    -0.273 OA
HETATM   20  N3  UNL     1       5.246   4.429  13.742  1.00  0.00    -0.345 N 
HETATM   21  C14 UNL     1       6.387   4.564  14.655  1.00  0.00     0.170 C 
HETATM   22  C22 UNL     1       4.539   5.532  13.174  1.00  0.00     0.146 C 
HETATM   23  C15 UNL     1       6.494   6.051  14.948  1.00  0.00     0.081 C 
HETATM   24  N4  UNL     1       6.610   6.732  13.727  1.00  0.00    -0.360 N 
HETATM   25  C21 UNL     1       5.386   6.757  12.959  1.00  0.00     0.145 C 
BRANCH  24  26
HETATM   26  C16 UNL     1       7.787   6.724  12.979  1.00  0.00     0.278 C 
HETATM   27  F1  UNL     1       7.511   7.176  11.669  1.00  0.00    -0.226 F 
BRANCH  26  28
HETATM   28  C17 UNL     1       8.959   7.524  13.438  1.00  0.00    -0.002 C 
HETATM   29  C18 UNL     1       9.600   8.212  12.206  1.00  0.00     0.019 C 
HETATM   30  C19 UNL     1       8.566   8.656  14.372  1.00  0.00     0.019 C 
HETATM   31  C20 UNL     1      10.088   6.732  14.046  1.00  0.00     0.019 C 
ENDBRANCH  26  28
ENDBRANCH  24  26
ENDBRANCH  17  18
ENDBRANCH   1  17
TORSDOF 7
ENDMDL
MODEL 5
REMARK VINA RESULT: -7.195275605      2.611      2.910
REMARK  7 active torsions:
REMARK  status: ('A' for Active; 'I' for Inactive)
REMARK    1  A    between atoms: C3_3  and  C4_4 
REMARK       I    between atoms: C4_4  and  N1_6 
REMARK    2  A    between atoms: N1_6  and  C5_8 
REMARK    3  A    between atoms: C11_15  and  S1_16 
REMARK    4  A    between atoms: S1_16  and  C12_17 
REMARK    5  A    between atoms: C12_17  and  C13_18 
REMARK       I    between atoms: C13_18  and  N3_20 
REMARK    6  A    between atoms: N4_23  and  C16_24 
REMARK    7  A    between atoms: C16_24  and  C17_26 
ROOT
HETATM    1  S1  UNL     1       4.951   5.130  20.212  1.00  0.00    -0.102 SA
ENDROOT
BRANCH   1   2
HETATM    2  C11 UNL     1       5.177   6.131  21.683  1.00  0.00     0.079 A 
HETATM    3  C2  UNL     1       6.358   6.684  22.115  1.00  0.00    -0.011 A 
HETATM    4  C1  UNL     1       7.679   6.532  21.449  1.00  0.00     0.052 C 
HETATM    5  C3  UNL     1       6.124   7.416  23.297  1.00  0.00     0.062 A 
HETATM    6  C8  UNL     1       4.785   7.276  23.547  1.00  0.00     0.024 A 
HETATM    7  C9  UNL     1       4.054   7.864  24.704  1.00  0.00     0.069 C 
HETATM    8  N2  UNL     1       4.266   6.510  22.569  1.00  0.00    -0.348 N 
HETATM    9  C10 UNL     1       2.866   6.137  22.482  1.00  0.00     0.156 C 
BRANCH   5  10
HETATM   10  C4  UNL     1       7.186   8.102  23.984  1.00  0.00     0.254 C 
HETATM   11  O1  UNL     1       7.375   9.336  23.771  1.00  0.00    -0.268 OA
HETATM   12  N1  UNL     1       8.054   7.493  24.902  1.00  0.00    -0.352 N 
ATOM     13  H1  UNL     1       7.943   6.502  25.113  1.00  0.00     0.163 HD
BRANCH  12  14
HETATM   14  C5  UNL     1       9.123   8.259  25.566  1.00  0.00     0.084 A 
HETATM   15  C6  UNL     1      10.476   8.239  25.013  1.00  0.00     0.027 A 
HETATM   16  C7  UNL     1      10.191   7.489  26.264  1.00  0.00     0.027 A 
ENDBRANCH  12  14
ENDBRANCH   5  10
ENDBRANCH   1   2
BRANCH   1  17
HETATM   17  C12 UNL     1       5.142   6.105  18.711  1.00  0.00     0.183 C 
BRANCH  17  18
HETATM   18  C13 UNL     1       5.372   5.244  17.536  1.00  0.00     0.229 C 
HETATM   19  O2  UNL     1       5.474   4.004  17.744  1.00  0.00    -0.273 OA
HETATM   20  N3  UNL     1       5.485   5.715  16.206  1.00  0.00    -0.345 N 
HETATM   21  C14 UNL     1       5.363   7.166  16.026  1.00  0.00     0.170 C 
HETATM   22  C22 UNL     1       5.708   4.791  15.141  1.00  0.00     0.146 C 
HETATM   23  C15 UNL     1       5.361   7.385  14.522  1.00  0.00     0.081 C 
HETATM   24  N4  UNL     1       6.520   6.803  13.991  1.00  0.00    -0.360 N 
HETATM   25  C21 UNL     1       6.497   5.359  13.992  1.00  0.00     0.145 C 
BRANCH  24  26
HETATM   26  C16 UNL     1       7.780   7.382  14.143  1.00  0.00     0.278 C 
HETATM   27  F1  UNL     1       8.745   6.364  14.316  1.00  0.00    -0.226 F 
BRANCH  26  28
HETATM   28  C17 UNL     1       8.322   8.265  13.069  1.00  0.00    -0.002 C 
HETATM   29  C18 UNL     1       9.803   7.883  12.817  1.00  0.00     0.019 C 
HETATM   30  C19 UNL     1       7.621   8.065  11.737  1.00  0.00     0.019 C 
HETATM   31  C20 UNL     1       8.373   9.734  13.401  1.00  0.00     0.019 C 
ENDBRANCH  26  28
ENDBRANCH  24  26
ENDBRANCH  17  18
ENDBRANCH   1  17
TORSDOF 7
ENDMDL
