MODEL 1
REMARK VINA RESULT: -7.195466533      0.000      0.000
REMARK  5 active torsions:
REMARK  status: ('A' for Active; 'I' for Inactive)
REMARK    1  A    between atoms: C2_2  and  N1_3 
REMARK       I    between atoms: N1_3  and  C3_5 
REMARK    2  A    between atoms: C3_5  and  C4_7 
REMARK    3  A    between atoms: C10_14  and  C11_15 
REMARK    4  A    between atoms: C11_15  and  C12_16 
REMARK    5  A    between atoms: C18_25  and  O5_26 
ROOT
HETATM    1  C4  UNL     1       7.904   8.669  23.125  1.00  0.00     0.063 C 
HETATM    2  C5  UNL     1       7.947   9.749  22.033  1.00  0.00     0.028 C 
HETATM    3  C6  UNL     1       8.069   7.356  22.394  1.00  0.00     0.195 C 
HETATM    4  O2  UNL     1       6.847   7.124  21.687  1.00  0.00    -0.346 OA
HETATM    5  C7  UNL     1       5.672   7.122  22.448  1.00  0.00     0.109 A 
HETATM    6  C8  UNL     1       5.563   7.906  23.574  1.00  0.00    -0.020 A 
HETATM    7  C9  UNL     1       4.383   7.890  24.322  1.00  0.00     0.018 A 
HETATM    8  C10 UNL     1       3.298   7.114  23.985  1.00  0.00    -0.036 A 
HETATM    9  C17 UNL     1       3.411   6.330  22.858  1.00  0.00     0.053 A 
HETATM   10 BR1  UNL     1       1.973   5.229  22.313  1.00  0.00    -0.047 Br
HETATM   11  C18 UNL     1       4.587   6.343  22.107  1.00  0.00     0.120 A 
HETATM   12  C20 UNL     1       6.698   8.763  23.984  1.00  0.00     0.062 C 
ENDROOT
BRANCH   8  13
HETATM   13  C11 UNL     1       2.074   7.145  24.826  1.00  0.00     0.055 C 
BRANCH  13  14
HETATM   14  C12 UNL     1       1.380   8.463  24.837  1.00  0.00     0.095 C 
HETATM   15  C13 UNL     1       0.012   8.342  25.406  1.00  0.00     0.263 C 
HETATM   16  O3  UNL     1      -0.335   8.441  26.623  1.00  0.00    -0.265 OA
HETATM   17  O4  UNL     1      -0.857   8.091  24.349  1.00  0.00    -0.321 OA
HETATM   18  C14 UNL     1      -0.192   8.089  23.123  1.00  0.00     0.183 C 
HETATM   19  C15 UNL     1       1.075   8.842  23.404  1.00  0.00     0.020 C 
HETATM   20  C16 UNL     1       0.787  10.312  23.252  1.00  0.00     0.013 C 
ENDBRANCH  13  14
ENDBRANCH   8  13
BRANCH  11  21
HETATM   21  O5  UNL     1       4.701   5.549  20.964  1.00  0.00    -0.352 OA
HETATM   22  C19 UNL     1       5.268   4.241  21.124  1.00  0.00     0.210 C 
ENDBRANCH  11  21
BRANCH   1  23
HETATM   23  C3  UNL     1       9.116   8.905  23.992  1.00  0.00     0.228 C 
HETATM   24  N1  UNL     1       9.343   8.036  25.093  1.00  0.00    -0.361 N 
ATOM     25  H1  UNL     1       8.691   7.274  25.279  1.00  0.00     0.162 HD
HETATM   26  O1  UNL     1       9.926   9.836  23.777  1.00  0.00    -0.273 OA
BRANCH  24  27
HETATM   27  C2  UNL     1      10.507   8.227  25.967  1.00  0.00     0.118 C 
HETATM   28  C1  UNL     1      10.635   7.097  26.962  1.00  0.00     0.026 C 
ENDBRANCH  24  27
ENDBRANCH   1  23
TORSDOF 5
ENDMDL
MODEL 2
REMARK VINA RESULT: -7.153467457      4.825      7.642
REMARK  5 active torsions:
REMARK  status: ('A' for Active; 'I' for Inactive)
REMARK    1  A    between atoms: C2_2  and  N1_3 
REMARK       I    between atoms: N1_3  and  C3_5 
REMARK    2  A    between atoms: C3_5  and  C4_7 
REMARK    3  A    between atoms: C10_14  and  C11_15 
REMARK    4  A    between atoms: C11_15  and  C12_16 
REMARK    5  A    between atoms: C18_25  and  O5_26 
ROOT
HETATM    1  C4  UNL     1       6.441   9.967  16.304  1.00  0.00     0.063 C 
HETATM    2  C5  UNL     1       5.633  11.201  15.871  1.00  0.00     0.028 C 
HETATM    3  C6  UNL     1       5.450   8.825  16.316  1.00  0.00     0.195 C 
HETATM    4  O2  UNL     1       4.593   9.039  17.442  1.00  0.00    -0.346 OA
HETATM    5  C7  UNL     1       5.216   9.167  18.690  1.00  0.00     0.109 A 
HETATM    6  C8  UNL     1       6.475   9.714  18.793  1.00  0.00    -0.020 A 
HETATM    7  C9  UNL     1       7.082   9.832  20.047  1.00  0.00     0.018 A 
HETATM    8  C10 UNL     1       6.473   9.422  21.210  1.00  0.00    -0.036 A 
HETATM    9  C17 UNL     1       5.212   8.874  21.102  1.00  0.00     0.053 A 
HETATM   10 BR1  UNL     1       4.294   8.282  22.646  1.00  0.00    -0.047 Br
HETATM   11  C18 UNL     1       4.602   8.754  19.853  1.00  0.00     0.120 A 
HETATM   12  C20 UNL     1       7.177  10.173  17.574  1.00  0.00     0.062 C 
ENDROOT
BRANCH   8  13
HETATM   13  C11 UNL     1       7.175   9.576  22.509  1.00  0.00     0.055 C 
BRANCH  13  14
HETATM   14  C12 UNL     1       8.489   8.877  22.574  1.00  0.00     0.095 C 
HETATM   15  C13 UNL     1       8.307   7.416  22.780  1.00  0.00     0.263 C 
HETATM   16  O3  UNL     1       8.166   6.518  21.895  1.00  0.00    -0.265 OA
HETATM   17  O4  UNL     1       8.316   7.185  24.152  1.00  0.00    -0.321 OA
HETATM   18  C14 UNL     1       8.542   8.359  24.871  1.00  0.00     0.183 C 
HETATM   19  C15 UNL     1       9.169   9.279  23.865  1.00  0.00     0.020 C 
HETATM   20  C16 UNL     1      10.649   9.002  23.840  1.00  0.00     0.013 C 
ENDBRANCH  13  14
ENDBRANCH   8  13
BRANCH  11  21
HETATM   21  O5  UNL     1       3.326   8.201  19.744  1.00  0.00    -0.352 OA
HETATM   22  C19 UNL     1       2.211   9.104  19.772  1.00  0.00     0.210 C 
ENDBRANCH  11  21
BRANCH   1  23
HETATM   23  C3  UNL     1       7.452   9.728  15.210  1.00  0.00     0.228 C 
HETATM   24  N1  UNL     1       8.058   8.446  15.113  1.00  0.00    -0.361 N 
ATOM     25  H1  UNL     1       7.802   7.714  15.777  1.00  0.00     0.162 HD
HETATM   26  O1  UNL     1       7.777  10.615  14.388  1.00  0.00    -0.273 OA
BRANCH  24  27
HETATM   27  C2  UNL     1       9.050   8.166  14.068  1.00  0.00     0.118 C 
HETATM   28  C1  UNL     1       9.501   6.725  14.113  1.00  0.00     0.026 C 
ENDBRANCH  24  27
ENDBRANCH   1  23
TORSDOF 5
ENDMDL
MODEL 3
REMARK VINA RESULT: -7.142158765      3.903      7.418
REMARK  5 active torsions:
REMARK  status: ('A' for Active; 'I' for Inactive)
REMARK    1  A    between atoms: C2_2  and  N1_3 
REMARK       I    between atoms: N1_3  and  C3_5 
REMARK    2  A    between atoms: C3_5  and  C4_7 
REMARK    3  A    between atoms: C10_14  and  C11_15 
REMARK    4  A    between atoms: C11_15  and  C12_16 
REMARK    5  A    between atoms: C18_25  and  O5_26 
ROOT
HETATM    1  C4  UNL     1       4.926   3.179  19.467  1.00  0.00     0.063 C 
HETATM    2  C5  UNL     1       3.485   3.032  18.952  1.00  0.00     0.028 C 
HETATM    3  C6  UNL     1       4.876   2.757  20.918  1.00  0.00     0.195 C 
HETATM    4  O2  UNL     1       4.192   3.797  21.624  1.00  0.00    -0.346 OA
HETATM    5  C7  UNL     1       4.718   5.090  21.502  1.00  0.00     0.109 A 
HETATM    6  C8  UNL     1       5.359   5.481  20.348  1.00  0.00    -0.020 A 
HETATM    7  C9  UNL     1       5.878   6.774  20.245  1.00  0.00     0.018 A 
HETATM    8  C10 UNL     1       5.780   7.699  21.258  1.00  0.00    -0.036 A 
HETATM    9  C17 UNL     1       5.139   7.303  22.412  1.00  0.00     0.053 A 
HETATM   10 BR1  UNL     1       4.954   8.504  23.861  1.00  0.00    -0.047 Br
HETATM   11  C18 UNL     1       4.618   6.013  22.520  1.00  0.00     0.120 A 
HETATM   12  C20 UNL     1       5.492   4.528  19.224  1.00  0.00     0.062 C 
ENDROOT
BRANCH   8  13
HETATM   13  C11 UNL     1       6.356   9.057  21.082  1.00  0.00     0.055 C 
BRANCH  13  14
HETATM   14  C12 UNL     1       7.254   9.185  19.900  1.00  0.00     0.095 C 
HETATM   15  C13 UNL     1       8.520   9.873  20.264  1.00  0.00     0.263 C 
HETATM   16  O3  UNL     1       9.593   9.352  20.696  1.00  0.00    -0.265 OA
HETATM   17  O4  UNL     1       8.330  11.235  20.045  1.00  0.00    -0.321 OA
HETATM   18  C14 UNL     1       7.066  11.502  19.518  1.00  0.00     0.183 C 
HETATM   19  C15 UNL     1       6.633  10.183  18.947  1.00  0.00     0.020 C 
HETATM   20  C16 UNL     1       7.196  10.070  17.555  1.00  0.00     0.013 C 
ENDBRANCH  13  14
ENDBRANCH   8  13
BRANCH  11  21
HETATM   21  O5  UNL     1       3.967   5.613  23.688  1.00  0.00    -0.352 OA
HETATM   22  C19 UNL     1       2.542   5.774  23.737  1.00  0.00     0.210 C 
ENDBRANCH  11  21
BRANCH   1  23
HETATM   23  C3  UNL     1       5.748   2.179  18.692  1.00  0.00     0.228 C 
HETATM   24  N1  UNL     1       7.116   2.009  19.041  1.00  0.00    -0.361 N 
ATOM     25  H1  UNL     1       7.516   2.558  19.802  1.00  0.00     0.162 HD
HETATM   26  O1  UNL     1       5.272   1.497  17.756  1.00  0.00    -0.273 OA
BRANCH  24  27
HETATM   27  C2  UNL     1       7.957   1.051  18.315  1.00  0.00     0.118 C 
HETATM   28  C1  UNL     1       9.352   0.999  18.893  1.00  0.00     0.026 C 
ENDBRANCH  24  27
ENDBRANCH   1  23
TORSDOF 5
ENDMDL
MODEL 4
REMARK VINA RESULT: -7.050178841      3.904      6.171
REMARK  5 active torsions:
REMARK  status: ('A' for Active; 'I' for Inactive)
REMARK    1  A    between atoms: C2_2  and  N1_3 
REMARK       I    between atoms: N1_3  and  C3_5 
REMARK    2  A    between atoms: C3_5  and  C4_7 
REMARK    3  A    between atoms: C10_14  and  C11_15 
REMARK    4  A    between atoms: C11_15  and  C12_16 
REMARK    5  A    between atoms: C18_25  and  O5_26 
ROOT
HETATM    1  C4  UNL     1       7.822   8.548  23.141  1.00  0.00     0.063 C 
HETATM    2  C5  UNL     1       6.990   8.919  24.379  1.00  0.00     0.028 C 
HETATM    3  C6  UNL     1       7.511   9.617  22.117  1.00  0.00     0.195 C 
HETATM    4  O2  UNL     1       6.174   9.378  21.669  1.00  0.00    -0.346 OA
HETATM    5  C7  UNL     1       5.901   8.105  21.153  1.00  0.00     0.109 A 
HETATM    6  C8  UNL     1       6.573   6.999  21.623  1.00  0.00    -0.020 A 
HETATM    7  C9  UNL     1       6.290   5.736  21.095  1.00  0.00     0.018 A 
HETATM    8  C10 UNL     1       5.352   5.535  20.109  1.00  0.00    -0.036 A 
HETATM    9  C17 UNL     1       4.682   6.644  19.641  1.00  0.00     0.053 A 
HETATM   10 BR1  UNL     1       3.375   6.468  18.286  1.00  0.00    -0.047 Br
HETATM   11  C18 UNL     1       4.961   7.907  20.164  1.00  0.00     0.120 A 
HETATM   12  C20 UNL     1       7.592   7.155  22.685  1.00  0.00     0.062 C 
ENDROOT
BRANCH   8  13
HETATM   13  C11 UNL     1       5.101   4.165  19.593  1.00  0.00     0.055 C 
BRANCH  13  14
HETATM   14  C12 UNL     1       6.194   3.633  18.731  1.00  0.00     0.095 C 
HETATM   15  C13 UNL     1       5.850   3.764  17.291  1.00  0.00     0.263 C 
HETATM   16  O3  UNL     1       6.076   4.748  16.523  1.00  0.00    -0.265 OA
HETATM   17  O4  UNL     1       5.213   2.586  16.907  1.00  0.00    -0.321 OA
HETATM   18  C14 UNL     1       5.155   1.667  17.954  1.00  0.00     0.183 C 
HETATM   19  C15 UNL     1       6.229   2.129  18.895  1.00  0.00     0.020 C 
HETATM   20  C16 UNL     1       7.535   1.535  18.439  1.00  0.00     0.013 C 
ENDBRANCH  13  14
ENDBRANCH   8  13
BRANCH  11  21
HETATM   21  O5  UNL     1       4.282   9.031  19.691  1.00  0.00    -0.352 OA
HETATM   22  C19 UNL     1       4.895   9.772  18.627  1.00  0.00     0.210 C 
ENDBRANCH  11  21
BRANCH   1  23
HETATM   23  C3  UNL     1       9.267   8.672  23.558  1.00  0.00     0.228 C 
HETATM   24  N1  UNL     1       9.636   8.243  24.862  1.00  0.00    -0.361 N 
ATOM     25  H1  UNL     1       8.927   7.861  25.488  1.00  0.00     0.162 HD
HETATM   26  O1  UNL     1      10.148   9.138  22.800  1.00  0.00    -0.273 OA
BRANCH  24  27
HETATM   27  C2  UNL     1      11.028   8.347  25.315  1.00  0.00     0.118 C 
HETATM   28  C1  UNL     1      11.263   7.517  26.555  1.00  0.00     0.026 C 
ENDBRANCH  24  27
ENDBRANCH   1  23
TORSDOF 5
ENDMDL
MODEL 5
REMARK VINA RESULT: -7.028364913      0.841      1.254
REMARK  5 active torsions:
REMARK  status: ('A' for Active; 'I' for Inactive)
REMARK    1  A    between atoms: C2_2  and  N1_3 
REMARK       I    between atoms: N1_3  and  C3_5 
REMARK    2  A    between atoms: C3_5  and  C4_7 
REMARK    3  A    between atoms: C10_14  and  C11_15 
REMARK    4  A    between atoms: C11_15  and  C12_16 
REMARK    5  A    between atoms: C18_25  and  O5_26 
ROOT
HETATM    1  C4  UNL     1       7.980   8.710  23.008  1.00  0.00     0.063 C 
HETATM    2  C5  UNL     1       8.018   9.811  21.936  1.00  0.00     0.028 C 
HETATM    3  C6  UNL     1       8.201   7.415  22.258  1.00  0.00     0.195 C 
HETATM    4  O2  UNL     1       7.003   7.162  21.518  1.00  0.00    -0.346 OA
HETATM    5  C7  UNL     1       5.810   7.112  22.250  1.00  0.00     0.109 A 
HETATM    6  C8  UNL     1       5.652   7.873  23.387  1.00  0.00    -0.020 A 
HETATM    7  C9  UNL     1       4.455   7.809  24.105  1.00  0.00     0.018 A 
HETATM    8  C10 UNL     1       3.402   7.010  23.728  1.00  0.00    -0.036 A 
HETATM    9  C17 UNL     1       3.564   6.249  22.590  1.00  0.00     0.053 A 
HETATM   10 BR1  UNL     1       2.172   5.118  21.991  1.00  0.00    -0.047 Br
HETATM   11  C18 UNL     1       4.757   6.309  21.868  1.00  0.00     0.120 A 
HETATM   12  C20 UNL     1       6.752   8.753  23.839  1.00  0.00     0.062 C 
ENDROOT
BRANCH   8  13
HETATM   13  C11 UNL     1       2.158   6.990  24.539  1.00  0.00     0.055 C 
BRANCH  13  14
HETATM   14  C12 UNL     1       1.068   7.849  23.997  1.00  0.00     0.095 C 
HETATM   15  C13 UNL     1       0.943   9.108  24.777  1.00  0.00     0.263 C 
HETATM   16  O3  UNL     1       1.550  10.206  24.584  1.00  0.00    -0.265 OA
HETATM   17  O4  UNL     1       0.017   8.879  25.791  1.00  0.00    -0.321 OA
HETATM   18  C14 UNL     1      -0.521   7.594  25.717  1.00  0.00     0.183 C 
HETATM   19  C15 UNL     1      -0.253   7.175  24.301  1.00  0.00     0.020 C 
HETATM   20  C16 UNL     1      -1.372   7.700  23.441  1.00  0.00     0.013 C 
ENDBRANCH  13  14
ENDBRANCH   8  13
BRANCH  11  21
HETATM   21  O5  UNL     1       4.921   5.540  20.715  1.00  0.00    -0.352 OA
HETATM   22  C19 UNL     1       5.539   4.254  20.863  1.00  0.00     0.210 C 
ENDBRANCH  11  21
BRANCH   1  23
HETATM   23  C3  UNL     1       9.164   8.965  23.908  1.00  0.00     0.228 C 
HETATM   24  N1  UNL     1       9.365   8.108  25.024  1.00  0.00    -0.361 N 
ATOM     25  H1  UNL     1       8.715   7.341  25.196  1.00  0.00     0.162 HD
HETATM   26  O1  UNL     1       9.971   9.901  23.709  1.00  0.00    -0.273 OA
BRANCH  24  27
HETATM   27  C2  UNL     1      10.501   8.317  25.930  1.00  0.00     0.118 C 
HETATM   28  C1  UNL     1      10.597   7.208  26.952  1.00  0.00     0.026 C 
ENDBRANCH  24  27
ENDBRANCH   1  23
TORSDOF 5
ENDMDL
