MODEL 1
REMARK VINA RESULT: -8.393227718      0.000      0.000
REMARK  6 active torsions:
REMARK  status: ('A' for Active; 'I' for Inactive)
REMARK    1  A    between atoms: C2_2  and  N1_3 
REMARK    2  A    between atoms: C2_2  and  C14_26 
REMARK       I    between atoms: N1_3  and  C3_5 
REMARK    3  A    between atoms: C3_5  and  C4_7 
REMARK    4  A    between atoms: C4_7  and  C9_13 
REMARK    5  A    between atoms: N2_16  and  S1_17 
REMARK    6  A    between atoms: C13_21  and  S2_22 
ROOT
HETATM    1  C4  UNL     1       4.361   7.265  22.547  1.00  0.00     0.049 C 
HETATM    2  C5  UNL     1       3.647   7.586  23.600  1.00  0.00    -0.038 C 
HETATM    3  C6  UNL     1       2.708   6.788  24.372  1.00  0.00     0.063 C 
HETATM    4  C7  UNL     1       2.139   7.755  25.411  1.00  0.00     0.172 C 
HETATM    5  O2  UNL     1       3.113   8.724  25.512  1.00  0.00    -0.387 OA
HETATM    6  C8  UNL     1       3.668   8.918  24.245  1.00  0.00     0.203 C 
ENDROOT
BRANCH   1   7
HETATM    7  C3  UNL     1       4.220   5.911  22.041  1.00  0.00     0.253 C 
HETATM    8  N1  UNL     1       5.122   4.839  22.369  1.00  0.00    -0.352 N 
ATOM      9  H1  UNL     1       5.914   5.018  22.988  1.00  0.00     0.163 HD
HETATM   10  O1  UNL     1       3.263   5.639  21.273  1.00  0.00    -0.268 OA
BRANCH   8  11
HETATM   11  C2  UNL     1       4.921   3.511  21.833  1.00  0.00     0.085 C 
HETATM   12  C1  UNL     1       4.250   2.683  22.857  1.00  0.00     0.032 C 
BRANCH  11  13
HETATM   13  C14 UNL     1       6.140   3.060  21.211  1.00  0.00     0.017 C 
HETATM   14  C15 UNL     1       6.809   3.932  20.183  1.00  0.00    -0.007 C 
HETATM   15  C16 UNL     1       8.155   3.180  20.135  1.00  0.00     0.005 C 
HETATM   16  C22 UNL     1       6.149   3.586  18.870  1.00  0.00     0.015 C 
HETATM   17  C17 UNL     1       7.736   1.716  20.299  1.00  0.00     0.006 C 
HETATM   18  C18 UNL     1       6.199   1.788  20.444  1.00  0.00     0.000 C 
HETATM   19  C19 UNL     1       5.717   2.169  19.079  1.00  0.00    -0.036 A 
HETATM   20  C20 UNL     1       4.807   1.433  18.249  1.00  0.00     0.011 A 
HETATM   21  C21 UNL     1       6.234   1.186  17.990  1.00  0.00     0.011 A 
ENDBRANCH  11  13
ENDBRANCH   8  11
ENDBRANCH   1   7
BRANCH   1  22
HETATM   22  C9  UNL     1       5.223   8.247  21.896  1.00  0.00     0.023 A 
HETATM   23  C10 UNL     1       4.798   8.956  20.791  1.00  0.00     0.034 A 
HETATM   24  C11 UNL     1       5.780   9.855  20.435  1.00  0.00     0.111 A 
HETATM   25  N2  UNL     1       6.817   9.699  21.327  1.00  0.00    -0.237 N 
HETATM   26  C13 UNL     1       6.467   8.724  22.204  1.00  0.00     0.187 A 
BRANCH  25  27
HETATM   27  S1  UNL     1       8.276  10.623  21.290  1.00  0.00     0.233 S 
HETATM   28  C12 UNL     1       8.033  12.111  20.349  1.00  0.00     0.186 C 
HETATM   29  O3  UNL     1       9.415   9.873  20.685  1.00  0.00    -0.206 OA
HETATM   30  O4  UNL     1       8.640  11.060  22.703  1.00  0.00    -0.206 OA
ENDBRANCH  25  27
BRANCH  26  31
HETATM   31  S2  UNL     1       7.418   8.128  23.527  1.00  0.00     0.350 S 
HETATM   32  O5  UNL     1       7.319   9.062  24.687  1.00  0.00    -0.187 OA
HETATM   33  O6  UNL     1       6.845   6.826  24.068  1.00  0.00    -0.187 OA
HETATM   34  F1  UNL     1       9.039   7.949  23.179  1.00  0.00    -0.099 F 
ENDBRANCH  26  31
ENDBRANCH   1  22
TORSDOF 6
ENDMDL
MODEL 2
REMARK VINA RESULT: -7.984833310      1.862      2.334
REMARK  6 active torsions:
REMARK  status: ('A' for Active; 'I' for Inactive)
REMARK    1  A    between atoms: C2_2  and  N1_3 
REMARK    2  A    between atoms: C2_2  and  C14_26 
REMARK       I    between atoms: N1_3  and  C3_5 
REMARK    3  A    between atoms: C3_5  and  C4_7 
REMARK    4  A    between atoms: C4_7  and  C9_13 
REMARK    5  A    between atoms: N2_16  and  S1_17 
REMARK    6  A    between atoms: C13_21  and  S2_22 
ROOT
HETATM    1  C4  UNL     1       4.560   6.908  23.190  1.00  0.00     0.049 C 
HETATM    2  C5  UNL     1       3.431   7.402  23.639  1.00  0.00    -0.038 C 
HETATM    3  C6  UNL     1       2.060   6.999  23.371  1.00  0.00     0.063 C 
HETATM    4  C7  UNL     1       1.201   8.021  24.116  1.00  0.00     0.172 C 
HETATM    5  O2  UNL     1       2.045   8.492  25.098  1.00  0.00    -0.387 OA
HETATM    6  C8  UNL     1       3.338   8.548  24.572  1.00  0.00     0.203 C 
ENDROOT
BRANCH   1   7
HETATM    7  C3  UNL     1       4.470   5.779  22.279  1.00  0.00     0.253 C 
HETATM    8  N1  UNL     1       4.905   4.448  22.612  1.00  0.00    -0.352 N 
ATOM      9  H1  UNL     1       5.305   4.265  23.533  1.00  0.00     0.163 HD
HETATM   10  O1  UNL     1       3.988   5.953  21.131  1.00  0.00    -0.268 OA
BRANCH   8  11
HETATM   11  C2  UNL     1       4.783   3.368  21.658  1.00  0.00     0.085 C 
HETATM   12  C1  UNL     1       3.929   2.314  22.243  1.00  0.00     0.032 C 
BRANCH  11  13
HETATM   13  C14 UNL     1       6.088   3.048  21.135  1.00  0.00     0.017 C 
HETATM   14  C15 UNL     1       6.736   3.982  20.150  1.00  0.00    -0.007 C 
HETATM   15  C16 UNL     1       8.154   3.377  20.212  1.00  0.00     0.005 C 
HETATM   16  C22 UNL     1       6.218   3.563  18.795  1.00  0.00     0.015 C 
HETATM   17  C17 UNL     1       7.881   1.878  20.361  1.00  0.00     0.006 C 
HETATM   18  C18 UNL     1       6.339   1.786  20.390  1.00  0.00     0.000 C 
HETATM   19  C19 UNL     1       5.924   2.109  18.988  1.00  0.00    -0.036 A 
HETATM   20  C20 UNL     1       5.163   1.277  18.101  1.00  0.00     0.011 A 
HETATM   21  C21 UNL     1       6.623   1.182  17.952  1.00  0.00     0.011 A 
ENDBRANCH  11  13
ENDBRANCH   8  11
ENDBRANCH   1   7
BRANCH   1  22
HETATM   22  C9  UNL     1       5.840   7.500  23.561  1.00  0.00     0.023 A 
HETATM   23  C10 UNL     1       6.429   7.235  24.781  1.00  0.00     0.034 A 
HETATM   24  C11 UNL     1       7.654   7.864  24.829  1.00  0.00     0.111 A 
HETATM   25  N2  UNL     1       7.822   8.521  23.631  1.00  0.00    -0.237 N 
HETATM   26  C13 UNL     1       6.719   8.292  22.874  1.00  0.00     0.187 A 
BRANCH  25  27
HETATM   27  S1  UNL     1       9.222   9.445  23.218  1.00  0.00     0.233 S 
HETATM   28  C12 UNL     1      10.483   9.228  24.452  1.00  0.00     0.186 C 
HETATM   29  O3  UNL     1       8.933  10.904  23.104  1.00  0.00    -0.206 OA
HETATM   30  O4  UNL     1       9.806   8.932  21.909  1.00  0.00    -0.206 OA
ENDBRANCH  25  27
BRANCH  26  31
HETATM   31  S2  UNL     1       6.413   8.896  21.277  1.00  0.00     0.350 S 
HETATM   32  O5  UNL     1       6.724   7.843  20.265  1.00  0.00    -0.187 OA
HETATM   33  O6  UNL     1       4.929   9.162  21.069  1.00  0.00    -0.187 OA
HETATM   34  F1  UNL     1       7.307  10.244  20.871  1.00  0.00    -0.099 F 
ENDBRANCH  26  31
ENDBRANCH   1  22
TORSDOF 6
ENDMDL
MODEL 3
REMARK VINA RESULT: -7.936475598      0.865      1.044
REMARK  6 active torsions:
REMARK  status: ('A' for Active; 'I' for Inactive)
REMARK    1  A    between atoms: C2_2  and  N1_3 
REMARK    2  A    between atoms: C2_2  and  C14_26 
REMARK       I    between atoms: N1_3  and  C3_5 
REMARK    3  A    between atoms: C3_5  and  C4_7 
REMARK    4  A    between atoms: C4_7  and  C9_13 
REMARK    5  A    between atoms: N2_16  and  S1_17 
REMARK    6  A    between atoms: C13_21  and  S2_22 
ROOT
HETATM    1  C4  UNL     1       4.431   7.375  22.180  1.00  0.00     0.049 C 
HETATM    2  C5  UNL     1       3.822   7.719  23.290  1.00  0.00    -0.038 C 
HETATM    3  C6  UNL     1       3.011   6.924  24.198  1.00  0.00     0.063 C 
HETATM    4  C7  UNL     1       2.514   7.919  25.247  1.00  0.00     0.172 C 
HETATM    5  O2  UNL     1       3.446   8.932  25.194  1.00  0.00    -0.387 OA
HETATM    6  C8  UNL     1       3.850   9.083  23.865  1.00  0.00     0.203 C 
ENDROOT
BRANCH   1   7
HETATM    7  C3  UNL     1       4.299   5.991  21.757  1.00  0.00     0.253 C 
HETATM    8  N1  UNL     1       5.183   4.939  22.184  1.00  0.00    -0.352 N 
ATOM      9  H1  UNL     1       5.954   5.154  22.817  1.00  0.00     0.163 HD
HETATM   10  O1  UNL     1       3.368   5.674  20.975  1.00  0.00    -0.268 OA
BRANCH   8  11
HETATM   11  C2  UNL     1       4.993   3.580  21.728  1.00  0.00     0.085 C 
HETATM   12  C1  UNL     1       4.332   2.808  22.800  1.00  0.00     0.032 C 
BRANCH  11  13
HETATM   13  C14 UNL     1       6.216   3.105  21.131  1.00  0.00     0.017 C 
HETATM   14  C15 UNL     1       6.890   3.935  20.072  1.00  0.00    -0.007 C 
HETATM   15  C16 UNL     1       8.236   3.181  20.062  1.00  0.00     0.005 C 
HETATM   16  C22 UNL     1       6.237   3.538  18.770  1.00  0.00     0.015 C 
HETATM   17  C17 UNL     1       7.815   1.724  20.281  1.00  0.00     0.006 C 
HETATM   18  C18 UNL     1       6.278   1.803  20.415  1.00  0.00     0.000 C 
HETATM   19  C19 UNL     1       5.803   2.130  19.033  1.00  0.00    -0.036 A 
HETATM   20  C20 UNL     1       4.897   1.363  18.228  1.00  0.00     0.011 A 
HETATM   21  C21 UNL     1       6.325   1.104  17.986  1.00  0.00     0.011 A 
ENDBRANCH  11  13
ENDBRANCH   8  11
ENDBRANCH   1   7
BRANCH   1  22
HETATM   22  C9  UNL     1       5.168   8.356  21.392  1.00  0.00     0.023 A 
HETATM   23  C10 UNL     1       4.544   9.117  20.425  1.00  0.00     0.034 A 
HETATM   24  C11 UNL     1       5.459  10.002  19.896  1.00  0.00     0.111 A 
HETATM   25  N2  UNL     1       6.656   9.784  20.542  1.00  0.00    -0.237 N 
HETATM   26  C13 UNL     1       6.465   8.787  21.443  1.00  0.00     0.187 A 
BRANCH  25  27
HETATM   27  S1  UNL     1       8.105  10.670  20.225  1.00  0.00     0.233 S 
HETATM   28  C12 UNL     1       8.312  11.956  21.435  1.00  0.00     0.186 C 
HETATM   29  O3  UNL     1       8.107  11.302  18.873  1.00  0.00    -0.206 OA
HETATM   30  O4  UNL     1       9.308   9.748  20.364  1.00  0.00    -0.206 OA
ENDBRANCH  25  27
BRANCH  26  31
HETATM   31  S2  UNL     1       7.653   8.117  22.514  1.00  0.00     0.350 S 
HETATM   32  O5  UNL     1       6.982   7.334  23.594  1.00  0.00    -0.187 OA
HETATM   33  O6  UNL     1       8.508   7.079  21.801  1.00  0.00    -0.187 OA
HETATM   34  F1  UNL     1       8.620   9.251  23.262  1.00  0.00    -0.099 F 
ENDBRANCH  26  31
ENDBRANCH   1  22
TORSDOF 6
ENDMDL
MODEL 4
REMARK VINA RESULT: -7.896601285      1.966      2.434
REMARK  6 active torsions:
REMARK  status: ('A' for Active; 'I' for Inactive)
REMARK    1  A    between atoms: C2_2  and  N1_3 
REMARK    2  A    between atoms: C2_2  and  C14_26 
REMARK       I    between atoms: N1_3  and  C3_5 
REMARK    3  A    between atoms: C3_5  and  C4_7 
REMARK    4  A    between atoms: C4_7  and  C9_13 
REMARK    5  A    between atoms: N2_16  and  S1_17 
REMARK    6  A    between atoms: C13_21  and  S2_22 
ROOT
HETATM    1  C4  UNL     1       4.772   6.382  22.881  1.00  0.00     0.049 C 
HETATM    2  C5  UNL     1       3.980   6.818  23.830  1.00  0.00    -0.038 C 
HETATM    3  C6  UNL     1       2.751   6.248  24.360  1.00  0.00     0.063 C 
HETATM    4  C7  UNL     1       2.256   7.272  25.381  1.00  0.00     0.172 C 
HETATM    5  O2  UNL     1       3.401   7.954  25.731  1.00  0.00    -0.387 OA
HETATM    6  C8  UNL     1       4.206   8.066  24.595  1.00  0.00     0.203 C 
ENDROOT
BRANCH   1   7
HETATM    7  C3  UNL     1       4.401   5.137  22.231  1.00  0.00     0.253 C 
HETATM    8  N1  UNL     1       5.091   3.891  22.439  1.00  0.00    -0.352 N 
ATOM      9  H1  UNL     1       5.890   3.858  23.073  1.00  0.00     0.163 HD
HETATM   10  O1  UNL     1       3.425   5.125  21.439  1.00  0.00    -0.268 OA
BRANCH   8  11
HETATM   11  C2  UNL     1       4.666   2.686  21.763  1.00  0.00     0.085 C 
HETATM   12  C1  UNL     1       4.080   1.765  22.758  1.00  0.00     0.032 C 
BRANCH  11  13
HETATM   13  C14 UNL     1       5.716   2.241  20.882  1.00  0.00     0.017 C 
HETATM   14  C15 UNL     1       7.004   3.016  20.821  1.00  0.00    -0.007 C 
HETATM   15  C16 UNL     1       7.831   1.960  20.058  1.00  0.00     0.005 C 
HETATM   16  C22 UNL     1       6.773   4.106  19.803  1.00  0.00     0.015 C 
HETATM   17  C17 UNL     1       6.809   1.358  19.090  1.00  0.00     0.006 C 
HETATM   18  C18 UNL     1       5.503   2.118  19.416  1.00  0.00     0.000 C 
HETATM   19  C19 UNL     1       5.743   3.502  18.901  1.00  0.00    -0.036 A 
HETATM   20  C20 UNL     1       4.967   4.204  17.918  1.00  0.00     0.011 A 
HETATM   21  C21 UNL     1       6.148   3.496  17.398  1.00  0.00     0.011 A 
ENDBRANCH  11  13
ENDBRANCH   8  11
ENDBRANCH   1   7
BRANCH   1  22
HETATM   22  C9  UNL     1       5.949   7.143  22.475  1.00  0.00     0.023 A 
HETATM   23  C10 UNL     1       7.158   7.002  23.125  1.00  0.00     0.034 A 
HETATM   24  C11 UNL     1       8.100   7.780  22.488  1.00  0.00     0.111 A 
HETATM   25  N2  UNL     1       7.467   8.406  21.438  1.00  0.00    -0.237 N 
HETATM   26  C13 UNL     1       6.169   8.012  21.441  1.00  0.00     0.187 A 
BRANCH  25  27
HETATM   27  S1  UNL     1       8.250   9.481  20.335  1.00  0.00     0.233 S 
HETATM   28  C12 UNL     1       7.709  11.150  20.620  1.00  0.00     0.186 C 
HETATM   29  O3  UNL     1       7.972   9.141  18.908  1.00  0.00    -0.206 OA
HETATM   30  O4  UNL     1       9.752   9.465  20.584  1.00  0.00    -0.206 OA
ENDBRANCH  25  27
BRANCH  26  31
HETATM   31  S2  UNL     1       4.930   8.511  20.333  1.00  0.00     0.350 S 
HETATM   32  O5  UNL     1       4.987   9.990  20.137  1.00  0.00    -0.187 OA
HETATM   33  O6  UNL     1       5.189   7.956  18.939  1.00  0.00    -0.187 OA
HETATM   34  F1  UNL     1       3.381   8.141  20.826  1.00  0.00    -0.099 F 
ENDBRANCH  26  31
ENDBRANCH   1  22
TORSDOF 6
ENDMDL
MODEL 5
REMARK VINA RESULT: -7.872057110      1.998      2.409
REMARK  6 active torsions:
REMARK  status: ('A' for Active; 'I' for Inactive)
REMARK    1  A    between atoms: C2_2  and  N1_3 
REMARK    2  A    between atoms: C2_2  and  C14_26 
REMARK       I    between atoms: N1_3  and  C3_5 
REMARK    3  A    between atoms: C3_5  and  C4_7 
REMARK    4  A    between atoms: C4_7  and  C9_13 
REMARK    5  A    between atoms: N2_16  and  S1_17 
REMARK    6  A    between atoms: C13_21  and  S2_22 
ROOT
HETATM    1  C4  UNL     1       4.726   7.683  22.739  1.00  0.00     0.049 C 
HETATM    2  C5  UNL     1       3.953   8.025  23.741  1.00  0.00    -0.038 C 
HETATM    3  C6  UNL     1       2.862   7.300  24.371  1.00  0.00     0.063 C 
HETATM    4  C7  UNL     1       2.305   8.267  25.416  1.00  0.00     0.172 C 
HETATM    5  O2  UNL     1       3.364   9.110  25.668  1.00  0.00    -0.387 OA
HETATM    6  C8  UNL     1       4.057   9.309  24.472  1.00  0.00     0.203 C 
ENDROOT
BRANCH   1   7
HETATM    7  C3  UNL     1       4.487   6.384  22.134  1.00  0.00     0.253 C 
HETATM    8  N1  UNL     1       5.220   5.195  22.482  1.00  0.00    -0.352 N 
ATOM      9  H1  UNL     1       5.954   5.245  23.189  1.00  0.00     0.163 HD
HETATM   10  O1  UNL     1       3.595   6.269  21.256  1.00  0.00    -0.268 OA
BRANCH   8  11
HETATM   11  C2  UNL     1       4.928   3.931  21.844  1.00  0.00     0.085 C 
HETATM   12  C1  UNL     1       4.107   3.114  22.762  1.00  0.00     0.032 C 
BRANCH  11  13
HETATM   13  C14 UNL     1       6.139   3.397  21.273  1.00  0.00     0.017 C 
HETATM   14  C15 UNL     1       6.831   4.155  20.173  1.00  0.00    -0.007 C 
HETATM   15  C16 UNL     1       8.159   3.370  20.203  1.00  0.00     0.005 C 
HETATM   16  C22 UNL     1       6.169   3.706  18.894  1.00  0.00     0.015 C 
HETATM   17  C17 UNL     1       7.705   1.938  20.497  1.00  0.00     0.006 C 
HETATM   18  C18 UNL     1       6.170   2.059  20.626  1.00  0.00     0.000 C 
HETATM   19  C19 UNL     1       5.702   2.324  19.229  1.00  0.00    -0.036 A 
HETATM   20  C20 UNL     1       4.778   1.538  18.464  1.00  0.00     0.011 A 
HETATM   21  C21 UNL     1       6.200   1.234  18.237  1.00  0.00     0.011 A 
ENDBRANCH  11  13
ENDBRANCH   8  11
ENDBRANCH   1   7
BRANCH   1  22
HETATM   22  C9  UNL     1       5.749   8.593  22.233  1.00  0.00     0.023 A 
HETATM   23  C10 UNL     1       6.967   8.729  22.867  1.00  0.00     0.034 A 
HETATM   24  C11 UNL     1       7.755   9.592  22.136  1.00  0.00     0.111 A 
HETATM   25  N2  UNL     1       7.017   9.990  21.043  1.00  0.00    -0.237 N 
HETATM   26  C13 UNL     1       5.807   9.378  21.115  1.00  0.00     0.187 A 
BRANCH  25  27
HETATM   27  S1  UNL     1       7.593  11.068  19.823  1.00  0.00     0.233 S 
HETATM   28  C12 UNL     1       7.536  10.278  18.232  1.00  0.00     0.186 C 
HETATM   29  O3  UNL     1       8.996  11.514  20.069  1.00  0.00    -0.206 OA
HETATM   30  O4  UNL     1       6.676  12.280  19.737  1.00  0.00    -0.206 OA
ENDBRANCH  25  27
BRANCH  26  31
HETATM   31  S2  UNL     1       4.495   9.540  19.992  1.00  0.00     0.350 S 
HETATM   32  O5  UNL     1       4.385   8.309  19.155  1.00  0.00    -0.187 OA
HETATM   33  O6  UNL     1       3.159   9.598  20.719  1.00  0.00    -0.187 OA
HETATM   34  F1  UNL     1       4.643  10.831  18.946  1.00  0.00    -0.099 F 
ENDBRANCH  26  31
ENDBRANCH   1  22
TORSDOF 6
ENDMDL
