MODEL 1
REMARK VINA RESULT: -8.559737316      0.000      0.000
REMARK  8 active torsions:
REMARK  status: ('A' for Active; 'I' for Inactive)
REMARK    1  A    between atoms: O1_2  and  C2_3 
REMARK    2  A    between atoms: C7_8  and  O2_9 
REMARK    3  A    between atoms: N1_12  and  C10_13 
REMARK    4  A    between atoms: C13_17  and  O3_18 
REMARK    5  A    between atoms: O3_18  and  C14_19 
REMARK       I    between atoms: C14_19  and  N2_21 
REMARK    6  A    between atoms: C16_23  and  N3_24 
REMARK    7  A    between atoms: C19_27  and  C20_28 
REMARK    8  A    between atoms: C20_28  and  N4_29 
ROOT
HETATM    1  C10 UNL     1       6.979   2.115  19.588  1.00  0.00     0.174 C 
HETATM    2  F1  UNL     1       5.785   1.639  20.103  1.00  0.00    -0.220 F 
HETATM    3  C11 UNL     1       6.606   3.212  18.607  1.00  0.00     0.069 C 
HETATM    4  C12 UNL     1       5.860   4.323  19.327  1.00  0.00     0.037 C 
HETATM    5  C13 UNL     1       6.615   4.838  20.509  1.00  0.00     0.134 C 
HETATM    6  C24 UNL     1       7.985   4.196  20.542  1.00  0.00     0.037 C 
HETATM    7  C25 UNL     1       7.754   2.692  20.722  1.00  0.00     0.069 C 
ENDROOT
BRANCH   5   8
HETATM    8  O3  UNL     1       6.679   6.235  20.586  1.00  0.00    -0.298 OA
BRANCH   8   9
HETATM    9  C14 UNL     1       7.053   6.916  21.729  1.00  0.00     0.363 C 
HETATM   10  O4  UNL     1       8.140   7.521  21.716  1.00  0.00    -0.238 OA
HETATM   11  N2  UNL     1       6.252   6.946  22.898  1.00  0.00    -0.324 N 
HETATM   12  C15 UNL     1       4.949   6.331  23.178  1.00  0.00     0.165 C 
HETATM   13  C23 UNL     1       6.275   7.508  24.235  1.00  0.00     0.165 C 
HETATM   14  C16 UNL     1       4.745   7.333  24.286  1.00  0.00     0.259 C 
BRANCH  14  15
HETATM   15  N3  UNL     1       4.128   8.564  23.947  1.00  0.00     0.096 N 
HETATM   16  C17 UNL     1       4.111   9.449  25.056  1.00  0.00     0.273 C 
HETATM   17  C18 UNL     1       2.759   9.775  25.596  1.00  0.00     0.036 C 
HETATM   18  C19 UNL     1       1.721   8.734  25.398  1.00  0.00     0.014 C 
HETATM   19  C21 UNL     1       1.805   7.972  24.121  1.00  0.00     0.036 C 
HETATM   20  C22 UNL     1       2.903   8.509  23.232  1.00  0.00     0.273 C 
BRANCH  18  21
HETATM   21  C20 UNL     1       0.360   9.445  25.397  1.00  0.00     0.234 C 
BRANCH  21  22
HETATM   22  N4  UNL     1      -0.359   9.076  26.601  1.00  0.00    -0.079 N 
ATOM     23  H43 UNL     1       0.240   9.071  27.427  1.00  0.00     0.274 HD
ATOM     24  H42 UNL     1      -1.011   9.799  26.904  1.00  0.00     0.274 HD
ATOM     25  H41 UNL     1      -0.817   8.178  26.445  1.00  0.00     0.274 HD
ENDBRANCH  21  22
ENDBRANCH  18  21
ENDBRANCH  14  15
ENDBRANCH   8   9
ENDBRANCH   5   8
BRANCH   1  26
HETATM   26  N1  UNL     1       7.630   1.074  18.870  1.00  0.00    -0.374 N 
HETATM   27  C9  UNL     1       7.167   0.869  17.540  1.00  0.00     0.159 C 
HETATM   28  C5  UNL     1       7.691  -0.368  16.920  1.00  0.00    -0.031 A 
HETATM   29  C4  UNL     1       8.997  -0.703  17.199  1.00  0.00    -0.046 A 
HETATM   30  C6  UNL     1       6.917  -1.134  16.115  1.00  0.00     0.049 A 
HETATM   31  C3  UNL     1       9.551  -1.840  16.656  1.00  0.00     0.047 A 
HETATM   32  C27 UNL     1       9.796   0.169  18.082  1.00  0.00     0.058 C 
HETATM   33  C2  UNL     1       8.758  -2.624  15.832  1.00  0.00     0.102 A 
HETATM   34  C7  UNL     1       7.441  -2.295  15.545  1.00  0.00     0.102 A 
HETATM   35  C26 UNL     1       9.028   0.951  19.076  1.00  0.00     0.125 C 
BRANCH  33  36
HETATM   36  O1  UNL     1       9.243  -3.787  15.246  1.00  0.00    -0.353 OA
HETATM   37  C1  UNL     1       9.528  -4.968  15.965  1.00  0.00     0.210 C 
ENDBRANCH  33  36
BRANCH  34  38
HETATM   38  O2  UNL     1       6.671  -3.101  14.715  1.00  0.00    -0.353 OA
HETATM   39  C8  UNL     1       5.664  -3.905  15.305  1.00  0.00     0.210 C 
ENDBRANCH  34  38
ENDBRANCH   1  26
TORSDOF 8
ENDMDL
MODEL 2
REMARK VINA RESULT: -8.558335419      2.358      3.913
REMARK  8 active torsions:
REMARK  status: ('A' for Active; 'I' for Inactive)
REMARK    1  A    between atoms: O1_2  and  C2_3 
REMARK    2  A    between atoms: C7_8  and  O2_9 
REMARK    3  A    between atoms: N1_12  and  C10_13 
REMARK    4  A    between atoms: C13_17  and  O3_18 
REMARK    5  A    between atoms: O3_18  and  C14_19 
REMARK       I    between atoms: C14_19  and  N2_21 
REMARK    6  A    between atoms: C16_23  and  N3_24 
REMARK    7  A    between atoms: C19_27  and  C20_28 
REMARK    8  A    between atoms: C20_28  and  N4_29 
ROOT
HETATM    1  C10 UNL     1       7.450   2.407  19.549  1.00  0.00     0.174 C 
HETATM    2  F1  UNL     1       8.484   3.251  19.918  1.00  0.00    -0.220 F 
HETATM    3  C11 UNL     1       6.821   1.922  20.843  1.00  0.00     0.069 C 
HETATM    4  C12 UNL     1       6.283   3.102  21.634  1.00  0.00     0.037 C 
HETATM    5  C13 UNL     1       5.357   3.951  20.826  1.00  0.00     0.134 C 
HETATM    6  C24 UNL     1       5.109   3.284  19.490  1.00  0.00     0.037 C 
HETATM    7  C25 UNL     1       6.465   3.218  18.780  1.00  0.00     0.069 C 
ENDROOT
BRANCH   5   8
HETATM    8  O3  UNL     1       4.166   4.290  21.482  1.00  0.00    -0.298 OA
BRANCH   8   9
HETATM    9  C14 UNL     1       4.130   4.890  22.727  1.00  0.00     0.363 C 
HETATM   10  O4  UNL     1       3.562   4.279  23.649  1.00  0.00    -0.238 OA
HETATM   11  N2  UNL     1       4.707   6.159  22.981  1.00  0.00    -0.324 N 
HETATM   12  C15 UNL     1       5.426   7.077  22.089  1.00  0.00     0.165 C 
HETATM   13  C23 UNL     1       4.880   7.090  24.079  1.00  0.00     0.165 C 
HETATM   14  C16 UNL     1       6.049   7.724  23.300  1.00  0.00     0.259 C 
BRANCH  14  15
HETATM   15  N3  UNL     1       7.269   7.179  23.775  1.00  0.00     0.096 N 
HETATM   16  C17 UNL     1       7.518   7.577  25.114  1.00  0.00     0.273 C 
HETATM   17  C18 UNL     1       8.700   8.465  25.311  1.00  0.00     0.036 C 
HETATM   18  C19 UNL     1       9.061   9.317  24.151  1.00  0.00     0.014 C 
HETATM   19  C21 UNL     1       8.854   8.705  22.809  1.00  0.00     0.036 C 
HETATM   20  C22 UNL     1       8.402   7.268  22.925  1.00  0.00     0.273 C 
BRANCH  18  21
HETATM   21  C20 UNL     1      10.562   9.627  24.266  1.00  0.00     0.234 C 
BRANCH  21  22
HETATM   22  N4  UNL     1      10.954   9.513  25.657  1.00  0.00    -0.079 N 
ATOM     23  H43 UNL     1      11.401   8.620  25.865  1.00  0.00     0.274 HD
ATOM     24  H42 UNL     1      11.738  10.122  25.893  1.00  0.00     0.274 HD
ATOM     25  H41 UNL     1      10.137   9.687  26.243  1.00  0.00     0.274 HD
ENDBRANCH  21  22
ENDBRANCH  18  21
ENDBRANCH  14  15
ENDBRANCH   8   9
ENDBRANCH   5   8
BRANCH   1  26
HETATM   26  N1  UNL     1       7.984   1.283  18.861  1.00  0.00    -0.374 N 
HETATM   27  C9  UNL     1       7.492   1.087  17.540  1.00  0.00     0.159 C 
HETATM   28  C5  UNL     1       7.879  -0.216  16.956  1.00  0.00    -0.031 A 
HETATM   29  C4  UNL     1       9.145  -0.678  17.239  1.00  0.00    -0.046 A 
HETATM   30  C6  UNL     1       7.022  -0.921  16.178  1.00  0.00     0.049 A 
HETATM   31  C3  UNL     1       9.573  -1.882  16.729  1.00  0.00     0.047 A 
HETATM   32  C27 UNL     1      10.037   0.132  18.091  1.00  0.00     0.058 C 
HETATM   33  C2  UNL     1       8.696  -2.603  15.933  1.00  0.00     0.102 A 
HETATM   34  C7  UNL     1       7.418  -2.147  15.642  1.00  0.00     0.102 A 
HETATM   35  C26 UNL     1       9.362   1.020  19.065  1.00  0.00     0.125 C 
BRANCH  33  36
HETATM   36  O1  UNL     1       9.052  -3.828  15.381  1.00  0.00    -0.353 OA
HETATM   37  C1  UNL     1       9.409  -4.959  16.146  1.00  0.00     0.210 C 
ENDBRANCH  33  36
BRANCH  34  38
HETATM   38  O2  UNL     1       6.561  -2.892  14.840  1.00  0.00    -0.353 OA
HETATM   39  C8  UNL     1       5.486  -3.576  15.460  1.00  0.00     0.210 C 
ENDBRANCH  34  38
ENDBRANCH   1  26
TORSDOF 8
ENDMDL
MODEL 3
REMARK VINA RESULT: -8.508104117      2.687      4.778
REMARK  8 active torsions:
REMARK  status: ('A' for Active; 'I' for Inactive)
REMARK    1  A    between atoms: O1_2  and  C2_3 
REMARK    2  A    between atoms: C7_8  and  O2_9 
REMARK    3  A    between atoms: N1_12  and  C10_13 
REMARK    4  A    between atoms: C13_17  and  O3_18 
REMARK    5  A    between atoms: O3_18  and  C14_19 
REMARK       I    between atoms: C14_19  and  N2_21 
REMARK    6  A    between atoms: C16_23  and  N3_24 
REMARK    7  A    between atoms: C19_27  and  C20_28 
REMARK    8  A    between atoms: C20_28  and  N4_29 
ROOT
HETATM    1  C10 UNL     1       4.482   3.408  20.955  1.00  0.00     0.174 C 
HETATM    2  F1  UNL     1       3.337   2.687  20.662  1.00  0.00    -0.220 F 
HETATM    3  C11 UNL     1       4.336   4.738  20.239  1.00  0.00     0.069 C 
HETATM    4  C12 UNL     1       3.106   5.471  20.746  1.00  0.00     0.037 C 
HETATM    5  C13 UNL     1       3.105   5.614  22.234  1.00  0.00     0.134 C 
HETATM    6  C24 UNL     1       4.425   5.116  22.781  1.00  0.00     0.037 C 
HETATM    7  C25 UNL     1       4.506   3.627  22.428  1.00  0.00     0.069 C 
ENDROOT
BRANCH   5   8
HETATM    8  O3  UNL     1       2.792   6.902  22.688  1.00  0.00    -0.298 OA
BRANCH   8   9
HETATM    9  C14 UNL     1       3.338   7.458  23.829  1.00  0.00     0.363 C 
HETATM   10  O4  UNL     1       2.794   7.202  24.918  1.00  0.00    -0.238 OA
HETATM   11  N2  UNL     1       4.479   8.298  23.800  1.00  0.00    -0.324 N 
HETATM   12  C15 UNL     1       5.301   8.753  22.672  1.00  0.00     0.165 C 
HETATM   13  C23 UNL     1       5.322   9.044  24.715  1.00  0.00     0.165 C 
HETATM   14  C16 UNL     1       6.424   9.034  23.638  1.00  0.00     0.259 C 
BRANCH  14  15
HETATM   15  N3  UNL     1       7.328   7.977  23.914  1.00  0.00     0.096 N 
HETATM   16  C17 UNL     1       7.709   7.973  25.280  1.00  0.00     0.273 C 
HETATM   17  C18 UNL     1       9.145   8.276  25.548  1.00  0.00     0.036 C 
HETATM   18  C19 UNL     1       9.817   9.133  24.540  1.00  0.00     0.014 C 
HETATM   19  C21 UNL     1       9.391   8.927  23.128  1.00  0.00     0.036 C 
HETATM   20  C22 UNL     1       8.407   7.786  23.012  1.00  0.00     0.273 C 
BRANCH  18  21
HETATM   21  C20 UNL     1      11.318   8.808  24.598  1.00  0.00     0.234 C 
BRANCH  21  22
HETATM   22  N4  UNL     1      11.568   7.973  25.757  1.00  0.00    -0.079 N 
ATOM     23  H43 UNL     1      11.316   8.434  26.632  1.00  0.00     0.274 HD
ATOM     24  H42 UNL     1      10.921   7.188  25.819  1.00  0.00     0.274 HD
ATOM     25  H41 UNL     1      12.543   7.675  25.741  1.00  0.00     0.274 HD
ENDBRANCH  21  22
ENDBRANCH  18  21
ENDBRANCH  14  15
ENDBRANCH   8   9
ENDBRANCH   5   8
BRANCH   1  26
HETATM   26  N1  UNL     1       5.613   2.732  20.420  1.00  0.00    -0.374 N 
HETATM   27  C9  UNL     1       5.601   2.547  19.009  1.00  0.00     0.159 C 
HETATM   28  C5  UNL     1       6.661   1.634  18.527  1.00  0.00    -0.031 A 
HETATM   29  C4  UNL     1       7.887   1.715  19.149  1.00  0.00    -0.046 A 
HETATM   30  C6  UNL     1       6.431   0.759  17.519  1.00  0.00     0.049 A 
HETATM   31  C3  UNL     1       8.919   0.896  18.752  1.00  0.00     0.047 A 
HETATM   32  C27 UNL     1       8.083   2.688  20.241  1.00  0.00     0.058 C 
HETATM   33  C2  UNL     1       8.683   0.001  17.720  1.00  0.00     0.102 A 
HETATM   34  C7  UNL     1       7.452  -0.089  17.087  1.00  0.00     0.102 A 
HETATM   35  C26 UNL     1       6.866   3.050  21.003  1.00  0.00     0.125 C 
BRANCH  33  36
HETATM   36  O1  UNL     1       9.674  -0.860  17.262  1.00  0.00    -0.353 OA
HETATM   37  C1  UNL     1      10.859  -1.143  17.975  1.00  0.00     0.210 C 
ENDBRANCH  33  36
BRANCH  34  38
HETATM   38  O2  UNL     1       7.246  -0.997  16.055  1.00  0.00    -0.353 OA
HETATM   39  C8  UNL     1       5.916  -1.235  15.626  1.00  0.00     0.210 C 
ENDBRANCH  34  38
ENDBRANCH   1  26
TORSDOF 8
ENDMDL
MODEL 4
REMARK VINA RESULT: -8.314611357      2.801      4.752
REMARK  8 active torsions:
REMARK  status: ('A' for Active; 'I' for Inactive)
REMARK    1  A    between atoms: O1_2  and  C2_3 
REMARK    2  A    between atoms: C7_8  and  O2_9 
REMARK    3  A    between atoms: N1_12  and  C10_13 
REMARK    4  A    between atoms: C13_17  and  O3_18 
REMARK    5  A    between atoms: O3_18  and  C14_19 
REMARK       I    between atoms: C14_19  and  N2_21 
REMARK    6  A    between atoms: C16_23  and  N3_24 
REMARK    7  A    between atoms: C19_27  and  C20_28 
REMARK    8  A    between atoms: C20_28  and  N4_29 
ROOT
HETATM    1  C10 UNL     1       3.684   2.488  21.440  1.00  0.00     0.174 C 
HETATM    2  F1  UNL     1       2.713   1.559  21.107  1.00  0.00    -0.220 F 
HETATM    3  C11 UNL     1       3.249   3.797  20.806  1.00  0.00     0.069 C 
HETATM    4  C12 UNL     1       1.900   4.222  21.360  1.00  0.00     0.037 C 
HETATM    5  C13 UNL     1       1.893   4.273  22.854  1.00  0.00     0.134 C 
HETATM    6  C24 UNL     1       3.296   4.035  23.366  1.00  0.00     0.037 C 
HETATM    7  C25 UNL     1       3.684   2.620  22.924  1.00  0.00     0.069 C 
ENDROOT
BRANCH   5   8
HETATM    8  O3  UNL     1       1.322   5.437  23.385  1.00  0.00    -0.298 OA
BRANCH   8   9
HETATM    9  C14 UNL     1       1.847   6.113  24.471  1.00  0.00     0.363 C 
HETATM   10  O4  UNL     1       1.557   5.701  25.608  1.00  0.00    -0.238 OA
HETATM   11  N2  UNL     1       2.691   7.243  24.332  1.00  0.00    -0.324 N 
HETATM   12  C15 UNL     1       3.185   7.924  23.130  1.00  0.00     0.165 C 
HETATM   13  C23 UNL     1       3.413   8.187  25.164  1.00  0.00     0.165 C 
HETATM   14  C16 UNL     1       4.310   8.502  23.951  1.00  0.00     0.259 C 
BRANCH  14  15
HETATM   15  N3  UNL     1       5.503   7.741  24.050  1.00  0.00     0.096 N 
HETATM   16  C17 UNL     1       6.495   8.440  24.784  1.00  0.00     0.273 C 
HETATM   17  C18 UNL     1       7.701   8.849  24.007  1.00  0.00     0.036 C 
HETATM   18  C19 UNL     1       7.482   9.075  22.557  1.00  0.00     0.014 C 
HETATM   19  C21 UNL     1       6.495   8.173  21.903  1.00  0.00     0.036 C 
HETATM   20  C22 UNL     1       5.986   7.125  22.866  1.00  0.00     0.273 C 
BRANCH  18  21
HETATM   21  C20 UNL     1       8.828   8.838  21.854  1.00  0.00     0.234 C 
BRANCH  21  22
HETATM   22  N4  UNL     1       9.892   8.971  22.830  1.00  0.00    -0.079 N 
ATOM     23  H43 UNL     1       9.605   9.505  23.650  1.00  0.00     0.274 HD
ATOM     24  H42 UNL     1      10.102   8.091  23.301  1.00  0.00     0.274 HD
ATOM     25  H41 UNL     1      10.709   9.372  22.369  1.00  0.00     0.274 HD
ENDBRANCH  21  22
ENDBRANCH  18  21
ENDBRANCH  14  15
ENDBRANCH   8   9
ENDBRANCH   5   8
BRANCH   1  26
HETATM   26  N1  UNL     1       4.924   2.100  20.862  1.00  0.00    -0.374 N 
HETATM   27  C9  UNL     1       4.977   2.153  19.440  1.00  0.00     0.159 C 
HETATM   28  C5  UNL     1       6.185   1.514  18.873  1.00  0.00    -0.031 A 
HETATM   29  C4  UNL     1       7.365   1.684  19.561  1.00  0.00    -0.046 A 
HETATM   30  C6  UNL     1       6.127   0.794  17.727  1.00  0.00     0.049 A 
HETATM   31  C3  UNL     1       8.528   1.117  19.091  1.00  0.00     0.047 A 
HETATM   32  C27 UNL     1       7.370   2.480  20.804  1.00  0.00     0.058 C 
HETATM   33  C2  UNL     1       8.468   0.381  17.918  1.00  0.00     0.102 A 
HETATM   34  C7  UNL     1       7.284   0.204  17.217  1.00  0.00     0.102 A 
HETATM   35  C26 UNL     1       6.093   2.511  21.551  1.00  0.00     0.125 C 
BRANCH  33  36
HETATM   36  O1  UNL     1       9.598  -0.223  17.379  1.00  0.00    -0.353 OA
HETATM   37  C1  UNL     1      10.680  -0.697  18.153  1.00  0.00     0.210 C 
ENDBRANCH  33  36
BRANCH  34  38
HETATM   38  O2  UNL     1       7.256  -0.540  16.043  1.00  0.00    -0.353 OA
HETATM   39  C8  UNL     1       6.029  -1.133  15.653  1.00  0.00     0.210 C 
ENDBRANCH  34  38
ENDBRANCH   1  26
TORSDOF 8
ENDMDL
MODEL 5
REMARK VINA RESULT: -8.286936402      4.412     10.610
REMARK  8 active torsions:
REMARK  status: ('A' for Active; 'I' for Inactive)
REMARK    1  A    between atoms: O1_2  and  C2_3 
REMARK    2  A    between atoms: C7_8  and  O2_9 
REMARK    3  A    between atoms: N1_12  and  C10_13 
REMARK    4  A    between atoms: C13_17  and  O3_18 
REMARK    5  A    between atoms: O3_18  and  C14_19 
REMARK       I    between atoms: C14_19  and  N2_21 
REMARK    6  A    between atoms: C16_23  and  N3_24 
REMARK    7  A    between atoms: C19_27  and  C20_28 
REMARK    8  A    between atoms: C20_28  and  N4_29 
ROOT
HETATM    1  C10 UNL     1       5.492   8.198  21.547  1.00  0.00     0.174 C 
HETATM    2  F1  UNL     1       4.839   9.411  21.409  1.00  0.00    -0.220 F 
HETATM    3  C11 UNL     1       4.626   7.357  22.467  1.00  0.00     0.069 C 
HETATM    4  C12 UNL     1       3.254   7.151  21.848  1.00  0.00     0.037 C 
HETATM    5  C13 UNL     1       3.336   6.594  20.464  1.00  0.00     0.134 C 
HETATM    6  C24 UNL     1       4.775   6.251  20.150  1.00  0.00     0.037 C 
HETATM    7  C25 UNL     1       5.555   7.570  20.198  1.00  0.00     0.069 C 
ENDROOT
BRANCH   5   8
HETATM    8  O3  UNL     1       2.468   5.521  20.224  1.00  0.00    -0.298 OA
BRANCH   8   9
HETATM    9  C14 UNL     1       2.521   4.742  19.083  1.00  0.00     0.363 C 
HETATM   10  O4  UNL     1       1.924   5.150  18.072  1.00  0.00    -0.238 OA
HETATM   11  N2  UNL     1       3.223   3.511  19.030  1.00  0.00    -0.324 N 
HETATM   12  C15 UNL     1       4.000   2.810  20.059  1.00  0.00     0.165 C 
HETATM   13  C23 UNL     1       3.512   2.448  18.087  1.00  0.00     0.165 C 
HETATM   14  C16 UNL     1       4.714   2.054  18.966  1.00  0.00     0.259 C 
BRANCH  14  15
HETATM   15  N3  UNL     1       5.889   2.638  18.429  1.00  0.00     0.096 N 
HETATM   16  C17 UNL     1       6.371   1.892  17.323  1.00  0.00     0.273 C 
HETATM   17  C18 UNL     1       7.689   1.224  17.523  1.00  0.00     0.036 C 
HETATM   18  C19 UNL     1       8.018   0.865  18.925  1.00  0.00     0.014 C 
HETATM   19  C21 UNL     1       7.546   1.819  19.966  1.00  0.00     0.036 C 
HETATM   20  C22 UNL     1       6.900   3.035  19.343  1.00  0.00     0.273 C 
BRANCH  18  21
HETATM   21  C20 UNL     1       9.551   0.819  19.033  1.00  0.00     0.234 C 
BRANCH  21  22
HETATM   22  N4  UNL     1      10.074   0.078  17.902  1.00  0.00    -0.079 N 
ATOM     23  H43 UNL     1       9.476  -0.705  17.638  1.00  0.00     0.274 HD
ATOM     24  H42 UNL     1      10.014   0.602  17.030  1.00  0.00     0.274 HD
ATOM     25  H41 UNL     1      11.028  -0.214  18.116  1.00  0.00     0.274 HD
ENDBRANCH  21  22
ENDBRANCH  18  21
ENDBRANCH  14  15
ENDBRANCH   8   9
ENDBRANCH   5   8
BRANCH   1  26
HETATM   26  N1  UNL     1       6.747   8.409  22.181  1.00  0.00    -0.374 N 
HETATM   27  C9  UNL     1       7.126   7.415  23.127  1.00  0.00     0.159 C 
HETATM   28  C5  UNL     1       8.306   7.794  23.936  1.00  0.00    -0.031 A 
HETATM   29  C4  UNL     1       9.313   8.477  23.292  1.00  0.00    -0.046 A 
HETATM   30  C6  UNL     1       8.388   7.480  25.251  1.00  0.00     0.049 A 
HETATM   31  C3  UNL     1      10.441   8.860  23.982  1.00  0.00     0.047 A 
HETATM   32  C27 UNL     1       9.172   8.792  21.857  1.00  0.00     0.058 C 
HETATM   33  C2  UNL     1      10.524   8.539  25.328  1.00  0.00     0.102 A 
HETATM   34  C7  UNL     1       9.515   7.851  25.986  1.00  0.00     0.102 A 
HETATM   35  C26 UNL     1       7.783   8.927  21.364  1.00  0.00     0.125 C 
BRANCH  33  36
HETATM   36  O1  UNL     1      11.629   8.891  26.094  1.00  0.00    -0.353 OA
HETATM   37  C1  UNL     1      12.787   8.094  26.214  1.00  0.00     0.210 C 
ENDBRANCH  33  36
BRANCH  34  38
HETATM   38  O2  UNL     1       9.627   7.542  27.337  1.00  0.00    -0.353 OA
HETATM   39  C8  UNL     1      10.024   6.230  27.695  1.00  0.00     0.210 C 
ENDBRANCH  34  38
ENDBRANCH   1  26
TORSDOF 8
ENDMDL
