MODEL 1
REMARK VINA RESULT: -8.005319305      0.000      0.000
REMARK  7 active torsions:
REMARK  status: ('A' for Active; 'I' for Inactive)
REMARK    1  A    between atoms: C2_2  and  N1_4 
REMARK       I    between atoms: N1_4  and  C4_6 
REMARK       I    between atoms: C4_6  and  N2_8 
REMARK    2  A    between atoms: N2_8  and  C5_9 
REMARK    3  A    between atoms: N2_8  and  C22_31 
REMARK    4  A    between atoms: C5_9  and  C6_10 
REMARK       I    between atoms: N3_13  and  C9_14 
REMARK    5  A    between atoms: C9_14  and  O3_16 
REMARK    6  A    between atoms: O3_16  and  C10_17 
REMARK    7  A    between atoms: N4_20  and  C13_21 
ROOT
HETATM    1  C6  UNL     1       4.731   5.044  19.700  1.00  0.00     0.008 C 
HETATM    2  C7  UNL     1       3.520   5.750  20.190  1.00  0.00     0.026 C 
HETATM    3  C8  UNL     1       3.754   6.667  21.347  1.00  0.00     0.128 C 
HETATM    4  N3  UNL     1       5.023   7.312  21.394  1.00  0.00    -0.328 N 
HETATM    5  C9  UNL     1       5.206   8.417  22.274  1.00  0.00     0.363 C 
HETATM    6  O2  UNL     1       4.276   8.825  23.005  1.00  0.00    -0.238 OA
HETATM    7  C20 UNL     1       6.098   6.832  20.552  1.00  0.00     0.128 C 
HETATM    8  C21 UNL     1       5.957   5.300  20.546  1.00  0.00     0.026 C 
ENDROOT
BRANCH   1   9
HETATM    9  C5  UNL     1       4.572   3.585  19.428  1.00  0.00     0.157 C 
BRANCH   9  10
HETATM   10  N2  UNL     1       5.493   3.057  18.440  1.00  0.00    -0.132 N 
HETATM   11  C4  UNL     1       6.445   2.087  18.840  1.00  0.00     0.337 C 
HETATM   12  N1  UNL     1       7.359   1.492  17.954  1.00  0.00    -0.338 N 
HETATM   13  O1  UNL     1       6.484   1.728  20.050  1.00  0.00    -0.246 OA
ATOM     14  H1  UNL     1       7.350   1.762  16.970  1.00  0.00     0.164 HD
BRANCH  12  15
HETATM   15  C2  UNL     1       8.326   0.490  18.416  1.00  0.00     0.078 C 
HETATM   16  C1  UNL     1       9.494   1.179  19.044  1.00  0.00     0.032 C 
HETATM   17  C3  UNL     1       8.741  -0.319  17.186  1.00  0.00     0.032 C 
ENDBRANCH  12  15
BRANCH  10  18
HETATM   18  C22 UNL     1       5.431   3.505  17.096  1.00  0.00     0.688 A 
HETATM   19  N5  UNL     1       4.624   2.864  16.227  1.00  0.00    -0.198 N 
HETATM   20  C23 UNL     1       4.525   3.240  14.946  1.00  0.00     0.149 A 
ATOM     21  H5  UNL     1       4.072   2.071  16.555  1.00  0.00     0.183 HD
HETATM   22  C24 UNL     1       5.256   4.312  14.458  1.00  0.00     0.148 A 
HETATM   23  F1  UNL     1       5.150   4.686  13.155  1.00  0.00    -0.203 F 
HETATM   24  C25 UNL     1       6.079   4.967  15.340  1.00  0.00     0.149 A 
HETATM   25  N6  UNL     1       6.145   4.554  16.616  1.00  0.00    -0.198 N 
ATOM     26  H6  UNL     1       6.762   5.054  17.255  1.00  0.00     0.183 HD
ENDBRANCH  10  18
ENDBRANCH   9  10
ENDBRANCH   1   9
BRANCH   5  27
HETATM   27  O3  UNL     1       6.416   9.097  22.366  1.00  0.00    -0.298 OA
BRANCH  27  28
HETATM   28  C10 UNL     1       7.285   9.000  23.465  1.00  0.00     0.140 C 
HETATM   29  C11 UNL     1       8.621   9.639  23.211  1.00  0.00     0.077 C 
HETATM   30  C12 UNL     1       9.669   9.325  24.196  1.00  0.00     0.061 C 
HETATM   31  N4  UNL     1       9.476   8.319  25.145  1.00  0.00    -0.388 N 
HETATM   32  C18 UNL     1       8.244   7.627  25.211  1.00  0.00     0.125 C 
HETATM   33  C19 UNL     1       7.538   7.589  23.899  1.00  0.00     0.053 C 
BRANCH  31  34
HETATM   34  C13 UNL     1      10.069   8.601  26.431  1.00  0.00     0.087 C 
HETATM   35  C14 UNL     1      11.510   8.963  26.224  1.00  0.00     0.051 C 
HETATM   36  C15 UNL     1      12.411   7.760  26.148  1.00  0.00     0.169 C 
HETATM   37  O4  UNL     1      12.265   7.035  27.328  1.00  0.00    -0.391 OA
HETATM   38  C16 UNL     1      10.994   6.428  27.259  1.00  0.00     0.169 C 
HETATM   39  C17 UNL     1       9.898   7.463  27.406  1.00  0.00     0.051 C 
ENDBRANCH  31  34
ENDBRANCH  27  28
ENDBRANCH   5  27
TORSDOF 7
ENDMDL
MODEL 2
REMARK VINA RESULT: -7.857442381      2.449      3.375
REMARK  7 active torsions:
REMARK  status: ('A' for Active; 'I' for Inactive)
REMARK    1  A    between atoms: C2_2  and  N1_4 
REMARK       I    between atoms: N1_4  and  C4_6 
REMARK       I    between atoms: C4_6  and  N2_8 
REMARK    2  A    between atoms: N2_8  and  C5_9 
REMARK    3  A    between atoms: N2_8  and  C22_31 
REMARK    4  A    between atoms: C5_9  and  C6_10 
REMARK       I    between atoms: N3_13  and  C9_14 
REMARK    5  A    between atoms: C9_14  and  O3_16 
REMARK    6  A    between atoms: O3_16  and  C10_17 
REMARK    7  A    between atoms: N4_20  and  C13_21 
ROOT
HETATM    1  C6  UNL     1       4.140   5.434  19.054  1.00  0.00     0.008 C 
HETATM    2  C7  UNL     1       3.052   5.785  20.001  1.00  0.00     0.026 C 
HETATM    3  C8  UNL     1       3.513   6.350  21.306  1.00  0.00     0.128 C 
HETATM    4  N3  UNL     1       4.704   7.129  21.268  1.00  0.00    -0.328 N 
HETATM    5  C9  UNL     1       5.033   7.946  22.389  1.00  0.00     0.363 C 
HETATM    6  O2  UNL     1       4.297   7.985  23.400  1.00  0.00    -0.238 OA
HETATM    7  C20 UNL     1       5.556   7.074  20.099  1.00  0.00     0.128 C 
HETATM    8  C21 UNL     1       5.523   5.607  19.640  1.00  0.00     0.026 C 
ENDROOT
BRANCH   1   9
HETATM    9  C5  UNL     1       4.016   4.109  18.377  1.00  0.00     0.157 C 
BRANCH   9  10
HETATM   10  N2  UNL     1       4.803   3.052  18.982  1.00  0.00    -0.132 N 
HETATM   11  C4  UNL     1       5.998   2.637  18.344  1.00  0.00     0.337 C 
HETATM   12  N1  UNL     1       6.845   1.644  18.866  1.00  0.00    -0.338 N 
HETATM   13  O1  UNL     1       6.331   3.177  17.253  1.00  0.00    -0.246 OA
ATOM     14  H1  UNL     1       6.601   1.190  19.747  1.00  0.00     0.164 HD
BRANCH  12  15
HETATM   15  C2  UNL     1       8.073   1.248  18.168  1.00  0.00     0.078 C 
HETATM   16  C1  UNL     1       7.797   0.052  17.315  1.00  0.00     0.032 C 
HETATM   17  C3  UNL     1       9.113   0.944  19.248  1.00  0.00     0.032 C 
ENDBRANCH  12  15
BRANCH  10  18
HETATM   18  C22 UNL     1       4.381   2.455  20.196  1.00  0.00     0.688 A 
HETATM   19  N5  UNL     1       3.409   1.521  20.167  1.00  0.00    -0.198 N 
HETATM   20  C23 UNL     1       2.968   0.924  21.281  1.00  0.00     0.149 A 
ATOM     21  H5  UNL     1       2.998   1.262  19.270  1.00  0.00     0.183 HD
HETATM   22  C24 UNL     1       3.499   1.246  22.520  1.00  0.00     0.148 A 
HETATM   23  F1  UNL     1       3.045   0.635  23.647  1.00  0.00    -0.203 F 
HETATM   24  C25 UNL     1       4.488   2.197  22.555  1.00  0.00     0.149 A 
HETATM   25  N6  UNL     1       4.898   2.768  21.411  1.00  0.00    -0.198 N 
ATOM     26  H6  UNL     1       5.635   3.471  21.458  1.00  0.00     0.183 HD
ENDBRANCH  10  18
ENDBRANCH   9  10
ENDBRANCH   1   9
BRANCH   5  27
HETATM   27  O3  UNL     1       6.177   8.737  22.418  1.00  0.00    -0.298 OA
BRANCH  27  28
HETATM   28  C10 UNL     1       7.100   8.738  23.476  1.00  0.00     0.140 C 
HETATM   29  C11 UNL     1       8.367   9.473  23.145  1.00  0.00     0.077 C 
HETATM   30  C12 UNL     1       9.481   9.268  24.086  1.00  0.00     0.061 C 
HETATM   31  N4  UNL     1       9.411   8.276  25.067  1.00  0.00    -0.388 N 
HETATM   32  C18 UNL     1       8.243   7.491  25.206  1.00  0.00     0.125 C 
HETATM   33  C19 UNL     1       7.484   7.363  23.930  1.00  0.00     0.053 C 
BRANCH  31  34
HETATM   34  C13 UNL     1      10.037   8.638  26.316  1.00  0.00     0.087 C 
HETATM   35  C14 UNL     1      11.464   9.015  26.045  1.00  0.00     0.051 C 
HETATM   36  C15 UNL     1      12.387   7.827  26.004  1.00  0.00     0.169 C 
HETATM   37  O4  UNL     1      12.291   7.164  27.226  1.00  0.00    -0.391 OA
HETATM   38  C16 UNL     1      11.032   6.530  27.229  1.00  0.00     0.169 C 
HETATM   39  C17 UNL     1       9.919   7.551  27.355  1.00  0.00     0.051 C 
ENDBRANCH  31  34
ENDBRANCH  27  28
ENDBRANCH   5  27
TORSDOF 7
ENDMDL
MODEL 3
REMARK VINA RESULT: -7.794777364      1.878      3.394
REMARK  7 active torsions:
REMARK  status: ('A' for Active; 'I' for Inactive)
REMARK    1  A    between atoms: C2_2  and  N1_4 
REMARK       I    between atoms: N1_4  and  C4_6 
REMARK       I    between atoms: C4_6  and  N2_8 
REMARK    2  A    between atoms: N2_8  and  C5_9 
REMARK    3  A    between atoms: N2_8  and  C22_31 
REMARK    4  A    between atoms: C5_9  and  C6_10 
REMARK       I    between atoms: N3_13  and  C9_14 
REMARK    5  A    between atoms: C9_14  and  O3_16 
REMARK    6  A    between atoms: O3_16  and  C10_17 
REMARK    7  A    between atoms: N4_20  and  C13_21 
ROOT
HETATM    1  C6  UNL     1       5.162   4.458  19.607  1.00  0.00     0.008 C 
HETATM    2  C7  UNL     1       3.866   4.965  20.121  1.00  0.00     0.026 C 
HETATM    3  C8  UNL     1       3.972   5.888  21.292  1.00  0.00     0.128 C 
HETATM    4  N3  UNL     1       5.130   6.716  21.338  1.00  0.00    -0.328 N 
HETATM    5  C9  UNL     1       5.154   7.822  22.236  1.00  0.00     0.363 C 
HETATM    6  O2  UNL     1       4.183   8.073  22.983  1.00  0.00    -0.238 OA
HETATM    7  C20 UNL     1       6.255   6.417  20.478  1.00  0.00     0.128 C 
HETATM    8  C21 UNL     1       6.346   4.883  20.445  1.00  0.00     0.026 C 
ENDROOT
BRANCH   1   9
HETATM    9  C5  UNL     1       5.222   2.996  19.310  1.00  0.00     0.157 C 
BRANCH   9  10
HETATM   10  N2  UNL     1       5.980   2.658  18.121  1.00  0.00    -0.132 N 
HETATM   11  C4  UNL     1       5.530   3.132  16.864  1.00  0.00     0.337 C 
HETATM   12  N1  UNL     1       6.210   2.885  15.659  1.00  0.00    -0.338 N 
HETATM   13  O1  UNL     1       4.468   3.812  16.809  1.00  0.00    -0.246 OA
ATOM     14  H1  UNL     1       7.072   2.339  15.673  1.00  0.00     0.164 HD
BRANCH  12  15
HETATM   15  C2  UNL     1       5.704   3.398  14.381  1.00  0.00     0.078 C 
HETATM   16  C1  UNL     1       5.965   2.394  13.304  1.00  0.00     0.032 C 
HETATM   17  C3  UNL     1       6.436   4.715  14.115  1.00  0.00     0.032 C 
ENDBRANCH  12  15
BRANCH  10  18
HETATM   18  C22 UNL     1       7.155   1.872  18.224  1.00  0.00     0.688 A 
HETATM   19  N5  UNL     1       8.001   2.086  19.252  1.00  0.00    -0.198 N 
HETATM   20  C23 UNL     1       9.127   1.376  19.400  1.00  0.00     0.149 A 
ATOM     21  H5  UNL     1       7.777   2.809  19.936  1.00  0.00     0.183 HD
HETATM   22  C24 UNL     1       9.470   0.385  18.495  1.00  0.00     0.148 A 
HETATM   23  F1  UNL     1      10.615  -0.331  18.653  1.00  0.00    -0.203 F 
HETATM   24  C25 UNL     1       8.611   0.163  17.447  1.00  0.00     0.149 A 
HETATM   25  N6  UNL     1       7.493   0.900  17.340  1.00  0.00    -0.198 N 
ATOM     26  H6  UNL     1       6.868   0.719  16.555  1.00  0.00     0.183 HD
ENDBRANCH  10  18
ENDBRANCH   9  10
ENDBRANCH   1   9
BRANCH   5  27
HETATM   27  O3  UNL     1       6.249   8.675  22.329  1.00  0.00    -0.298 OA
BRANCH  27  28
HETATM   28  C10 UNL     1       7.144   8.684  23.411  1.00  0.00     0.140 C 
HETATM   29  C11 UNL     1       8.448   9.356  23.086  1.00  0.00     0.077 C 
HETATM   30  C12 UNL     1       9.527   9.146  24.065  1.00  0.00     0.061 C 
HETATM   31  N4  UNL     1       9.393   8.198  25.082  1.00  0.00    -0.388 N 
HETATM   32  C18 UNL     1       8.192   7.466  25.220  1.00  0.00     0.125 C 
HETATM   33  C19 UNL     1       7.462   7.315  23.930  1.00  0.00     0.053 C 
BRANCH  31  34
HETATM   34  C13 UNL     1      10.001   8.587  26.332  1.00  0.00     0.087 C 
HETATM   35  C14 UNL     1      11.415   9.012  26.066  1.00  0.00     0.051 C 
HETATM   36  C15 UNL     1      12.378   7.856  26.035  1.00  0.00     0.169 C 
HETATM   37  O4  UNL     1      12.300   7.195  27.258  1.00  0.00    -0.391 OA
HETATM   38  C16 UNL     1      11.063   6.518  27.259  1.00  0.00     0.169 C 
HETATM   39  C17 UNL     1       9.916   7.501  27.376  1.00  0.00     0.051 C 
ENDBRANCH  31  34
ENDBRANCH  27  28
ENDBRANCH   5  27
TORSDOF 7
ENDMDL
MODEL 4
REMARK VINA RESULT: -7.512302986      2.399      3.575
REMARK  7 active torsions:
REMARK  status: ('A' for Active; 'I' for Inactive)
REMARK    1  A    between atoms: C2_2  and  N1_4 
REMARK       I    between atoms: N1_4  and  C4_6 
REMARK       I    between atoms: C4_6  and  N2_8 
REMARK    2  A    between atoms: N2_8  and  C5_9 
REMARK    3  A    between atoms: N2_8  and  C22_31 
REMARK    4  A    between atoms: C5_9  and  C6_10 
REMARK       I    between atoms: N3_13  and  C9_14 
REMARK    5  A    between atoms: C9_14  and  O3_16 
REMARK    6  A    between atoms: O3_16  and  C10_17 
REMARK    7  A    between atoms: N4_20  and  C13_21 
ROOT
HETATM    1  C6  UNL     1       4.285   5.508  19.226  1.00  0.00     0.008 C 
HETATM    2  C7  UNL     1       3.189   6.278  19.866  1.00  0.00     0.026 C 
HETATM    3  C8  UNL     1       3.587   7.036  21.092  1.00  0.00     0.128 C 
HETATM    4  N3  UNL     1       4.919   7.538  21.117  1.00  0.00    -0.328 N 
HETATM    5  C9  UNL     1       5.271   8.518  22.089  1.00  0.00     0.363 C 
HETATM    6  O2  UNL     1       4.434   8.938  22.920  1.00  0.00    -0.238 OA
HETATM    7  C20 UNL     1       5.886   7.043  20.160  1.00  0.00     0.128 C 
HETATM    8  C21 UNL     1       5.579   5.544  20.009  1.00  0.00     0.026 C 
ENDROOT
BRANCH   1   9
HETATM    9  C5  UNL     1       3.953   4.111  18.820  1.00  0.00     0.157 C 
BRANCH   9  10
HETATM   10  N2  UNL     1       4.373   3.097  19.767  1.00  0.00    -0.132 N 
HETATM   11  C4  UNL     1       3.479   2.704  20.793  1.00  0.00     0.337 C 
HETATM   12  N1  UNL     1       3.779   1.709  21.739  1.00  0.00    -0.338 N 
HETATM   13  O1  UNL     1       2.351   3.267  20.873  1.00  0.00    -0.246 OA
ATOM     14  H1  UNL     1       4.682   1.237  21.699  1.00  0.00     0.164 HD
BRANCH  12  15
HETATM   15  C2  UNL     1       2.818   1.337  22.784  1.00  0.00     0.078 C 
HETATM   16  C1  UNL     1       3.003   2.229  23.970  1.00  0.00     0.032 C 
HETATM   17  C3  UNL     1       3.091  -0.127  23.130  1.00  0.00     0.032 C 
ENDBRANCH  12  15
BRANCH  10  18
HETATM   18  C22 UNL     1       5.657   2.506  19.657  1.00  0.00     0.688 A 
HETATM   19  N5  UNL     1       5.972   1.821  18.539  1.00  0.00    -0.198 N 
HETATM   20  C23 UNL     1       7.168   1.240  18.378  1.00  0.00     0.149 A 
ATOM     21  H5  UNL     1       5.279   1.743  17.794  1.00  0.00     0.183 HD
HETATM   22  C24 UNL     1       8.138   1.321  19.364  1.00  0.00     0.148 A 
HETATM   23  F1  UNL     1       9.350   0.728  19.194  1.00  0.00    -0.203 F 
HETATM   24  C25 UNL     1       7.822   2.018  20.504  1.00  0.00     0.149 A 
HETATM   25  N6  UNL     1       6.610   2.584  20.620  1.00  0.00    -0.198 N 
ATOM     26  H6  UNL     1       6.395   3.097  21.474  1.00  0.00     0.183 HD
ENDBRANCH  10  18
ENDBRANCH   9  10
ENDBRANCH   1   9
BRANCH   5  27
HETATM   27  O3  UNL     1       6.551   9.056  22.168  1.00  0.00    -0.298 OA
BRANCH  27  28
HETATM   28  C10 UNL     1       7.370   8.965  23.306  1.00  0.00     0.140 C 
HETATM   29  C11 UNL     1       8.745   9.526  23.082  1.00  0.00     0.077 C 
HETATM   30  C12 UNL     1       9.735   9.204  24.124  1.00  0.00     0.061 C 
HETATM   31  N4  UNL     1       9.452   8.252  25.106  1.00  0.00    -0.388 N 
HETATM   32  C18 UNL     1       8.185   7.625  25.148  1.00  0.00     0.125 C 
HETATM   33  C19 UNL     1       7.532   7.564  23.810  1.00  0.00     0.053 C 
BRANCH  31  34
HETATM   34  C13 UNL     1      10.006   8.562  26.402  1.00  0.00     0.087 C 
HETATM   35  C14 UNL     1      11.445   8.949  26.228  1.00  0.00     0.051 C 
HETATM   36  C15 UNL     1      12.371   7.763  26.191  1.00  0.00     0.169 C 
HETATM   37  O4  UNL     1      12.208   7.050  27.376  1.00  0.00    -0.391 OA
HETATM   38  C16 UNL     1      10.951   6.417  27.282  1.00  0.00     0.169 C 
HETATM   39  C17 UNL     1       9.831   7.433  27.388  1.00  0.00     0.051 C 
ENDBRANCH  31  34
ENDBRANCH  27  28
ENDBRANCH   5  27
TORSDOF 7
ENDMDL
MODEL 5
REMARK VINA RESULT: -7.416345375      3.078      4.039
REMARK  7 active torsions:
REMARK  status: ('A' for Active; 'I' for Inactive)
REMARK    1  A    between atoms: C2_2  and  N1_4 
REMARK       I    between atoms: N1_4  and  C4_6 
REMARK       I    between atoms: C4_6  and  N2_8 
REMARK    2  A    between atoms: N2_8  and  C5_9 
REMARK    3  A    between atoms: N2_8  and  C22_31 
REMARK    4  A    between atoms: C5_9  and  C6_10 
REMARK       I    between atoms: N3_13  and  C9_14 
REMARK    5  A    between atoms: C9_14  and  O3_16 
REMARK    6  A    between atoms: O3_16  and  C10_17 
REMARK    7  A    between atoms: N4_20  and  C13_21 
ROOT
HETATM    1  C6  UNL     1       3.720   4.889  21.276  1.00  0.00     0.008 C 
HETATM    2  C7  UNL     1       3.043   6.096  20.738  1.00  0.00     0.026 C 
HETATM    3  C8  UNL     1       3.674   7.394  21.123  1.00  0.00     0.128 C 
HETATM    4  N3  UNL     1       5.089   7.383  21.283  1.00  0.00    -0.328 N 
HETATM    5  C9  UNL     1       5.789   8.623  21.341  1.00  0.00     0.363 C 
HETATM    6  O2  UNL     1       5.183   9.715  21.258  1.00  0.00    -0.238 OA
HETATM    7  C20 UNL     1       5.786   6.119  21.387  1.00  0.00     0.128 C 
HETATM    8  C21 UNL     1       4.861   5.211  22.215  1.00  0.00     0.026 C 
ENDROOT
BRANCH   1   9
HETATM    9  C5  UNL     1       2.829   3.847  21.867  1.00  0.00     0.157 C 
BRANCH   9  10
HETATM   10  N2  UNL     1       3.356   2.498  21.794  1.00  0.00    -0.132 N 
HETATM   11  C4  UNL     1       2.572   1.428  22.288  1.00  0.00     0.337 C 
HETATM   12  N1  UNL     1       2.980   0.084  22.235  1.00  0.00    -0.338 N 
HETATM   13  O1  UNL     1       1.447   1.678  22.805  1.00  0.00    -0.246 OA
ATOM     14  H1  UNL     1       3.883  -0.149  21.822  1.00  0.00     0.164 HD
BRANCH  12  15
HETATM   15  C2  UNL     1       2.131  -0.991  22.761  1.00  0.00     0.078 C 
HETATM   16  C1  UNL     1       2.906  -1.796  23.754  1.00  0.00     0.032 C 
HETATM   17  C3  UNL     1       1.700  -1.837  21.562  1.00  0.00     0.032 C 
ENDBRANCH  12  15
BRANCH  10  18
HETATM   18  C22 UNL     1       4.634   2.262  21.227  1.00  0.00     0.688 A 
HETATM   19  N5  UNL     1       4.736   2.056  19.899  1.00  0.00    -0.198 N 
HETATM   20  C23 UNL     1       5.915   1.827  19.307  1.00  0.00     0.149 A 
ATOM     21  H5  UNL     1       3.891   2.075  19.327  1.00  0.00     0.183 HD
HETATM   22  C24 UNL     1       7.088   1.792  20.044  1.00  0.00     0.148 A 
HETATM   23  F1  UNL     1       8.282   1.558  19.436  1.00  0.00    -0.203 F 
HETATM   24  C25 UNL     1       6.989   2.002  21.397  1.00  0.00     0.149 A 
HETATM   25  N6  UNL     1       5.785   2.228  21.946  1.00  0.00    -0.198 N 
ATOM     26  H6  UNL     1       5.732   2.383  22.952  1.00  0.00     0.183 HD
ENDBRANCH  10  18
ENDBRANCH   9  10
ENDBRANCH   1   9
BRANCH   5  27
HETATM   27  O3  UNL     1       7.171   8.687  21.490  1.00  0.00    -0.298 OA
BRANCH  27  28
HETATM   28  C10 UNL     1       7.823   8.698  22.734  1.00  0.00     0.140 C 
HETATM   29  C11 UNL     1       9.279   9.054  22.626  1.00  0.00     0.077 C 
HETATM   30  C12 UNL     1      10.081   8.803  23.835  1.00  0.00     0.061 C 
HETATM   31  N4  UNL     1       9.554   8.068  24.900  1.00  0.00    -0.388 N 
HETATM   32  C18 UNL     1       8.219   7.604  24.855  1.00  0.00     0.125 C 
HETATM   33  C19 UNL     1       7.733   7.392  23.463  1.00  0.00     0.053 C 
BRANCH  31  34
HETATM   34  C13 UNL     1       9.982   8.528  26.200  1.00  0.00     0.087 C 
HETATM   35  C14 UNL     1      11.424   8.933  26.114  1.00  0.00     0.051 C 
HETATM   36  C15 UNL     1      12.369   7.774  26.287  1.00  0.00     0.169 C 
HETATM   37  O4  UNL     1      12.110   7.186  27.523  1.00  0.00    -0.391 OA
HETATM   38  C16 UNL     1      10.879   6.514  27.386  1.00  0.00     0.169 C 
HETATM   39  C17 UNL     1       9.737   7.505  27.281  1.00  0.00     0.051 C 
ENDBRANCH  31  34
ENDBRANCH  27  28
ENDBRANCH   5  27
TORSDOF 7
ENDMDL
