MODEL 1
REMARK VINA RESULT: -7.203126480      0.000      0.000
REMARK  9 active torsions:
REMARK  status: ('A' for Active; 'I' for Inactive)
REMARK    1  A    between atoms: O1_2  and  C2_3 
REMARK    2  A    between atoms: C4_5  and  O2_6 
REMARK    3  A    between atoms: C7_9  and  N1_10 
REMARK       I    between atoms: N1_10  and  C8_11 
REMARK    4  A    between atoms: N1_10  and  C16_23 
REMARK    5  A    between atoms: C8_11  and  C9_13 
REMARK    6  A    between atoms: C9_13  and  N2_14 
REMARK    7  A    between atoms: C12_17  and  O4_18 
REMARK       I    between atoms: N3_26  and  C19_27 
REMARK    8  A    between atoms: C19_27  and  O6_29 
REMARK    9  A    between atoms: O6_29  and  C20_30 
ROOT
HETATM    1  N1  UNL     1       5.933   6.462  21.124  1.00  0.00    -0.308 N 
HETATM    2  C8  UNL     1       4.642   7.059  21.148  1.00  0.00     0.263 C 
HETATM    3  O3  UNL     1       3.687   6.346  20.706  1.00  0.00    -0.267 OA
ENDROOT
BRANCH   1   4
HETATM    4  C7  UNL     1       7.011   7.248  21.621  1.00  0.00     0.043 A 
HETATM    5  C6  UNL     1       7.540   8.223  20.829  1.00  0.00     0.066 A 
HETATM    6  C4  UNL     1       8.603   9.007  21.297  1.00  0.00     0.073 A 
HETATM    7  C3  UNL     1       9.139   8.819  22.556  1.00  0.00     0.073 A 
HETATM    8  C2  UNL     1       8.597   7.830  23.349  1.00  0.00     0.073 A 
HETATM    9  C26 UNL     1       7.552   7.069  22.871  1.00  0.00     0.066 A 
BRANCH   6  10
HETATM   10  O2  UNL     1       9.130   9.986  20.499  1.00  0.00    -0.356 OA
HETATM   11  C5  UNL     1       8.354  11.086  20.089  1.00  0.00     0.210 C 
ENDBRANCH   6  10
BRANCH   8  12
HETATM   12  O1  UNL     1       9.085   7.585  24.625  1.00  0.00    -0.356 OA
HETATM   13  C1  UNL     1      10.065   8.353  25.254  1.00  0.00     0.210 C 
ENDBRANCH   8  12
ENDBRANCH   1   4
BRANCH   1  14
HETATM   14  C16 UNL     1       6.152   5.121  20.619  1.00  0.00     0.096 C 
HETATM   15  C17 UNL     1       7.616   4.855  20.500  1.00  0.00     0.045 C 
HETATM   16  C18 UNL     1       7.949   3.394  20.834  1.00  0.00     0.130 C 
HETATM   17  N3  UNL     1       6.911   2.585  20.229  1.00  0.00    -0.328 N 
HETATM   18  C19 UNL     1       7.229   1.646  19.188  1.00  0.00     0.363 C 
HETATM   19  C24 UNL     1       5.559   2.757  20.710  1.00  0.00     0.130 C 
HETATM   20  O5  UNL     1       8.401   1.496  18.776  1.00  0.00    -0.238 OA
HETATM   21  C25 UNL     1       5.549   4.055  21.525  1.00  0.00     0.045 C 
BRANCH  18  22
HETATM   22  O6  UNL     1       6.261   0.862  18.585  1.00  0.00    -0.294 OA
BRANCH  22  23
HETATM   23  C20 UNL     1       5.678   1.254  17.366  1.00  0.00     0.061 C 
HETATM   24  C21 UNL     1       6.071   0.309  16.269  1.00  0.00     0.046 C 
HETATM   25  C22 UNL     1       6.052   2.650  16.951  1.00  0.00     0.046 C 
HETATM   26  C23 UNL     1       4.175   1.219  17.555  1.00  0.00     0.046 C 
ENDBRANCH  22  23
ENDBRANCH  18  22
ENDBRANCH   1  14
BRANCH   2  27
HETATM   27  C9  UNL     1       4.425   8.434  21.659  1.00  0.00     0.161 C 
BRANCH  27  28
HETATM   28  N2  UNL     1       3.716   8.501  22.872  1.00  0.00    -0.381 N 
HETATM   29  C10 UNL     1       4.005   7.478  23.829  1.00  0.00     0.125 C 
HETATM   30  C11 UNL     1       3.718   8.072  25.211  1.00  0.00     0.051 C 
HETATM   31  C12 UNL     1       2.223   8.331  25.297  1.00  0.00     0.121 C 
HETATM   32  C13 UNL     1       1.578   8.309  23.936  1.00  0.00     0.056 C 
HETATM   33  C14 UNL     1       2.446   9.077  22.926  1.00  0.00     0.082 C 
HETATM   34  C15 UNL     1       1.689   9.233  21.648  1.00  0.00     0.032 C 
BRANCH  31  35
HETATM   35  O4  UNL     1       1.939   9.487  26.012  1.00  0.00    -0.395 OA
ATOM     36  H4  UNL     1       1.338  10.054  25.543  1.00  0.00     0.210 HD
ENDBRANCH  31  35
ENDBRANCH  27  28
ENDBRANCH   2  27
TORSDOF 9
ENDMDL
MODEL 2
REMARK VINA RESULT: -7.168103029      0.058      2.004
REMARK  9 active torsions:
REMARK  status: ('A' for Active; 'I' for Inactive)
REMARK    1  A    between atoms: O1_2  and  C2_3 
REMARK    2  A    between atoms: C4_5  and  O2_6 
REMARK    3  A    between atoms: C7_9  and  N1_10 
REMARK       I    between atoms: N1_10  and  C8_11 
REMARK    4  A    between atoms: N1_10  and  C16_23 
REMARK    5  A    between atoms: C8_11  and  C9_13 
REMARK    6  A    between atoms: C9_13  and  N2_14 
REMARK    7  A    between atoms: C12_17  and  O4_18 
REMARK       I    between atoms: N3_26  and  C19_27 
REMARK    8  A    between atoms: C19_27  and  O6_29 
REMARK    9  A    between atoms: O6_29  and  C20_30 
ROOT
HETATM    1  N1  UNL     1       5.907   6.472  21.111  1.00  0.00    -0.308 N 
HETATM    2  C8  UNL     1       4.609   7.050  21.158  1.00  0.00     0.263 C 
HETATM    3  O3  UNL     1       3.655   6.320  20.741  1.00  0.00    -0.267 OA
ENDROOT
BRANCH   1   4
HETATM    4  C7  UNL     1       6.984   7.278  21.580  1.00  0.00     0.043 A 
HETATM    5  C6  UNL     1       7.495   7.042  22.822  1.00  0.00     0.066 A 
HETATM    6  C4  UNL     1       8.553   7.824  23.304  1.00  0.00     0.073 A 
HETATM    7  C3  UNL     1       9.102   8.842  22.548  1.00  0.00     0.073 A 
HETATM    8  C2  UNL     1       8.577   9.072  21.295  1.00  0.00     0.073 A 
HETATM    9  C26 UNL     1       7.537   8.293  20.838  1.00  0.00     0.066 A 
BRANCH   6  10
HETATM   10  O2  UNL     1       9.064   7.583  24.551  1.00  0.00    -0.356 OA
HETATM   11  C5  UNL     1      10.073   8.400  25.092  1.00  0.00     0.210 C 
ENDBRANCH   6  10
BRANCH   8  12
HETATM   12  O1  UNL     1       9.079  10.078  20.481  1.00  0.00    -0.356 OA
HETATM   13  C1  UNL     1       8.368  11.220  20.111  1.00  0.00     0.210 C 
ENDBRANCH   8  12
ENDBRANCH   1   4
BRANCH   1  14
HETATM   14  C16 UNL     1       6.136   5.131  20.612  1.00  0.00     0.096 C 
HETATM   15  C17 UNL     1       7.602   4.878  20.485  1.00  0.00     0.045 C 
HETATM   16  C18 UNL     1       7.950   3.422  20.824  1.00  0.00     0.130 C 
HETATM   17  N3  UNL     1       6.916   2.601  20.229  1.00  0.00    -0.328 N 
HETATM   18  C19 UNL     1       7.236   1.659  19.191  1.00  0.00     0.363 C 
HETATM   19  C24 UNL     1       5.565   2.762  20.717  1.00  0.00     0.130 C 
HETATM   20  O5  UNL     1       8.408   1.518  18.773  1.00  0.00    -0.238 OA
HETATM   21  C25 UNL     1       5.548   4.064  21.526  1.00  0.00     0.045 C 
BRANCH  18  22
HETATM   22  O6  UNL     1       6.272   0.864  18.597  1.00  0.00    -0.294 OA
BRANCH  22  23
HETATM   23  C20 UNL     1       5.680   1.243  17.378  1.00  0.00     0.061 C 
HETATM   24  C21 UNL     1       6.085   0.300  16.283  1.00  0.00     0.046 C 
HETATM   25  C22 UNL     1       6.033   2.643  16.958  1.00  0.00     0.046 C 
HETATM   26  C23 UNL     1       4.179   1.186  17.571  1.00  0.00     0.046 C 
ENDBRANCH  22  23
ENDBRANCH  18  22
ENDBRANCH   1  14
BRANCH   2  27
HETATM   27  C9  UNL     1       4.382   8.425  21.664  1.00  0.00     0.161 C 
BRANCH  27  28
HETATM   28  N2  UNL     1       3.681   8.492  22.882  1.00  0.00    -0.381 N 
HETATM   29  C10 UNL     1       3.991   7.479  23.844  1.00  0.00     0.125 C 
HETATM   30  C11 UNL     1       3.708   8.079  25.224  1.00  0.00     0.051 C 
HETATM   31  C12 UNL     1       2.210   8.320  25.320  1.00  0.00     0.121 C 
HETATM   32  C13 UNL     1       1.555   8.280  23.964  1.00  0.00     0.056 C 
HETATM   33  C14 UNL     1       2.404   9.052  22.942  1.00  0.00     0.082 C 
HETATM   34  C15 UNL     1       1.636   9.189  21.669  1.00  0.00     0.032 C 
BRANCH  31  35
HETATM   35  O4  UNL     1       1.917   9.477  26.029  1.00  0.00    -0.395 OA
ATOM     36  H4  UNL     1       1.156   9.923  25.678  1.00  0.00     0.210 HD
ENDBRANCH  31  35
ENDBRANCH  27  28
ENDBRANCH   2  27
TORSDOF 9
ENDMDL
MODEL 3
REMARK VINA RESULT: -7.128277382      0.590      1.200
REMARK  9 active torsions:
REMARK  status: ('A' for Active; 'I' for Inactive)
REMARK    1  A    between atoms: O1_2  and  C2_3 
REMARK    2  A    between atoms: C4_5  and  O2_6 
REMARK    3  A    between atoms: C7_9  and  N1_10 
REMARK       I    between atoms: N1_10  and  C8_11 
REMARK    4  A    between atoms: N1_10  and  C16_23 
REMARK    5  A    between atoms: C8_11  and  C9_13 
REMARK    6  A    between atoms: C9_13  and  N2_14 
REMARK    7  A    between atoms: C12_17  and  O4_18 
REMARK       I    between atoms: N3_26  and  C19_27 
REMARK    8  A    between atoms: C19_27  and  O6_29 
REMARK    9  A    between atoms: O6_29  and  C20_30 
ROOT
HETATM    1  N1  UNL     1       5.871   6.393  21.201  1.00  0.00    -0.308 N 
HETATM    2  C8  UNL     1       4.574   6.969  21.287  1.00  0.00     0.263 C 
HETATM    3  O3  UNL     1       3.614   6.251  20.864  1.00  0.00    -0.267 OA
ENDROOT
BRANCH   1   4
HETATM    4  C7  UNL     1       6.956   7.185  21.676  1.00  0.00     0.043 A 
HETATM    5  C6  UNL     1       7.476   8.149  20.865  1.00  0.00     0.066 A 
HETATM    6  C4  UNL     1       8.545   8.938  21.311  1.00  0.00     0.073 A 
HETATM    7  C3  UNL     1       9.095   8.766  22.566  1.00  0.00     0.073 A 
HETATM    8  C2  UNL     1       8.561   7.788  23.378  1.00  0.00     0.073 A 
HETATM    9  C26 UNL     1       7.511   7.023  22.921  1.00  0.00     0.066 A 
BRANCH   6  10
HETATM   10  O2  UNL     1       9.064   9.906  20.493  1.00  0.00    -0.356 OA
HETATM   11  C5  UNL     1       8.313  11.045  20.148  1.00  0.00     0.210 C 
ENDBRANCH   6  10
BRANCH   8  12
HETATM   12  O1  UNL     1       9.064   7.560  24.651  1.00  0.00    -0.356 OA
HETATM   13  C1  UNL     1      10.038   8.347  25.266  1.00  0.00     0.210 C 
ENDBRANCH   8  12
ENDBRANCH   1   4
BRANCH   1  14
HETATM   14  C16 UNL     1       6.091   5.067  20.659  1.00  0.00     0.096 C 
HETATM   15  C17 UNL     1       7.555   4.820  20.498  1.00  0.00     0.045 C 
HETATM   16  C18 UNL     1       7.910   3.355  20.788  1.00  0.00     0.130 C 
HETATM   17  N3  UNL     1       6.866   2.550  20.188  1.00  0.00    -0.328 N 
HETATM   18  C19 UNL     1       7.167   1.640  19.117  1.00  0.00     0.363 C 
HETATM   19  C24 UNL     1       5.524   2.696  20.705  1.00  0.00     0.130 C 
HETATM   20  O5  UNL     1       8.331   1.511  18.674  1.00  0.00    -0.238 OA
HETATM   21  C25 UNL     1       5.521   3.974  21.552  1.00  0.00     0.045 C 
BRANCH  18  22
HETATM   22  O6  UNL     1       6.193   0.861  18.518  1.00  0.00    -0.294 OA
BRANCH  22  23
HETATM   23  C20 UNL     1       5.614   1.251  17.296  1.00  0.00     0.061 C 
HETATM   24  C21 UNL     1       6.032   0.320  16.196  1.00  0.00     0.046 C 
HETATM   25  C22 UNL     1       5.969   2.656  16.894  1.00  0.00     0.046 C 
HETATM   26  C23 UNL     1       4.110   1.190  17.472  1.00  0.00     0.046 C 
ENDBRANCH  22  23
ENDBRANCH  18  22
ENDBRANCH   1  14
BRANCH   2  27
HETATM   27  C9  UNL     1       4.356   8.329  21.837  1.00  0.00     0.161 C 
BRANCH  27  28
HETATM   28  N2  UNL     1       3.363   8.405  22.829  1.00  0.00    -0.381 N 
HETATM   29  C10 UNL     1       2.105   8.954  22.422  1.00  0.00     0.125 C 
HETATM   30  C11 UNL     1       1.039   8.342  23.335  1.00  0.00     0.051 C 
HETATM   31  C12 UNL     1       1.295   8.854  24.744  1.00  0.00     0.121 C 
HETATM   32  C13 UNL     1       2.676   9.442  24.877  1.00  0.00     0.056 C 
HETATM   33  C14 UNL     1       3.705   8.542  24.175  1.00  0.00     0.082 C 
HETATM   34  C15 UNL     1       5.081   9.020  24.505  1.00  0.00     0.032 C 
BRANCH  31  35
HETATM   35  O4  UNL     1       1.024   7.886  25.702  1.00  0.00    -0.395 OA
ATOM     36  H4  UNL     1       0.324   8.154  26.286  1.00  0.00     0.210 HD
ENDBRANCH  31  35
ENDBRANCH  27  28
ENDBRANCH   2  27
TORSDOF 9
ENDMDL
MODEL 4
REMARK VINA RESULT: -7.123576566      0.583      2.334
REMARK  9 active torsions:
REMARK  status: ('A' for Active; 'I' for Inactive)
REMARK    1  A    between atoms: O1_2  and  C2_3 
REMARK    2  A    between atoms: C4_5  and  O2_6 
REMARK    3  A    between atoms: C7_9  and  N1_10 
REMARK       I    between atoms: N1_10  and  C8_11 
REMARK    4  A    between atoms: N1_10  and  C16_23 
REMARK    5  A    between atoms: C8_11  and  C9_13 
REMARK    6  A    between atoms: C9_13  and  N2_14 
REMARK    7  A    between atoms: C12_17  and  O4_18 
REMARK       I    between atoms: N3_26  and  C19_27 
REMARK    8  A    between atoms: C19_27  and  O6_29 
REMARK    9  A    between atoms: O6_29  and  C20_30 
ROOT
HETATM    1  N1  UNL     1       5.849   6.366  21.222  1.00  0.00    -0.308 N 
HETATM    2  C8  UNL     1       4.540   6.910  21.340  1.00  0.00     0.263 C 
HETATM    3  O3  UNL     1       3.588   6.170  20.936  1.00  0.00    -0.267 OA
ENDROOT
BRANCH   1   4
HETATM    4  C7  UNL     1       6.925   7.182  21.675  1.00  0.00     0.043 A 
HETATM    5  C6  UNL     1       7.438   6.969  22.919  1.00  0.00     0.066 A 
HETATM    6  C4  UNL     1       8.495   7.762  23.386  1.00  0.00     0.073 A 
HETATM    7  C3  UNL     1       9.040   8.768  22.611  1.00  0.00     0.073 A 
HETATM    8  C2  UNL     1       8.512   8.975  21.355  1.00  0.00     0.073 A 
HETATM    9  C26 UNL     1       7.473   8.185  20.914  1.00  0.00     0.066 A 
BRANCH   6  10
HETATM   10  O2  UNL     1       9.009   7.544  24.636  1.00  0.00    -0.356 OA
HETATM   11  C5  UNL     1      10.002   8.386  25.170  1.00  0.00     0.210 C 
ENDBRANCH   6  10
BRANCH   8  12
HETATM   12  O1  UNL     1       9.010   9.968  20.523  1.00  0.00    -0.356 OA
HETATM   13  C1  UNL     1       8.280  11.077  20.096  1.00  0.00     0.210 C 
ENDBRANCH   8  12
ENDBRANCH   1   4
BRANCH   1  14
HETATM   14  C16 UNL     1       6.088   5.048  20.669  1.00  0.00     0.096 C 
HETATM   15  C17 UNL     1       7.555   4.827  20.497  1.00  0.00     0.045 C 
HETATM   16  C18 UNL     1       7.938   3.367  20.775  1.00  0.00     0.130 C 
HETATM   17  N3  UNL     1       6.904   2.547  20.177  1.00  0.00    -0.328 N 
HETATM   18  C19 UNL     1       7.214   1.649  19.098  1.00  0.00     0.363 C 
HETATM   19  C24 UNL     1       5.563   2.666  20.704  1.00  0.00     0.130 C 
HETATM   20  O5  UNL     1       8.377   1.545  18.646  1.00  0.00    -0.238 OA
HETATM   21  C25 UNL     1       5.544   3.938  21.559  1.00  0.00     0.045 C 
BRANCH  18  22
HETATM   22  O6  UNL     1       6.249   0.858  18.500  1.00  0.00    -0.294 OA
BRANCH  22  23
HETATM   23  C20 UNL     1       5.643   1.253  17.294  1.00  0.00     0.061 C 
HETATM   24  C21 UNL     1       6.024   0.318  16.184  1.00  0.00     0.046 C 
HETATM   25  C22 UNL     1       6.001   2.655  16.882  1.00  0.00     0.046 C 
HETATM   26  C23 UNL     1       4.144   1.206  17.508  1.00  0.00     0.046 C 
ENDBRANCH  22  23
ENDBRANCH  18  22
ENDBRANCH   1  14
BRANCH   2  27
HETATM   27  C9  UNL     1       4.302   8.262  21.900  1.00  0.00     0.161 C 
BRANCH  27  28
HETATM   28  N2  UNL     1       3.356   8.305  22.939  1.00  0.00    -0.381 N 
HETATM   29  C10 UNL     1       2.059   8.799  22.591  1.00  0.00     0.125 C 
HETATM   30  C11 UNL     1       1.064   8.151  23.559  1.00  0.00     0.051 C 
HETATM   31  C12 UNL     1       1.368   8.683  24.951  1.00  0.00     0.121 C 
HETATM   32  C13 UNL     1       2.728   9.328  25.013  1.00  0.00     0.056 C 
HETATM   33  C14 UNL     1       3.758   8.465  24.266  1.00  0.00     0.082 C 
HETATM   34  C15 UNL     1       5.127   9.001  24.526  1.00  0.00     0.032 C 
BRANCH  31  35
HETATM   35  O4  UNL     1       1.184   7.712  25.926  1.00  0.00    -0.395 OA
ATOM     36  H4  UNL     1       0.562   7.991  26.589  1.00  0.00     0.210 HD
ENDBRANCH  31  35
ENDBRANCH  27  28
ENDBRANCH   2  27
TORSDOF 9
ENDMDL
MODEL 5
REMARK VINA RESULT: -6.896973046      1.559      7.326
REMARK  9 active torsions:
REMARK  status: ('A' for Active; 'I' for Inactive)
REMARK    1  A    between atoms: O1_2  and  C2_3 
REMARK    2  A    between atoms: C4_5  and  O2_6 
REMARK    3  A    between atoms: C7_9  and  N1_10 
REMARK       I    between atoms: N1_10  and  C8_11 
REMARK    4  A    between atoms: N1_10  and  C16_23 
REMARK    5  A    between atoms: C8_11  and  C9_13 
REMARK    6  A    between atoms: C9_13  and  N2_14 
REMARK    7  A    between atoms: C12_17  and  O4_18 
REMARK       I    between atoms: N3_26  and  C19_27 
REMARK    8  A    between atoms: C19_27  and  O6_29 
REMARK    9  A    between atoms: O6_29  and  C20_30 
ROOT
HETATM    1  N1  UNL     1       5.865   6.851  21.915  1.00  0.00    -0.308 N 
HETATM    2  C8  UNL     1       5.893   5.483  21.526  1.00  0.00     0.263 C 
HETATM    3  O3  UNL     1       4.862   4.798  21.816  1.00  0.00    -0.267 OA
ENDROOT
BRANCH   1   4
HETATM    4  C7  UNL     1       7.013   7.632  21.591  1.00  0.00     0.043 A 
HETATM    5  C6  UNL     1       7.151   8.109  20.322  1.00  0.00     0.066 A 
HETATM    6  C4  UNL     1       8.272   8.878  19.981  1.00  0.00     0.073 A 
HETATM    7  C3  UNL     1       9.256   9.169  20.906  1.00  0.00     0.073 A 
HETATM    8  C2  UNL     1       9.106   8.681  22.186  1.00  0.00     0.073 A 
HETATM    9  C26 UNL     1       7.997   7.927  22.502  1.00  0.00     0.066 A 
BRANCH   6  10
HETATM   10  O2  UNL     1       8.407   9.356  18.706  1.00  0.00    -0.356 OA
HETATM   11  C5  UNL     1       7.441  10.212  18.145  1.00  0.00     0.210 C 
ENDBRANCH   6  10
BRANCH   8  12
HETATM   12  O1  UNL     1      10.055   8.935  23.167  1.00  0.00    -0.356 OA
HETATM   13  C1  UNL     1       9.868   8.687  24.526  1.00  0.00     0.210 C 
ENDBRANCH   8  12
ENDBRANCH   1   4
BRANCH   1  14
HETATM   14  C16 UNL     1       4.733   7.433  22.607  1.00  0.00     0.096 C 
HETATM   15  C17 UNL     1       5.160   7.943  23.943  1.00  0.00     0.045 C 
HETATM   16  C18 UNL     1       4.405   9.225  24.321  1.00  0.00     0.130 C 
HETATM   17  N3  UNL     1       3.029   9.028  23.914  1.00  0.00    -0.328 N 
HETATM   18  C19 UNL     1       1.973   9.000  24.890  1.00  0.00     0.363 C 
HETATM   19  C24 UNL     1       2.762   8.866  22.503  1.00  0.00     0.130 C 
HETATM   20  O5  UNL     1       2.206   9.145  26.111  1.00  0.00    -0.238 OA
HETATM   21  C25 UNL     1       4.114   8.590  21.834  1.00  0.00     0.045 C 
BRANCH  18  22
HETATM   22  O6  UNL     1       0.649   8.809  24.535  1.00  0.00    -0.294 OA
BRANCH  22  23
HETATM   23  C20 UNL     1       0.009   7.581  24.786  1.00  0.00     0.061 C 
HETATM   24  C21 UNL     1      -0.869   7.686  25.999  1.00  0.00     0.046 C 
HETATM   25  C22 UNL     1       0.971   6.442  24.989  1.00  0.00     0.046 C 
HETATM   26  C23 UNL     1      -0.835   7.258  23.571  1.00  0.00     0.046 C 
ENDBRANCH  22  23
ENDBRANCH  18  22
ENDBRANCH   1  14
BRANCH   2  27
HETATM   27  C9  UNL     1       7.058   4.893  20.825  1.00  0.00     0.161 C 
BRANCH  27  28
HETATM   28  N2  UNL     1       6.726   4.062  19.739  1.00  0.00    -0.381 N 
HETATM   29  C10 UNL     1       5.643   4.503  18.915  1.00  0.00     0.125 C 
HETATM   30  C11 UNL     1       5.883   3.920  17.519  1.00  0.00     0.051 C 
HETATM   31  C12 UNL     1       5.754   2.409  17.626  1.00  0.00     0.121 C 
HETATM   32  C13 UNL     1       5.831   1.946  19.057  1.00  0.00     0.056 C 
HETATM   33  C14 UNL     1       6.959   2.687  19.794  1.00  0.00     0.082 C 
HETATM   34  C15 UNL     1       7.162   2.061  21.135  1.00  0.00     0.032 C 
BRANCH  31  35
HETATM   35  O4  UNL     1       6.654   1.754  16.796  1.00  0.00    -0.395 OA
ATOM     36  H4  UNL     1       6.212   1.218  16.148  1.00  0.00     0.210 HD
ENDBRANCH  31  35
ENDBRANCH  27  28
ENDBRANCH   2  27
TORSDOF 9
ENDMDL
