MODEL 1
REMARK VINA RESULT: -6.741663663      0.000      0.000
REMARK  7 active torsions:
REMARK  status: ('A' for Active; 'I' for Inactive)
REMARK    1  A    between atoms: C2_2  and  C3_3 
REMARK    2  A    between atoms: C3_3  and  C4_4 
REMARK    3  A    between atoms: C4_4  and  C5_5 
REMARK    4  A    between atoms: C5_5  and  C6_6 
REMARK    5  A    between atoms: C6_6  and  N1_7 
REMARK    6  A    between atoms: N2_13  and  C10_14 
REMARK    7  A    between atoms: C18_25  and  C19_26 
ROOT
HETATM    1  N1  UNL     1       5.094  34.453  79.011  1.00  0.00    -0.385 N 
HETATM    2  C7  UNL     1       5.018  33.973  77.690  1.00  0.00     0.143 C 
HETATM    3  C8  UNL     1       6.312  33.509  77.035  1.00  0.00     0.316 C 
HETATM    4  F1  UNL     1       6.085  32.146  76.776  1.00  0.00    -0.193 F 
HETATM    5  F2  UNL     1       6.368  34.117  75.821  1.00  0.00    -0.193 F 
HETATM    6  C9  UNL     1       7.437  33.691  77.955  1.00  0.00     0.105 C 
HETATM    7  N2  UNL     1       8.741  33.219  77.748  1.00  0.00    -0.293 N 
HETATM    8  C17 UNL     1       9.459  33.985  78.764  1.00  0.00     0.324 C 
HETATM    9  O1  UNL     1      10.644  33.772  79.197  1.00  0.00    -0.247 OA
HETATM   10  N3  UNL     1       8.700  35.042  79.263  1.00  0.00    -0.322 N 
ATOM     11  H3  UNL     1       8.982  35.699  79.991  1.00  0.00     0.165 HD
HETATM   12  C18 UNL     1       7.423  35.033  78.552  1.00  0.00     0.126 C 
HETATM   13  C25 UNL     1       6.281  34.938  79.570  1.00  0.00     0.165 C 
ENDROOT
BRANCH  12  14
HETATM   14  C19 UNL     1       7.213  36.261  77.798  1.00  0.00     0.021 A 
HETATM   15  C20 UNL     1       6.159  37.103  78.091  1.00  0.00     0.055 A 
HETATM   16  C21 UNL     1       5.898  38.295  77.413  1.00  0.00     0.118 A 
HETATM   17  F3  UNL     1       4.857  39.104  77.717  1.00  0.00    -0.206 F 
HETATM   18  C22 UNL     1       6.736  38.667  76.388  1.00  0.00     0.069 A 
HETATM   19  C23 UNL     1       7.782  37.841  76.090  1.00  0.00     0.076 A 
HETATM   20 CL1  UNL     1       8.891  38.273  74.786  1.00  0.00    -0.081 Cl
HETATM   21  C24 UNL     1       8.032  36.672  76.759  1.00  0.00     0.147 A 
HETATM   22  F4  UNL     1       9.103  35.907  76.431  1.00  0.00    -0.204 F 
ENDBRANCH  12  14
BRANCH   7  23
HETATM   23  C10 UNL     1       9.469  32.310  76.936  1.00  0.00     0.094 C 
HETATM   24  C11 UNL     1       9.199  30.843  77.247  1.00  0.00     0.026 C 
HETATM   25  C12 UNL     1      10.456  30.048  76.835  1.00  0.00     0.006 C 
HETATM   26  C13 UNL     1      11.161  30.670  75.669  1.00  0.00    -0.019 C 
HETATM   27  C14 UNL     1      11.691  29.503  74.815  1.00  0.00     0.010 C 
HETATM   28  C15 UNL     1      10.312  31.487  74.766  1.00  0.00     0.006 C 
HETATM   29  C16 UNL     1       9.350  32.433  75.451  1.00  0.00     0.026 C 
ENDBRANCH   7  23
BRANCH   1  30
HETATM   30  C6  UNL     1       4.367  33.578  79.955  1.00  0.00     0.122 C 
BRANCH  30  31
HETATM   31  C5  UNL     1       3.496  34.364  80.858  1.00  0.00     0.020 C 
BRANCH  31  32
HETATM   32  C4  UNL     1       2.385  35.057  80.086  1.00  0.00     0.002 C 
BRANCH  32  33
HETATM   33  C3  UNL     1       2.150  36.399  80.703  1.00  0.00    -0.000 C 
BRANCH  33  34
HETATM   34  C2  UNL     1       3.149  37.393  80.103  1.00  0.00    -0.005 C 
HETATM   35  C1  UNL     1       2.450  38.744  80.106  1.00  0.00     0.005 C 
ENDBRANCH  33  34
ENDBRANCH  32  33
ENDBRANCH  31  32
ENDBRANCH  30  31
ENDBRANCH   1  30
TORSDOF 7
ENDMDL
MODEL 2
REMARK VINA RESULT: -6.683944619      3.199      5.133
REMARK  7 active torsions:
REMARK  status: ('A' for Active; 'I' for Inactive)
REMARK    1  A    between atoms: C2_2  and  C3_3 
REMARK    2  A    between atoms: C3_3  and  C4_4 
REMARK    3  A    between atoms: C4_4  and  C5_5 
REMARK    4  A    between atoms: C5_5  and  C6_6 
REMARK    5  A    between atoms: C6_6  and  N1_7 
REMARK    6  A    between atoms: N2_13  and  C10_14 
REMARK    7  A    between atoms: C18_25  and  C19_26 
ROOT
HETATM    1  N1  UNL     1       7.286  36.821  79.228  1.00  0.00    -0.385 N 
HETATM    2  C7  UNL     1       8.674  36.733  79.011  1.00  0.00     0.143 C 
HETATM    3  C8  UNL     1       9.236  35.378  78.604  1.00  0.00     0.316 C 
HETATM    4  F1  UNL     1       9.782  35.613  77.330  1.00  0.00    -0.193 F 
HETATM    5  F2  UNL     1      10.292  35.137  79.426  1.00  0.00    -0.193 F 
HETATM    6  C9  UNL     1       8.164  34.384  78.542  1.00  0.00     0.105 C 
HETATM    7  N2  UNL     1       8.291  33.080  78.041  1.00  0.00    -0.293 N 
HETATM    8  C17 UNL     1       7.062  32.481  78.559  1.00  0.00     0.324 C 
HETATM    9  O1  UNL     1       6.532  31.374  78.199  1.00  0.00    -0.247 OA
HETATM   10  N3  UNL     1       6.467  33.266  79.545  1.00  0.00    -0.322 N 
ATOM     11  H3  UNL     1       5.596  33.063  80.036  1.00  0.00     0.165 HD
HETATM   12  C18 UNL     1       7.324  34.434  79.746  1.00  0.00     0.126 C 
HETATM   13  C25 UNL     1       6.497  35.706  79.529  1.00  0.00     0.165 C 
ENDROOT
BRANCH  12  14
HETATM   14  C19 UNL     1       7.844  34.498  81.104  1.00  0.00     0.021 A 
HETATM   15  C20 UNL     1       7.369  35.430  82.004  1.00  0.00     0.055 A 
HETATM   16  C21 UNL     1       7.818  35.548  83.320  1.00  0.00     0.118 A 
HETATM   17  F3  UNL     1       7.338  36.472  84.185  1.00  0.00    -0.206 F 
HETATM   18  C22 UNL     1       8.796  34.688  83.762  1.00  0.00     0.069 A 
HETATM   19  C23 UNL     1       9.273  33.761  82.879  1.00  0.00     0.076 A 
HETATM   20 CL1  UNL     1      10.526  32.628  83.397  1.00  0.00    -0.081 Cl
HETATM   21  C24 UNL     1       8.828  33.651  81.589  1.00  0.00     0.147 A 
HETATM   22  F4  UNL     1       9.325  32.692  80.768  1.00  0.00    -0.204 F 
ENDBRANCH  12  14
BRANCH   7  23
HETATM   23  C10 UNL     1       9.165  32.279  77.261  1.00  0.00     0.094 C 
HETATM   24  C11 UNL     1       9.212  32.662  75.787  1.00  0.00     0.026 C 
HETATM   25  C12 UNL     1       9.600  31.396  74.995  1.00  0.00     0.006 C 
HETATM   26  C13 UNL     1      10.497  30.490  75.782  1.00  0.00    -0.019 C 
HETATM   27  C14 UNL     1      11.495  29.890  74.773  1.00  0.00     0.010 C 
HETATM   28  C15 UNL     1      11.318  31.150  76.828  1.00  0.00     0.006 C 
HETATM   29  C16 UNL     1      10.592  32.162  77.689  1.00  0.00     0.026 C 
ENDBRANCH   7  23
BRANCH   1  30
HETATM   30  C6  UNL     1       6.631  37.699  78.236  1.00  0.00     0.122 C 
BRANCH  30  31
HETATM   31  C5  UNL     1       5.918  36.910  77.205  1.00  0.00     0.020 C 
BRANCH  31  32
HETATM   32  C4  UNL     1       6.744  36.789  75.935  1.00  0.00     0.002 C 
BRANCH  32  33
HETATM   33  C3  UNL     1       7.269  38.145  75.585  1.00  0.00    -0.000 C 
BRANCH  33  34
HETATM   34  C2  UNL     1       8.787  38.049  75.409  1.00  0.00    -0.005 C 
HETATM   35  C1  UNL     1       9.130  38.944  74.227  1.00  0.00     0.005 C 
ENDBRANCH  33  34
ENDBRANCH  32  33
ENDBRANCH  31  32
ENDBRANCH  30  31
ENDBRANCH   1  30
TORSDOF 7
ENDMDL
MODEL 3
REMARK VINA RESULT: -6.549617298      3.597      8.755
REMARK  7 active torsions:
REMARK  status: ('A' for Active; 'I' for Inactive)
REMARK    1  A    between atoms: C2_2  and  C3_3 
REMARK    2  A    between atoms: C3_3  and  C4_4 
REMARK    3  A    between atoms: C4_4  and  C5_5 
REMARK    4  A    between atoms: C5_5  and  C6_6 
REMARK    5  A    between atoms: C6_6  and  N1_7 
REMARK    6  A    between atoms: N2_13  and  C10_14 
REMARK    7  A    between atoms: C18_25  and  C19_26 
ROOT
HETATM    1  N1  UNL     1      11.115  30.226  76.303  1.00  0.00    -0.385 N 
HETATM    2  C7  UNL     1      10.572  30.852  75.166  1.00  0.00     0.143 C 
HETATM    3  C8  UNL     1       9.596  31.999  75.395  1.00  0.00     0.316 C 
HETATM    4  F1  UNL     1      10.235  33.103  74.806  1.00  0.00    -0.193 F 
HETATM    5  F2  UNL     1       8.509  31.738  74.621  1.00  0.00    -0.193 F 
HETATM    6  C9  UNL     1       9.392  32.210  76.829  1.00  0.00     0.105 C 
HETATM    7  N2  UNL     1       8.693  33.282  77.401  1.00  0.00    -0.293 N 
HETATM    8  C17 UNL     1       8.514  32.779  78.762  1.00  0.00     0.324 C 
HETATM    9  O1  UNL     1       8.161  33.450  79.793  1.00  0.00    -0.247 OA
HETATM   10  N3  UNL     1       8.778  31.414  78.859  1.00  0.00    -0.322 N 
ATOM     11  H3  UNL     1       8.739  30.850  79.708  1.00  0.00     0.165 HD
HETATM   12  C18 UNL     1       9.120  30.941  77.519  1.00  0.00     0.126 C 
HETATM   13  C25 UNL     1      10.501  30.277  77.559  1.00  0.00     0.165 C 
ENDROOT
BRANCH  12  14
HETATM   14  C19 UNL     1       8.183  29.936  77.042  1.00  0.00     0.021 A 
HETATM   15  C20 UNL     1       8.581  28.628  76.850  1.00  0.00     0.055 A 
HETATM   16  C21 UNL     1       7.738  27.611  76.397  1.00  0.00     0.118 A 
HETATM   17  F3  UNL     1       8.152  26.336  76.215  1.00  0.00    -0.206 F 
HETATM   18  C22 UNL     1       6.426  27.917  76.123  1.00  0.00     0.069 A 
HETATM   19  C23 UNL     1       6.021  29.209  76.310  1.00  0.00     0.076 A 
HETATM   20 CL1  UNL     1       4.345  29.654  75.977  1.00  0.00    -0.081 Cl
HETATM   21  C24 UNL     1       6.854  30.201  76.753  1.00  0.00     0.147 A 
HETATM   22  F4  UNL     1       6.385  31.460  76.943  1.00  0.00    -0.204 F 
ENDBRANCH  12  14
BRANCH   7  23
HETATM   23  C10 UNL     1       8.182  34.566  77.075  1.00  0.00     0.094 C 
HETATM   24  C11 UNL     1       9.249  35.581  76.685  1.00  0.00     0.026 C 
HETATM   25  C12 UNL     1       8.695  36.981  77.019  1.00  0.00     0.006 C 
HETATM   26  C13 UNL     1       7.206  37.049  76.875  1.00  0.00    -0.019 C 
HETATM   27  C14 UNL     1       6.891  38.448  76.312  1.00  0.00     0.010 C 
HETATM   28  C15 UNL     1       6.608  36.080  75.923  1.00  0.00     0.006 C 
HETATM   29  C16 UNL     1       7.132  34.662  76.016  1.00  0.00     0.026 C 
ENDBRANCH   7  23
BRANCH   1  30
HETATM   30  C6  UNL     1      12.574  30.442  76.403  1.00  0.00     0.122 C 
BRANCH  30  31
HETATM   31  C5  UNL     1      13.327  29.384  75.692  1.00  0.00     0.020 C 
BRANCH  31  32
HETATM   32  C4  UNL     1      14.659  29.105  76.369  1.00  0.00     0.002 C 
BRANCH  32  33
HETATM   33  C3  UNL     1      15.652  28.733  75.315  1.00  0.00    -0.000 C 
BRANCH  33  34
HETATM   34  C2  UNL     1      14.952  28.761  73.953  1.00  0.00    -0.005 C 
HETATM   35  C1  UNL     1      16.028  29.107  72.935  1.00  0.00     0.005 C 
ENDBRANCH  33  34
ENDBRANCH  32  33
ENDBRANCH  31  32
ENDBRANCH  30  31
ENDBRANCH   1  30
TORSDOF 7
ENDMDL
MODEL 4
REMARK VINA RESULT: -6.535456418      3.248      5.657
REMARK  7 active torsions:
REMARK  status: ('A' for Active; 'I' for Inactive)
REMARK    1  A    between atoms: C2_2  and  C3_3 
REMARK    2  A    between atoms: C3_3  and  C4_4 
REMARK    3  A    between atoms: C4_4  and  C5_5 
REMARK    4  A    between atoms: C5_5  and  C6_6 
REMARK    5  A    between atoms: C6_6  and  N1_7 
REMARK    6  A    between atoms: N2_13  and  C10_14 
REMARK    7  A    between atoms: C18_25  and  C19_26 
ROOT
HETATM    1  N1  UNL     1       4.524  34.549  81.442  1.00  0.00    -0.385 N 
HETATM    2  C7  UNL     1       5.711  35.289  81.593  1.00  0.00     0.143 C 
HETATM    3  C8  UNL     1       6.503  35.610  80.332  1.00  0.00     0.316 C 
HETATM    4  F1  UNL     1       6.487  37.015  80.278  1.00  0.00    -0.193 F 
HETATM    5  F2  UNL     1       7.791  35.259  80.589  1.00  0.00    -0.193 F 
HETATM    6  C9  UNL     1       5.845  35.030  79.161  1.00  0.00     0.105 C 
HETATM    7  N2  UNL     1       6.204  35.268  77.826  1.00  0.00    -0.293 N 
HETATM    8  C17 UNL     1       5.475  34.187  77.165  1.00  0.00     0.324 C 
HETATM    9  O1  UNL     1       5.235  34.071  75.914  1.00  0.00    -0.247 OA
HETATM   10  N3  UNL     1       5.028  33.222  78.067  1.00  0.00    -0.322 N 
ATOM     11  H3  UNL     1       4.483  32.390  77.841  1.00  0.00     0.165 HD
HETATM   12  C18 UNL     1       5.486  33.625  79.396  1.00  0.00     0.126 C 
HETATM   13  C25 UNL     1       4.276  33.736  80.330  1.00  0.00     0.165 C 
ENDROOT
BRANCH  12  14
HETATM   14  C19 UNL     1       6.382  32.639  79.983  1.00  0.00     0.021 A 
HETATM   15  C20 UNL     1       5.975  31.852  81.041  1.00  0.00     0.055 A 
HETATM   16  C21 UNL     1       6.778  30.886  81.652  1.00  0.00     0.118 A 
HETATM   17  F3  UNL     1       6.358  30.127  82.690  1.00  0.00    -0.206 F 
HETATM   18  C22 UNL     1       8.055  30.697  81.179  1.00  0.00     0.069 A 
HETATM   19  C23 UNL     1       8.467  31.471  80.132  1.00  0.00     0.076 A 
HETATM   20 CL1  UNL     1      10.097  31.266  79.484  1.00  0.00    -0.081 Cl
HETATM   21  C24 UNL     1       7.675  32.417  79.538  1.00  0.00     0.147 A 
HETATM   22  F4  UNL     1       8.135  33.137  78.484  1.00  0.00    -0.204 F 
ENDBRANCH  12  14
BRANCH   7  23
HETATM   23  C10 UNL     1       6.972  36.159  77.032  1.00  0.00     0.094 C 
HETATM   24  C11 UNL     1       6.502  37.607  77.089  1.00  0.00     0.026 C 
HETATM   25  C12 UNL     1       6.921  38.278  75.765  1.00  0.00     0.006 C 
HETATM   26  C13 UNL     1       8.188  37.700  75.214  1.00  0.00    -0.019 C 
HETATM   27  C14 UNL     1       8.960  38.875  74.585  1.00  0.00     0.010 C 
HETATM   28  C15 UNL     1       9.105  37.095  76.213  1.00  0.00     0.006 C 
HETATM   29  C16 UNL     1       8.450  36.209  77.251  1.00  0.00     0.026 C 
ENDBRANCH   7  23
BRANCH   1  30
HETATM   30  C6  UNL     1       3.332  35.342  81.811  1.00  0.00     0.122 C 
BRANCH  30  31
HETATM   31  C5  UNL     1       2.407  35.492  80.663  1.00  0.00     0.020 C 
BRANCH  31  32
HETATM   32  C4  UNL     1       2.002  36.944  80.469  1.00  0.00     0.002 C 
BRANCH  32  33
HETATM   33  C3  UNL     1       3.204  37.711  80.017  1.00  0.00    -0.000 C 
BRANCH  33  34
HETATM   34  C2  UNL     1       2.764  39.129  79.641  1.00  0.00    -0.005 C 
HETATM   35  C1  UNL     1       3.661  39.555  78.489  1.00  0.00     0.005 C 
ENDBRANCH  33  34
ENDBRANCH  32  33
ENDBRANCH  31  32
ENDBRANCH  30  31
ENDBRANCH   1  30
TORSDOF 7
ENDMDL
MODEL 5
REMARK VINA RESULT: -6.519823996      4.591      6.719
REMARK  7 active torsions:
REMARK  status: ('A' for Active; 'I' for Inactive)
REMARK    1  A    between atoms: C2_2  and  C3_3 
REMARK    2  A    between atoms: C3_3  and  C4_4 
REMARK    3  A    between atoms: C4_4  and  C5_5 
REMARK    4  A    between atoms: C5_5  and  C6_6 
REMARK    5  A    between atoms: C6_6  and  N1_7 
REMARK    6  A    between atoms: N2_13  and  C10_14 
REMARK    7  A    between atoms: C18_25  and  C19_26 
ROOT
HETATM    1  N1  UNL     1       9.545  33.379  78.606  1.00  0.00    -0.385 N 
HETATM    2  C7  UNL     1      10.828  33.739  78.155  1.00  0.00     0.143 C 
HETATM    3  C8  UNL     1      11.772  32.614  77.750  1.00  0.00     0.316 C 
HETATM    4  F1  UNL     1      12.014  32.857  76.387  1.00  0.00    -0.193 F 
HETATM    5  F2  UNL     1      12.949  32.852  78.388  1.00  0.00    -0.193 F 
HETATM    6  C9  UNL     1      11.125  31.317  77.948  1.00  0.00     0.105 C 
HETATM    7  N2  UNL     1      11.635  30.081  77.525  1.00  0.00    -0.293 N 
HETATM    8  C17 UNL     1      10.784  29.172  78.291  1.00  0.00     0.324 C 
HETATM    9  O1  UNL     1      10.636  27.915  78.108  1.00  0.00    -0.247 OA
HETATM   10  N3  UNL     1      10.094  29.828  79.309  1.00  0.00    -0.322 N 
ATOM     11  H3  UNL     1       9.430  29.405  79.959  1.00  0.00     0.165 HD
HETATM   12  C18 UNL     1      10.500  31.232  79.275  1.00  0.00     0.126 C 
HETATM   13  C25 UNL     1       9.253  32.110  79.118  1.00  0.00     0.165 C 
ENDROOT
BRANCH  12  14
HETATM   14  C19 UNL     1      11.149  31.640  80.512  1.00  0.00     0.021 A 
HETATM   15  C20 UNL     1      10.490  32.430  81.433  1.00  0.00     0.055 A 
HETATM   16  C21 UNL     1      11.048  32.857  82.639  1.00  0.00     0.118 A 
HETATM   17  F3  UNL     1      10.383  33.632  83.526  1.00  0.00    -0.206 F 
HETATM   18  C22 UNL     1      12.334  32.474  82.942  1.00  0.00     0.069 A 
HETATM   19  C23 UNL     1      12.994  31.693  82.038  1.00  0.00     0.076 A 
HETATM   20 CL1  UNL     1      14.646  31.169  82.380  1.00  0.00    -0.081 Cl
HETATM   21  C24 UNL     1      12.441  31.278  80.856  1.00  0.00     0.147 A 
HETATM   22  F4  UNL     1      13.142  30.481  80.010  1.00  0.00    -0.204 F 
ENDBRANCH  12  14
BRANCH   7  23
HETATM   23  C10 UNL     1      12.617  29.531  76.660  1.00  0.00     0.094 C 
HETATM   24  C11 UNL     1      12.390  29.836  75.185  1.00  0.00     0.026 C 
HETATM   25  C12 UNL     1      13.047  28.699  74.374  1.00  0.00     0.006 C 
HETATM   26  C13 UNL     1      14.251  28.136  75.065  1.00  0.00    -0.019 C 
HETATM   27  C14 UNL     1      15.267  27.803  73.956  1.00  0.00     0.010 C 
HETATM   28  C15 UNL     1      14.948  29.059  75.996  1.00  0.00     0.006 C 
HETATM   29  C16 UNL     1      14.053  29.857  76.920  1.00  0.00     0.026 C 
ENDBRANCH   7  23
BRANCH   1  30
HETATM   30  C6  UNL     1       8.488  33.849  77.686  1.00  0.00     0.122 C 
BRANCH  30  31
HETATM   31  C5  UNL     1       9.024  34.805  76.690  1.00  0.00     0.020 C 
BRANCH  31  32
HETATM   32  C4  UNL     1       8.011  35.891  76.367  1.00  0.00     0.002 C 
BRANCH  32  33
HETATM   33  C3  UNL     1       8.744  37.183  76.202  1.00  0.00    -0.000 C 
BRANCH  33  34
HETATM   34  C2  UNL     1       7.908  38.107  75.311  1.00  0.00    -0.005 C 
HETATM   35  C1  UNL     1       8.902  38.857  74.435  1.00  0.00     0.005 C 
ENDBRANCH  33  34
ENDBRANCH  32  33
ENDBRANCH  31  32
ENDBRANCH  30  31
ENDBRANCH   1  30
TORSDOF 7
ENDMDL
