MODEL 1
REMARK VINA RESULT: -6.531610602      0.000      0.000
REMARK  9 active torsions:
REMARK  status: ('A' for Active; 'I' for Inactive)
REMARK    1  A    between atoms: C2_2  and  C3_3 
REMARK    2  A    between atoms: C3_3  and  C4_4 
REMARK    3  A    between atoms: C4_4  and  C7_7 
REMARK    4  A    between atoms: C12_15  and  C13_16 
REMARK    5  A    between atoms: C13_16  and  C14_17 
REMARK    6  A    between atoms: C14_17  and  C15_18 
REMARK    7  A    between atoms: C15_18  and  C16_19 
REMARK       I    between atoms: C16_19  and  N1_21 
REMARK    8  A    between atoms: C24_31  and  C25_32 
REMARK    9  A    between atoms: C25_32  and  N2_33 
ROOT
HETATM    1  C14 UNL     1      10.181  32.632  78.258  1.00  0.00     0.001 C 
HETATM    2  C22 UNL     1      10.385  31.165  78.280  1.00  0.00     0.018 C 
HETATM    3  C23 UNL     1      11.168  30.610  77.127  1.00  0.00     0.007 C 
HETATM    4  C24 UNL     1      12.536  31.186  77.240  1.00  0.00     0.011 C 
HETATM    5  C26 UNL     1      12.627  32.579  77.722  1.00  0.00     0.007 C 
HETATM    6  C27 UNL     1      11.650  33.086  78.713  1.00  0.00     0.018 C 
ENDROOT
BRANCH   1   7
HETATM    7  C13 UNL     1       9.937  33.341  76.974  1.00  0.00     0.002 C 
BRANCH   7   8
HETATM    8  C12 UNL     1       9.000  34.360  76.649  1.00  0.00     0.010 A 
HETATM    9  C7  UNL     1       7.844  33.915  75.940  1.00  0.00    -0.034 A 
HETATM   10  C8  UNL     1       6.958  34.920  75.610  1.00  0.00     0.054 A 
HETATM   11  C9  UNL     1       7.130  36.264  75.927  1.00  0.00     0.158 A 
HETATM   12  F1  UNL     1       6.224  37.227  75.583  1.00  0.00    -0.203 F 
HETATM   13  C10 UNL     1       8.251  36.640  76.609  1.00  0.00     0.194 A 
HETATM   14  F2  UNL     1       8.454  37.947  76.938  1.00  0.00    -0.200 F 
HETATM   15  C11 UNL     1       9.191  35.678  76.971  1.00  0.00     0.168 A 
HETATM   16  F3  UNL     1      10.233  36.190  77.661  1.00  0.00    -0.202 F 
BRANCH   9  17
HETATM   17  C4  UNL     1       7.559  32.593  75.440  1.00  0.00    -0.019 C 
HETATM   18  C5  UNL     1       6.386  32.532  74.494  1.00  0.00     0.020 C 
HETATM   19  C6  UNL     1       8.684  31.881  74.824  1.00  0.00     0.020 C 
BRANCH  17  20
HETATM   20  C3  UNL     1       7.032  31.691  76.582  1.00  0.00     0.013 C 
BRANCH  20  21
HETATM   21  C2  UNL     1       7.305  30.249  76.440  1.00  0.00    -0.004 C 
HETATM   22  C1  UNL     1       6.078  29.393  76.792  1.00  0.00     0.005 C 
ENDBRANCH  20  21
ENDBRANCH  17  20
ENDBRANCH   9  17
ENDBRANCH   7   8
ENDBRANCH   1   7
BRANCH   1  23
HETATM   23  C15 UNL     1       9.372  32.981  79.444  1.00  0.00     0.061 C 
BRANCH  23  24
HETATM   24  C16 UNL     1       8.155  32.282  79.787  1.00  0.00     0.240 C 
HETATM   25  O1  UNL     1       7.965  31.058  79.976  1.00  0.00    -0.269 OA
HETATM   26  N1  UNL     1       6.983  33.083  79.937  1.00  0.00    -0.343 N 
HETATM   27  C17 UNL     1       5.733  32.399  80.281  1.00  0.00     0.126 C 
HETATM   28  C21 UNL     1       7.051  34.493  79.749  1.00  0.00     0.205 C 
HETATM   29  C18 UNL     1       4.707  33.002  79.312  1.00  0.00     0.026 C 
HETATM   30  C19 UNL     1       4.514  34.425  79.773  1.00  0.00     0.082 C 
HETATM   31  C20 UNL     1       5.761  35.223  79.763  1.00  0.00     0.259 C 
HETATM   32  F4  UNL     1       5.708  36.037  78.619  1.00  0.00    -0.205 F 
HETATM   33  F5  UNL     1       5.677  36.117  80.839  1.00  0.00    -0.205 F 
ENDBRANCH  23  24
ENDBRANCH   1  23
BRANCH   4  34
HETATM   34  C25 UNL     1      13.409  30.292  78.132  1.00  0.00     0.234 C 
BRANCH  34  35
HETATM   35  N2  UNL     1      14.158  29.331  77.385  1.00  0.00    -0.079 N 
ATOM     36  H23 UNL     1      13.725  29.153  76.479  1.00  0.00     0.274 HD
ATOM     37  H22 UNL     1      15.045  29.724  77.070  1.00  0.00     0.274 HD
ATOM     38  H21 UNL     1      14.305  28.461  77.897  1.00  0.00     0.274 HD
ENDBRANCH  34  35
ENDBRANCH   4  34
TORSDOF 9
ENDMDL
MODEL 2
REMARK VINA RESULT: -6.509444586      2.720      6.338
REMARK  9 active torsions:
REMARK  status: ('A' for Active; 'I' for Inactive)
REMARK    1  A    between atoms: C2_2  and  C3_3 
REMARK    2  A    between atoms: C3_3  and  C4_4 
REMARK    3  A    between atoms: C4_4  and  C7_7 
REMARK    4  A    between atoms: C12_15  and  C13_16 
REMARK    5  A    between atoms: C13_16  and  C14_17 
REMARK    6  A    between atoms: C14_17  and  C15_18 
REMARK    7  A    between atoms: C15_18  and  C16_19 
REMARK       I    between atoms: C16_19  and  N1_21 
REMARK    8  A    between atoms: C24_31  and  C25_32 
REMARK    9  A    between atoms: C25_32  and  N2_33 
ROOT
HETATM    1  C14 UNL     1       7.931  34.042  80.604  1.00  0.00     0.001 C 
HETATM    2  C22 UNL     1       8.782  34.943  81.416  1.00  0.00     0.018 C 
HETATM    3  C23 UNL     1       8.249  36.333  81.599  1.00  0.00     0.007 C 
HETATM    4  C24 UNL     1       6.989  36.195  82.379  1.00  0.00     0.011 C 
HETATM    5  C26 UNL     1       6.157  35.010  82.083  1.00  0.00     0.007 C 
HETATM    6  C27 UNL     1       6.797  33.732  81.695  1.00  0.00     0.018 C 
ENDROOT
BRANCH   1   7
HETATM    7  C13 UNL     1       7.197  34.560  79.420  1.00  0.00     0.002 C 
BRANCH   7   8
HETATM    8  C12 UNL     1       7.159  34.086  78.080  1.00  0.00     0.010 A 
HETATM    9  C7  UNL     1       7.914  34.856  77.144  1.00  0.00    -0.034 A 
HETATM   10  C8  UNL     1       7.845  34.397  75.845  1.00  0.00     0.054 A 
HETATM   11  C9  UNL     1       7.123  33.280  75.435  1.00  0.00     0.158 A 
HETATM   12  F1  UNL     1       7.086  32.858  74.137  1.00  0.00    -0.203 F 
HETATM   13  C10 UNL     1       6.420  32.574  76.369  1.00  0.00     0.194 A 
HETATM   14  F2  UNL     1       5.702  31.473  76.007  1.00  0.00    -0.200 F 
HETATM   15  C11 UNL     1       6.441  32.983  77.700  1.00  0.00     0.168 A 
HETATM   16  F3  UNL     1       5.723  32.178  78.513  1.00  0.00    -0.202 F 
BRANCH   9  17
HETATM   17  C4  UNL     1       8.623  36.090  77.372  1.00  0.00    -0.019 C 
HETATM   18  C5  UNL     1       7.793  37.166  78.027  1.00  0.00     0.020 C 
HETATM   19  C6  UNL     1       9.891  35.979  78.102  1.00  0.00     0.020 C 
BRANCH  17  20
HETATM   20  C3  UNL     1       8.944  36.780  76.025  1.00  0.00     0.013 C 
BRANCH  20  21
HETATM   21  C2  UNL     1       8.251  38.057  75.774  1.00  0.00    -0.004 C 
HETATM   22  C1  UNL     1       8.883  38.837  74.610  1.00  0.00     0.005 C 
ENDBRANCH  20  21
ENDBRANCH  17  20
ENDBRANCH   9  17
ENDBRANCH   7   8
ENDBRANCH   1   7
BRANCH   1  23
HETATM   23  C15 UNL     1       8.630  32.743  80.512  1.00  0.00     0.061 C 
BRANCH  23  24
HETATM   24  C16 UNL     1      10.048  32.605  80.751  1.00  0.00     0.240 C 
HETATM   25  O1  UNL     1      10.681  32.643  81.831  1.00  0.00    -0.269 OA
HETATM   26  N1  UNL     1      10.868  32.395  79.602  1.00  0.00    -0.343 N 
HETATM   27  C17 UNL     1      12.312  32.256  79.815  1.00  0.00     0.126 C 
HETATM   28  C21 UNL     1      10.282  32.332  78.306  1.00  0.00     0.205 C 
HETATM   29  C18 UNL     1      12.929  33.171  78.748  1.00  0.00     0.026 C 
HETATM   30  C19 UNL     1      12.659  32.484  77.432  1.00  0.00     0.082 C 
HETATM   31  C20 UNL     1      11.219  32.276  77.159  1.00  0.00     0.259 C 
HETATM   32  F4  UNL     1      10.838  33.263  76.235  1.00  0.00    -0.205 F 
HETATM   33  F5  UNL     1      11.112  31.068  76.454  1.00  0.00    -0.205 F 
ENDBRANCH  23  24
ENDBRANCH   1  23
BRANCH   4  34
HETATM   34  C25 UNL     1       7.297  36.224  83.882  1.00  0.00     0.234 C 
BRANCH  34  35
HETATM   35  N2  UNL     1       6.118  36.198  84.689  1.00  0.00    -0.079 N 
ATOM     36  H23 UNL     1       5.550  35.376  84.480  1.00  0.00     0.274 HD
ATOM     37  H22 UNL     1       6.345  35.998  85.663  1.00  0.00     0.274 HD
ATOM     38  H21 UNL     1       5.566  37.052  84.610  1.00  0.00     0.274 HD
ENDBRANCH  34  35
ENDBRANCH   4  34
TORSDOF 9
ENDMDL
MODEL 3
REMARK VINA RESULT: -6.484647926      2.742      6.650
REMARK  9 active torsions:
REMARK  status: ('A' for Active; 'I' for Inactive)
REMARK    1  A    between atoms: C2_2  and  C3_3 
REMARK    2  A    between atoms: C3_3  and  C4_4 
REMARK    3  A    between atoms: C4_4  and  C7_7 
REMARK    4  A    between atoms: C12_15  and  C13_16 
REMARK    5  A    between atoms: C13_16  and  C14_17 
REMARK    6  A    between atoms: C14_17  and  C15_18 
REMARK    7  A    between atoms: C15_18  and  C16_19 
REMARK       I    between atoms: C16_19  and  N1_21 
REMARK    8  A    between atoms: C24_31  and  C25_32 
REMARK    9  A    between atoms: C25_32  and  N2_33 
ROOT
HETATM    1  C14 UNL     1       5.243  34.117  79.388  1.00  0.00     0.001 C 
HETATM    2  C22 UNL     1       4.773  33.430  80.613  1.00  0.00     0.018 C 
HETATM    3  C23 UNL     1       5.069  34.141  81.900  1.00  0.00     0.007 C 
HETATM    4  C24 UNL     1       4.296  35.414  81.858  1.00  0.00     0.011 C 
HETATM    5  C26 UNL     1       4.186  36.073  80.541  1.00  0.00     0.007 C 
HETATM    6  C27 UNL     1       4.121  35.259  79.306  1.00  0.00     0.018 C 
ENDROOT
BRANCH   1   7
HETATM    7  C13 UNL     1       6.539  34.847  79.383  1.00  0.00     0.002 C 
BRANCH   7   8
HETATM    8  C12 UNL     1       7.796  34.487  78.827  1.00  0.00     0.010 A 
HETATM    9  C7  UNL     1       8.302  35.387  77.841  1.00  0.00    -0.034 A 
HETATM   10  C8  UNL     1       9.511  35.010  77.293  1.00  0.00     0.054 A 
HETATM   11  C9  UNL     1      10.217  33.863  77.644  1.00  0.00     0.158 A 
HETATM   12  F1  UNL     1      11.414  33.529  77.077  1.00  0.00    -0.203 F 
HETATM   13  C10 UNL     1       9.694  33.035  78.594  1.00  0.00     0.194 A 
HETATM   14  F2  UNL     1      10.357  31.903  78.966  1.00  0.00    -0.200 F 
HETATM   15  C11 UNL     1       8.474  33.353  79.188  1.00  0.00     0.168 A 
HETATM   16  F3  UNL     1       8.093  32.458  80.126  1.00  0.00    -0.202 F 
BRANCH   9  17
HETATM   17  C4  UNL     1       7.659  36.551  77.283  1.00  0.00    -0.019 C 
HETATM   18  C5  UNL     1       6.538  36.235  76.324  1.00  0.00     0.020 C 
HETATM   19  C6  UNL     1       7.172  37.543  78.249  1.00  0.00     0.020 C 
BRANCH  17  20
HETATM   20  C3  UNL     1       8.627  37.294  76.332  1.00  0.00     0.013 C 
BRANCH  20  21
HETATM   21  C2  UNL     1       7.994  38.096  75.269  1.00  0.00    -0.004 C 
HETATM   22  C1  UNL     1       9.029  38.883  74.449  1.00  0.00     0.005 C 
ENDBRANCH  20  21
ENDBRANCH  17  20
ENDBRANCH   9  17
ENDBRANCH   7   8
ENDBRANCH   1   7
BRANCH   1  23
HETATM   23  C15 UNL     1       4.891  33.258  78.239  1.00  0.00     0.061 C 
BRANCH  23  24
HETATM   24  C16 UNL     1       5.415  31.921  78.081  1.00  0.00     0.240 C 
HETATM   25  O1  UNL     1       5.260  30.913  78.808  1.00  0.00    -0.269 OA
HETATM   26  N1  UNL     1       6.232  31.691  76.934  1.00  0.00    -0.343 N 
HETATM   27  C17 UNL     1       6.780  30.343  76.749  1.00  0.00     0.126 C 
HETATM   28  C21 UNL     1       6.495  32.749  76.018  1.00  0.00     0.205 C 
HETATM   29  C18 UNL     1       8.256  30.592  76.409  1.00  0.00     0.026 C 
HETATM   30  C19 UNL     1       8.247  31.203  75.030  1.00  0.00     0.082 C 
HETATM   31  C20 UNL     1       7.482  32.467  74.949  1.00  0.00     0.259 C 
HETATM   32  F4  UNL     1       8.425  33.508  74.939  1.00  0.00    -0.205 F 
HETATM   33  F5  UNL     1       6.899  32.505  73.675  1.00  0.00    -0.205 F 
ENDBRANCH  23  24
ENDBRANCH   1  23
BRANCH   4  34
HETATM   34  C25 UNL     1       2.887  35.190  82.423  1.00  0.00     0.234 C 
BRANCH  34  35
HETATM   35  N2  UNL     1       2.019  36.303  82.199  1.00  0.00    -0.079 N 
ATOM     36  H23 UNL     1       2.467  37.178  82.475  1.00  0.00     0.274 HD
ATOM     37  H22 UNL     1       1.906  36.483  81.201  1.00  0.00     0.274 HD
ATOM     38  H21 UNL     1       1.114  36.196  82.656  1.00  0.00     0.274 HD
ENDBRANCH  34  35
ENDBRANCH   4  34
TORSDOF 9
ENDMDL
MODEL 4
REMARK VINA RESULT: -6.466467612      2.606      5.827
REMARK  9 active torsions:
REMARK  status: ('A' for Active; 'I' for Inactive)
REMARK    1  A    between atoms: C2_2  and  C3_3 
REMARK    2  A    between atoms: C3_3  and  C4_4 
REMARK    3  A    between atoms: C4_4  and  C7_7 
REMARK    4  A    between atoms: C12_15  and  C13_16 
REMARK    5  A    between atoms: C13_16  and  C14_17 
REMARK    6  A    between atoms: C14_17  and  C15_18 
REMARK    7  A    between atoms: C15_18  and  C16_19 
REMARK       I    between atoms: C16_19  and  N1_21 
REMARK    8  A    between atoms: C24_31  and  C25_32 
REMARK    9  A    between atoms: C25_32  and  N2_33 
ROOT
HETATM    1  C14 UNL     1       4.953  33.575  79.427  1.00  0.00     0.001 C 
HETATM    2  C22 UNL     1       3.891  34.113  80.309  1.00  0.00     0.018 C 
HETATM    3  C23 UNL     1       2.532  34.215  79.683  1.00  0.00     0.007 C 
HETATM    4  C24 UNL     1       2.107  32.820  79.383  1.00  0.00     0.011 C 
HETATM    5  C26 UNL     1       3.166  31.891  78.940  1.00  0.00     0.007 C 
HETATM    6  C27 UNL     1       4.542  32.026  79.469  1.00  0.00     0.018 C 
ENDROOT
BRANCH   1   7
HETATM    7  C13 UNL     1       4.985  33.928  77.982  1.00  0.00     0.002 C 
BRANCH   7   8
HETATM    8  C12 UNL     1       5.775  34.882  77.285  1.00  0.00     0.010 A 
HETATM    9  C7  UNL     1       6.551  34.355  76.209  1.00  0.00    -0.034 A 
HETATM   10  C8  UNL     1       7.330  35.290  75.559  1.00  0.00     0.054 A 
HETATM   11  C9  UNL     1       7.382  36.642  75.883  1.00  0.00     0.158 A 
HETATM   12  F1  UNL     1       8.167  37.535  75.210  1.00  0.00    -0.203 F 
HETATM   13  C10 UNL     1       6.619  37.099  76.919  1.00  0.00     0.194 A 
HETATM   14  F2  UNL     1       6.642  38.417  77.266  1.00  0.00    -0.200 F 
HETATM   15  C11 UNL     1       5.810  36.210  77.622  1.00  0.00     0.168 A 
HETATM   16  F3  UNL     1       5.094  36.805  78.601  1.00  0.00    -0.202 F 
BRANCH   9  17
HETATM   17  C4  UNL     1       6.700  32.978  75.809  1.00  0.00    -0.019 C 
HETATM   18  C5  UNL     1       7.186  32.067  76.908  1.00  0.00     0.020 C 
HETATM   19  C6  UNL     1       5.526  32.358  75.183  1.00  0.00     0.020 C 
BRANCH  17  20
HETATM   20  C3  UNL     1       7.868  32.836  74.804  1.00  0.00     0.013 C 
BRANCH  20  21
HETATM   21  C2  UNL     1       8.567  31.537  74.810  1.00  0.00    -0.004 C 
HETATM   22  C1  UNL     1      10.095  31.706  74.809  1.00  0.00     0.005 C 
ENDBRANCH  20  21
ENDBRANCH  17  20
ENDBRANCH   9  17
ENDBRANCH   7   8
ENDBRANCH   1   7
BRANCH   1  23
HETATM   23  C15 UNL     1       6.212  33.579  80.201  1.00  0.00     0.061 C 
BRANCH  23  24
HETATM   24  C16 UNL     1       6.894  34.799  80.568  1.00  0.00     0.240 C 
HETATM   25  O1  UNL     1       6.518  35.725  81.323  1.00  0.00    -0.269 OA
HETATM   26  N1  UNL     1       8.187  34.999  80.000  1.00  0.00    -0.343 N 
HETATM   27  C17 UNL     1       8.901  36.231  80.353  1.00  0.00     0.126 C 
HETATM   28  C21 UNL     1       8.741  34.026  79.120  1.00  0.00     0.205 C 
HETATM   29  C18 UNL     1       9.417  36.752  79.004  1.00  0.00     0.026 C 
HETATM   30  C19 UNL     1      10.494  35.781  78.590  1.00  0.00     0.082 C 
HETATM   31  C20 UNL     1      10.011  34.389  78.449  1.00  0.00     0.259 C 
HETATM   32  F4  UNL     1       9.862  34.152  77.073  1.00  0.00    -0.205 F 
HETATM   33  F5  UNL     1      11.068  33.555  78.841  1.00  0.00    -0.205 F 
ENDBRANCH  23  24
ENDBRANCH   1  23
BRANCH   4  34
HETATM   34  C25 UNL     1       1.391  32.217  80.599  1.00  0.00     0.234 C 
BRANCH  34  35
HETATM   35  N2  UNL     1       0.038  31.851  80.319  1.00  0.00    -0.079 N 
ATOM     36  H23 UNL     1      -0.005  31.146  79.583  1.00  0.00     0.274 HD
ATOM     37  H22 UNL     1      -0.362  31.313  81.087  1.00  0.00     0.274 HD
ATOM     38  H21 UNL     1      -0.548  32.654  80.090  1.00  0.00     0.274 HD
ENDBRANCH  34  35
ENDBRANCH   4  34
TORSDOF 9
ENDMDL
MODEL 5
REMARK VINA RESULT: -6.447625115      2.278      3.723
REMARK  9 active torsions:
REMARK  status: ('A' for Active; 'I' for Inactive)
REMARK    1  A    between atoms: C2_2  and  C3_3 
REMARK    2  A    between atoms: C3_3  and  C4_4 
REMARK    3  A    between atoms: C4_4  and  C7_7 
REMARK    4  A    between atoms: C12_15  and  C13_16 
REMARK    5  A    between atoms: C13_16  and  C14_17 
REMARK    6  A    between atoms: C14_17  and  C15_18 
REMARK    7  A    between atoms: C15_18  and  C16_19 
REMARK       I    between atoms: C16_19  and  N1_21 
REMARK    8  A    between atoms: C24_31  and  C25_32 
REMARK    9  A    between atoms: C25_32  and  N2_33 
ROOT
HETATM    1  C14 UNL     1      10.451  33.598  78.815  1.00  0.00     0.001 C 
HETATM    2  C22 UNL     1      10.776  33.395  80.246  1.00  0.00     0.018 C 
HETATM    3  C23 UNL     1      10.834  31.964  80.692  1.00  0.00     0.007 C 
HETATM    4  C24 UNL     1      11.968  31.344  79.952  1.00  0.00     0.011 C 
HETATM    5  C26 UNL     1      12.173  31.798  78.562  1.00  0.00     0.007 C 
HETATM    6  C27 UNL     1      11.870  33.197  78.185  1.00  0.00     0.018 C 
ENDROOT
BRANCH   1   7
HETATM    7  C13 UNL     1       9.463  32.720  78.133  1.00  0.00     0.002 C 
BRANCH   7   8
HETATM    8  C12 UNL     1       8.054  32.852  77.995  1.00  0.00     0.010 A 
HETATM    9  C7  UNL     1       7.554  32.642  76.675  1.00  0.00    -0.034 A 
HETATM   10  C8  UNL     1       6.188  32.800  76.554  1.00  0.00     0.054 A 
HETATM   11  C9  UNL     1       5.331  33.127  77.600  1.00  0.00     0.158 A 
HETATM   12  F1  UNL     1       3.983  33.270  77.435  1.00  0.00    -0.203 F 
HETATM   13  C10 UNL     1       5.858  33.314  78.845  1.00  0.00     0.194 A 
HETATM   14  F2  UNL     1       5.050  33.635  79.896  1.00  0.00    -0.200 F 
HETATM   15  C11 UNL     1       7.230  33.175  79.040  1.00  0.00     0.168 A 
HETATM   16  F3  UNL     1       7.604  33.364  80.325  1.00  0.00    -0.202 F 
BRANCH   9  17
HETATM   17  C4  UNL     1       8.301  32.407  75.465  1.00  0.00    -0.019 C 
HETATM   18  C5  UNL     1       7.475  32.482  74.206  1.00  0.00     0.020 C 
HETATM   19  C6  UNL     1       9.501  33.232  75.278  1.00  0.00     0.020 C 
BRANCH  17  20
HETATM   20  C3  UNL     1       8.761  30.931  75.399  1.00  0.00     0.013 C 
BRANCH  20  21
HETATM   21  C2  UNL     1      10.205  30.716  75.185  1.00  0.00    -0.004 C 
HETATM   22  C1  UNL     1      10.745  29.554  76.034  1.00  0.00     0.005 C 
ENDBRANCH  20  21
ENDBRANCH  17  20
ENDBRANCH   9  17
ENDBRANCH   7   8
ENDBRANCH   1   7
BRANCH   1  23
HETATM   23  C15 UNL     1      10.410  35.056  78.576  1.00  0.00     0.061 C 
BRANCH  23  24
HETATM   24  C16 UNL     1       9.394  35.908  79.148  1.00  0.00     0.240 C 
HETATM   25  O1  UNL     1       9.199  36.222  80.345  1.00  0.00    -0.269 OA
HETATM   26  N1  UNL     1       8.465  36.489  78.235  1.00  0.00    -0.343 N 
HETATM   27  C17 UNL     1       7.420  37.357  78.789  1.00  0.00     0.126 C 
HETATM   28  C21 UNL     1       8.566  36.218  76.840  1.00  0.00     0.205 C 
HETATM   29  C18 UNL     1       6.138  36.871  78.098  1.00  0.00     0.026 C 
HETATM   30  C19 UNL     1       6.277  37.297  76.658  1.00  0.00     0.082 C 
HETATM   31  C20 UNL     1       7.467  36.728  75.987  1.00  0.00     0.259 C 
HETATM   32  F4  UNL     1       7.009  35.669  75.185  1.00  0.00    -0.205 F 
HETATM   33  F5  UNL     1       7.916  37.695  75.076  1.00  0.00    -0.205 F 
ENDBRANCH  23  24
ENDBRANCH   1  23
BRANCH   4  34
HETATM   34  C25 UNL     1      13.272  31.536  80.737  1.00  0.00     0.234 C 
BRANCH  34  35
HETATM   35  N2  UNL     1      13.237  30.921  82.027  1.00  0.00    -0.079 N 
ATOM     36  H23 UNL     1      12.790  31.532  82.711  1.00  0.00     0.274 HD
ATOM     37  H22 UNL     1      12.576  30.144  82.043  1.00  0.00     0.274 HD
ATOM     38  H21 UNL     1      14.158  30.624  82.348  1.00  0.00     0.274 HD
ENDBRANCH  34  35
ENDBRANCH   4  34
TORSDOF 9
ENDMDL
