MODEL 1
REMARK VINA RESULT: -7.002155601      0.000      0.000
REMARK  8 active torsions:
REMARK  status: ('A' for Active; 'I' for Inactive)
REMARK    1  A    between atoms: C2_2  and  C4_4 
REMARK    2  A    between atoms: C7_7  and  N1_8 
REMARK       I    between atoms: N2_11  and  C10_12 
REMARK       I    between atoms: C10_12  and  N3_14 
REMARK    3  A    between atoms: N3_14  and  C11_16 
REMARK    4  A    between atoms: C11_16  and  C12_17 
REMARK    5  A    between atoms: C13_21  and  C14_22 
REMARK    6  A    between atoms: C14_22  and  C15_23 
REMARK    7  A    between atoms: C15_23  and  C16_24 
REMARK    8  A    between atoms: C16_24  and  C17_25 
ROOT
HETATM    1  N1  UNL     1       5.929  37.660  78.359  1.00  0.00    -0.375 N 
HETATM    2  C8  UNL     1       6.821  37.200  79.394  1.00  0.00     0.143 C 
HETATM    3  C9  UNL     1       7.070  35.692  79.217  1.00  0.00     0.148 C 
HETATM    4  N2  UNL     1       7.583  35.547  77.888  1.00  0.00    -0.326 N 
HETATM    5  C10 UNL     1       8.918  35.068  77.634  1.00  0.00     0.318 C 
HETATM    6  O1  UNL     1       9.184  35.004  76.397  1.00  0.00    -0.247 OA
HETATM    7  N3  UNL     1       9.790  34.725  78.659  1.00  0.00    -0.339 N 
ATOM      8  H3  UNL     1       9.436  34.814  79.612  1.00  0.00     0.164 HD
HETATM    9  C13 UNL     1       6.686  35.913  76.798  1.00  0.00     0.106 C 
HETATM   10  C19 UNL     1       6.199  37.302  76.992  1.00  0.00     0.148 C 
ENDROOT
BRANCH   1  11
HETATM   11  C7  UNL     1       4.817  38.452  78.716  1.00  0.00     0.069 A 
HETATM   12  C6  UNL     1       4.736  39.774  78.328  1.00  0.00     0.033 A 
HETATM   13  C5  UNL     1       3.660  40.567  78.665  1.00  0.00     0.010 A 
HETATM   14  C4  UNL     1       2.608  40.077  79.408  1.00  0.00    -0.052 A 
HETATM   15  C21 UNL     1       2.678  38.757  79.800  1.00  0.00     0.052 A 
HETATM   16  C20 UNL     1       3.754  37.962  79.465  1.00  0.00     0.143 A 
HETATM   17  F1  UNL     1       3.838  36.651  79.847  1.00  0.00    -0.204 F 
BRANCH  14  18
HETATM   18  C2  UNL     1       1.450  40.949  79.764  1.00  0.00     0.010 C 
HETATM   19  C1  UNL     1       0.811  40.555  81.063  1.00  0.00     0.015 C 
HETATM   20  C3  UNL     1       1.864  42.400  79.866  1.00  0.00     0.015 C 
ENDBRANCH  14  18
ENDBRANCH   1  11
BRANCH   9  21
HETATM   21  C14 UNL     1       5.662  34.861  76.642  1.00  0.00     0.027 C 
BRANCH  21  22
HETATM   22  C15 UNL     1       5.828  33.966  75.454  1.00  0.00     0.006 C 
BRANCH  22  23
HETATM   23  C16 UNL     1       6.586  32.689  75.780  1.00  0.00     0.028 C 
BRANCH  23  24
HETATM   24  C17 UNL     1       7.622  32.545  74.698  1.00  0.00    -0.015 C 
HETATM   25  C18 UNL     1       8.496  31.569  74.680  1.00  0.00     0.080 C 
HETATM   26 CL4  UNL     1       8.584  30.312  75.885  1.00  0.00    -0.097 Cl
ENDBRANCH  23  24
ENDBRANCH  22  23
ENDBRANCH  21  22
ENDBRANCH   9  21
BRANCH   7  27
HETATM   27  C11 UNL     1      11.122  34.263  78.516  1.00  0.00     0.183 C 
BRANCH  27  28
HETATM   28  C12 UNL     1      11.326  32.825  78.200  1.00  0.00     0.204 C 
HETATM   29 CL1  UNL     1      11.586  32.583  76.448  1.00  0.00    -0.082 Cl
HETATM   30 CL2  UNL     1      12.900  32.285  78.951  1.00  0.00    -0.082 Cl
HETATM   31 CL3  UNL     1      10.122  31.711  78.776  1.00  0.00    -0.082 Cl
ENDBRANCH  27  28
ENDBRANCH   7  27
TORSDOF 8
ENDMDL
MODEL 2
REMARK VINA RESULT: -6.666858518      2.208      3.759
REMARK  8 active torsions:
REMARK  status: ('A' for Active; 'I' for Inactive)
REMARK    1  A    between atoms: C2_2  and  C4_4 
REMARK    2  A    between atoms: C7_7  and  N1_8 
REMARK       I    between atoms: N2_11  and  C10_12 
REMARK       I    between atoms: C10_12  and  N3_14 
REMARK    3  A    between atoms: N3_14  and  C11_16 
REMARK    4  A    between atoms: C11_16  and  C12_17 
REMARK    5  A    between atoms: C13_21  and  C14_22 
REMARK    6  A    between atoms: C14_22  and  C15_23 
REMARK    7  A    between atoms: C15_23  and  C16_24 
REMARK    8  A    between atoms: C16_24  and  C17_25 
ROOT
HETATM    1  N1  UNL     1       5.046  36.170  79.484  1.00  0.00    -0.375 N 
HETATM    2  C8  UNL     1       4.728  35.142  78.524  1.00  0.00     0.143 C 
HETATM    3  C9  UNL     1       5.923  34.946  77.576  1.00  0.00     0.148 C 
HETATM    4  N2  UNL     1       7.034  34.638  78.425  1.00  0.00    -0.326 N 
HETATM    5  C10 UNL     1       7.703  33.363  78.373  1.00  0.00     0.318 C 
HETATM    6  O1  UNL     1       8.664  33.285  79.196  1.00  0.00    -0.247 OA
HETATM    7  N3  UNL     1       7.310  32.354  77.504  1.00  0.00    -0.339 N 
ATOM      8  H3  UNL     1       6.525  32.562  76.885  1.00  0.00     0.164 HD
HETATM    9  C13 UNL     1       7.455  35.681  79.353  1.00  0.00     0.106 C 
HETATM   10  C19 UNL     1       6.303  36.113  80.182  1.00  0.00     0.148 C 
ENDROOT
BRANCH   1  11
HETATM   11  C7  UNL     1       4.114  37.205  79.713  1.00  0.00     0.069 A 
HETATM   12  C6  UNL     1       3.106  37.057  80.643  1.00  0.00     0.033 A 
HETATM   13  C5  UNL     1       2.184  38.052  80.884  1.00  0.00     0.010 A 
HETATM   14  C4  UNL     1       2.224  39.251  80.205  1.00  0.00    -0.052 A 
HETATM   15  C21 UNL     1       3.227  39.411  79.273  1.00  0.00     0.052 A 
HETATM   16  C20 UNL     1       4.151  38.415  79.031  1.00  0.00     0.143 A 
HETATM   17  F1  UNL     1       5.152  38.559  78.109  1.00  0.00    -0.204 F 
BRANCH  14  18
HETATM   18  C2  UNL     1       1.218  40.320  80.476  1.00  0.00     0.010 C 
HETATM   19  C1  UNL     1       0.990  40.536  81.944  1.00  0.00     0.015 C 
HETATM   20  C3  UNL     1       1.637  41.639  79.867  1.00  0.00     0.015 C 
ENDBRANCH  14  18
ENDBRANCH   1  11
BRANCH   9  21
HETATM   21  C14 UNL     1       8.171  36.733  78.604  1.00  0.00     0.027 C 
BRANCH  21  22
HETATM   22  C15 UNL     1       9.349  36.272  77.805  1.00  0.00     0.006 C 
BRANCH  22  23
HETATM   23  C16 UNL     1       9.245  36.644  76.334  1.00  0.00     0.028 C 
BRANCH  23  24
HETATM   24  C17 UNL     1       7.990  37.466  76.211  1.00  0.00    -0.015 C 
HETATM   25  C18 UNL     1       7.868  38.447  75.352  1.00  0.00     0.080 C 
HETATM   26 CL4  UNL     1       9.119  38.937  74.242  1.00  0.00    -0.097 Cl
ENDBRANCH  23  24
ENDBRANCH  22  23
ENDBRANCH  21  22
ENDBRANCH   9  21
BRANCH   7  27
HETATM   27  C11 UNL     1       7.888  31.065  77.388  1.00  0.00     0.183 C 
BRANCH  27  28
HETATM   28  C12 UNL     1       8.762  30.801  76.215  1.00  0.00     0.204 C 
HETATM   29 CL1  UNL     1      10.488  30.956  76.655  1.00  0.00    -0.082 Cl
HETATM   30 CL2  UNL     1       8.589  29.045  75.748  1.00  0.00    -0.082 Cl
HETATM   31 CL3  UNL     1       8.439  31.709  74.768  1.00  0.00    -0.082 Cl
ENDBRANCH  27  28
ENDBRANCH   7  27
TORSDOF 8
ENDMDL
MODEL 3
REMARK VINA RESULT: -6.616800445      1.129      1.601
REMARK  8 active torsions:
REMARK  status: ('A' for Active; 'I' for Inactive)
REMARK    1  A    between atoms: C2_2  and  C4_4 
REMARK    2  A    between atoms: C7_7  and  N1_8 
REMARK       I    between atoms: N2_11  and  C10_12 
REMARK       I    between atoms: C10_12  and  N3_14 
REMARK    3  A    between atoms: N3_14  and  C11_16 
REMARK    4  A    between atoms: C11_16  and  C12_17 
REMARK    5  A    between atoms: C13_21  and  C14_22 
REMARK    6  A    between atoms: C14_22  and  C15_23 
REMARK    7  A    between atoms: C15_23  and  C16_24 
REMARK    8  A    between atoms: C16_24  and  C17_25 
ROOT
HETATM    1  N1  UNL     1       5.938  37.782  78.296  1.00  0.00    -0.375 N 
HETATM    2  C8  UNL     1       6.833  37.337  79.335  1.00  0.00     0.143 C 
HETATM    3  C9  UNL     1       7.084  35.828  79.178  1.00  0.00     0.148 C 
HETATM    4  N2  UNL     1       7.594  35.665  77.850  1.00  0.00    -0.326 N 
HETATM    5  C10 UNL     1       8.929  35.185  77.599  1.00  0.00     0.318 C 
HETATM    6  O1  UNL     1       9.191  35.104  76.362  1.00  0.00    -0.247 OA
HETATM    7  N3  UNL     1       9.804  34.857  78.626  1.00  0.00    -0.339 N 
ATOM      8  H3  UNL     1       9.452  34.958  79.578  1.00  0.00     0.164 HD
HETATM    9  C13 UNL     1       6.693  36.014  76.757  1.00  0.00     0.106 C 
HETATM   10  C19 UNL     1       6.204  37.405  76.933  1.00  0.00     0.148 C 
ENDROOT
BRANCH   1  11
HETATM   11  C7  UNL     1       4.825  38.577  78.645  1.00  0.00     0.069 A 
HETATM   12  C6  UNL     1       4.739  39.892  78.236  1.00  0.00     0.033 A 
HETATM   13  C5  UNL     1       3.663  40.688  78.565  1.00  0.00     0.010 A 
HETATM   14  C4  UNL     1       2.615  40.207  79.320  1.00  0.00    -0.052 A 
HETATM   15  C21 UNL     1       2.690  38.894  79.734  1.00  0.00     0.052 A 
HETATM   16  C20 UNL     1       3.767  38.096  79.406  1.00  0.00     0.143 A 
HETATM   17  F1  UNL     1       3.856  36.791  79.809  1.00  0.00    -0.204 F 
BRANCH  14  18
HETATM   18  C2  UNL     1       1.457  41.082  79.668  1.00  0.00     0.010 C 
HETATM   19  C1  UNL     1       0.665  40.555  80.829  1.00  0.00     0.015 C 
HETATM   20  C3  UNL     1       1.909  42.485  80.006  1.00  0.00     0.015 C 
ENDBRANCH  14  18
ENDBRANCH   1  11
BRANCH   9  21
HETATM   21  C14 UNL     1       5.671  34.959  76.618  1.00  0.00     0.027 C 
BRANCH  21  22
HETATM   22  C15 UNL     1       6.014  33.842  75.683  1.00  0.00     0.006 C 
BRANCH  22  23
HETATM   23  C16 UNL     1       6.498  32.595  76.407  1.00  0.00     0.028 C 
BRANCH  23  24
HETATM   24  C17 UNL     1       5.759  31.447  75.774  1.00  0.00    -0.015 C 
HETATM   25  C18 UNL     1       4.614  31.004  76.231  1.00  0.00     0.080 C 
HETATM   26 CL4  UNL     1       3.790  31.668  77.616  1.00  0.00    -0.097 Cl
ENDBRANCH  23  24
ENDBRANCH  22  23
ENDBRANCH  21  22
ENDBRANCH   9  21
BRANCH   7  27
HETATM   27  C11 UNL     1      11.137  34.395  78.485  1.00  0.00     0.183 C 
BRANCH  27  28
HETATM   28  C12 UNL     1      11.352  32.931  78.348  1.00  0.00     0.204 C 
HETATM   29 CL1  UNL     1       9.920  32.018  78.908  1.00  0.00    -0.082 Cl
HETATM   30 CL2  UNL     1      11.458  32.525  76.572  1.00  0.00    -0.082 Cl
HETATM   31 CL3  UNL     1      12.790  32.272  79.070  1.00  0.00    -0.082 Cl
ENDBRANCH  27  28
ENDBRANCH   7  27
TORSDOF 8
ENDMDL
MODEL 4
REMARK VINA RESULT: -6.614014348      1.059      1.378
REMARK  8 active torsions:
REMARK  status: ('A' for Active; 'I' for Inactive)
REMARK    1  A    between atoms: C2_2  and  C4_4 
REMARK    2  A    between atoms: C7_7  and  N1_8 
REMARK       I    between atoms: N2_11  and  C10_12 
REMARK       I    between atoms: C10_12  and  N3_14 
REMARK    3  A    between atoms: N3_14  and  C11_16 
REMARK    4  A    between atoms: C11_16  and  C12_17 
REMARK    5  A    between atoms: C13_21  and  C14_22 
REMARK    6  A    between atoms: C14_22  and  C15_23 
REMARK    7  A    between atoms: C15_23  and  C16_24 
REMARK    8  A    between atoms: C16_24  and  C17_25 
ROOT
HETATM    1  N1  UNL     1       5.950  37.600  78.328  1.00  0.00    -0.375 N 
HETATM    2  C8  UNL     1       6.810  37.088  79.366  1.00  0.00     0.143 C 
HETATM    3  C9  UNL     1       7.036  35.582  79.141  1.00  0.00     0.148 C 
HETATM    4  N2  UNL     1       7.575  35.473  77.819  1.00  0.00    -0.326 N 
HETATM    5  C10 UNL     1       8.906  34.979  77.577  1.00  0.00     0.318 C 
HETATM    6  O1  UNL     1       9.198  34.952  76.344  1.00  0.00    -0.247 OA
HETATM    7  N3  UNL     1       9.749  34.583  78.607  1.00  0.00    -0.339 N 
ATOM      8  H3  UNL     1       9.376  34.646  79.555  1.00  0.00     0.164 HD
HETATM    9  C13 UNL     1       6.709  35.894  76.723  1.00  0.00     0.106 C 
HETATM   10  C19 UNL     1       6.243  37.284  76.955  1.00  0.00     0.148 C 
ENDROOT
BRANCH   1  11
HETATM   11  C7  UNL     1       4.845  38.400  78.688  1.00  0.00     0.069 A 
HETATM   12  C6  UNL     1       4.762  39.717  78.283  1.00  0.00     0.033 A 
HETATM   13  C5  UNL     1       3.693  40.517  78.623  1.00  0.00     0.010 A 
HETATM   14  C4  UNL     1       2.649  40.041  79.387  1.00  0.00    -0.052 A 
HETATM   15  C21 UNL     1       2.721  38.727  79.797  1.00  0.00     0.052 A 
HETATM   16  C20 UNL     1       3.791  37.924  79.458  1.00  0.00     0.143 A 
HETATM   17  F1  UNL     1       3.876  36.617  79.858  1.00  0.00    -0.204 F 
BRANCH  14  18
HETATM   18  C2  UNL     1       1.499  40.921  79.746  1.00  0.00     0.010 C 
HETATM   19  C1  UNL     1       0.847  40.519  81.037  1.00  0.00     0.015 C 
HETATM   20  C3  UNL     1       1.928  42.366  79.867  1.00  0.00     0.015 C 
ENDBRANCH  14  18
ENDBRANCH   1  11
BRANCH   9  21
HETATM   21  C14 UNL     1       5.670  34.867  76.509  1.00  0.00     0.027 C 
BRANCH  21  22
HETATM   22  C15 UNL     1       6.028  33.771  75.556  1.00  0.00     0.006 C 
BRANCH  22  23
HETATM   23  C16 UNL     1       6.316  32.452  76.257  1.00  0.00     0.028 C 
BRANCH  23  24
HETATM   24  C17 UNL     1       5.230  32.294  77.287  1.00  0.00    -0.015 C 
HETATM   25  C18 UNL     1       4.291  31.386  77.191  1.00  0.00     0.080 C 
HETATM   26 CL4  UNL     1       4.163  30.244  75.880  1.00  0.00    -0.097 Cl
ENDBRANCH  23  24
ENDBRANCH  22  23
ENDBRANCH  21  22
ENDBRANCH   9  21
BRANCH   7  27
HETATM   27  C11 UNL     1      11.076  34.102  78.477  1.00  0.00     0.183 C 
BRANCH  27  28
HETATM   28  C12 UNL     1      11.261  32.685  78.066  1.00  0.00     0.204 C 
HETATM   29 CL1  UNL     1      11.593  32.565  76.313  1.00  0.00    -0.082 Cl
HETATM   30 CL2  UNL     1      12.786  32.051  78.841  1.00  0.00    -0.082 Cl
HETATM   31 CL3  UNL     1      10.006  31.565  78.505  1.00  0.00    -0.082 Cl
ENDBRANCH  27  28
ENDBRANCH   7  27
TORSDOF 8
ENDMDL
MODEL 5
REMARK VINA RESULT: -6.553160110      5.315     10.933
REMARK  8 active torsions:
REMARK  status: ('A' for Active; 'I' for Inactive)
REMARK    1  A    between atoms: C2_2  and  C4_4 
REMARK    2  A    between atoms: C7_7  and  N1_8 
REMARK       I    between atoms: N2_11  and  C10_12 
REMARK       I    between atoms: C10_12  and  N3_14 
REMARK    3  A    between atoms: N3_14  and  C11_16 
REMARK    4  A    between atoms: C11_16  and  C12_17 
REMARK    5  A    between atoms: C13_21  and  C14_22 
REMARK    6  A    between atoms: C14_22  and  C15_23 
REMARK    7  A    between atoms: C15_23  and  C16_24 
REMARK    8  A    between atoms: C16_24  and  C17_25 
ROOT
HETATM    1  N1  UNL     1      12.314  30.333  76.673  1.00  0.00    -0.375 N 
HETATM    2  C8  UNL     1      12.667  31.459  77.501  1.00  0.00     0.143 C 
HETATM    3  C9  UNL     1      11.714  32.629  77.201  1.00  0.00     0.148 C 
HETATM    4  N2  UNL     1      10.398  32.114  77.433  1.00  0.00    -0.326 N 
HETATM    5  C10 UNL     1       9.551  32.631  78.476  1.00  0.00     0.318 C 
HETATM    6  O1  UNL     1       8.424  32.052  78.518  1.00  0.00    -0.247 OA
HETATM    7  N3  UNL     1       9.957  33.654  79.324  1.00  0.00    -0.339 N 
ATOM      8  H3  UNL     1      10.889  34.038  79.165  1.00  0.00     0.164 HD
HETATM    9  C13 UNL     1       9.957  31.032  76.559  1.00  0.00     0.106 C 
HETATM   10  C19 UNL     1      10.938  29.920  76.601  1.00  0.00     0.148 C 
ENDROOT
BRANCH   1  11
HETATM   11  C7  UNL     1      13.331  29.665  75.957  1.00  0.00     0.069 A 
HETATM   12  C6  UNL     1      14.567  29.439  76.527  1.00  0.00     0.033 A 
HETATM   13  C5  UNL     1      15.575  28.790  75.848  1.00  0.00     0.010 A 
HETATM   14  C4  UNL     1      15.397  28.332  74.560  1.00  0.00    -0.052 A 
HETATM   15  C21 UNL     1      14.166  28.552  73.980  1.00  0.00     0.052 A 
HETATM   16  C20 UNL     1      13.156  29.202  74.659  1.00  0.00     0.143 A 
HETATM   17  F1  UNL     1      11.929  29.427  74.096  1.00  0.00    -0.204 F 
BRANCH  14  18
HETATM   18  C2  UNL     1      16.499  27.630  73.837  1.00  0.00     0.010 C 
HETATM   19  C1  UNL     1      16.116  26.244  73.409  1.00  0.00     0.015 C 
HETATM   20  C3  UNL     1      16.928  28.399  72.608  1.00  0.00     0.015 C 
ENDBRANCH  14  18
ENDBRANCH   1  11
BRANCH   9  21
HETATM   21  C14 UNL     1       9.631  31.587  75.231  1.00  0.00     0.027 C 
BRANCH  21  22
HETATM   22  C15 UNL     1       8.187  31.901  74.995  1.00  0.00     0.006 C 
BRANCH  22  23
HETATM   23  C16 UNL     1       7.864  33.373  75.194  1.00  0.00     0.028 C 
BRANCH  23  24
HETATM   24  C17 UNL     1       6.432  33.416  75.657  1.00  0.00    -0.015 C 
HETATM   25  C18 UNL     1       5.827  34.531  75.985  1.00  0.00     0.080 C 
HETATM   26 CL4  UNL     1       6.577  36.103  75.933  1.00  0.00    -0.097 Cl
ENDBRANCH  23  24
ENDBRANCH  22  23
ENDBRANCH  21  22
ENDBRANCH   9  21
BRANCH   7  27
HETATM   27  C11 UNL     1       9.209  34.218  80.387  1.00  0.00     0.183 C 
BRANCH  27  28
HETATM   28  C12 UNL     1       8.613  35.563  80.177  1.00  0.00     0.204 C 
HETATM   29 CL1  UNL     1       9.569  36.511  79.000  1.00  0.00    -0.082 Cl
HETATM   30 CL2  UNL     1       6.995  35.359  79.357  1.00  0.00    -0.082 Cl
HETATM   31 CL3  UNL     1       8.307  36.522  81.594  1.00  0.00    -0.082 Cl
ENDBRANCH  27  28
ENDBRANCH   7  27
TORSDOF 8
ENDMDL
