MODEL 1
REMARK VINA RESULT: -8.276460293      0.000      0.000
REMARK  11 active torsions:
REMARK  status: ('A' for Active; 'I' for Inactive)
REMARK    1  A    between atoms: S1_2  and  C2_3 
REMARK    2  A    between atoms: N1_6  and  C5_7 
REMARK    3  A    between atoms: C5_7  and  O1_8 
REMARK    4  A    between atoms: C5_7  and  C6_10 
REMARK    5  A    between atoms: C6_10  and  C7_11 
REMARK    6  A    between atoms: C6_10  and  N3_23 
REMARK    7  A    between atoms: C7_11  and  C8_12 
REMARK    8  A    between atoms: C8_12  and  C9_13 
REMARK       I    between atoms: C9_13  and  N2_15 
REMARK    9  A    between atoms: N2_15  and  C10_17 
REMARK   10  A    between atoms: N3_23  and  N4_24 
REMARK   11  A    between atoms: N4_24  and  C15_26 
ROOT
HETATM    1  C6  UNL     1      40.253  42.751  35.059  1.00  0.00     0.159 C 
ENDROOT
BRANCH   1   2
HETATM    2  C5  UNL     1      41.251  42.050  35.858  1.00  0.00     0.177 C 
BRANCH   2   3
HETATM    3  N1  UNL     1      41.212  40.920  36.632  1.00  0.00    -0.359 N 
HETATM    4  C4  UNL     1      41.088  40.806  38.041  1.00  0.00     0.126 C 
HETATM    5  C3  UNL     1      40.820  39.367  38.510  1.00  0.00     0.035 C 
HETATM    6  C2  UNL     1      39.826  38.645  37.653  1.00  0.00     0.050 C 
HETATM    7  C22 UNL     1      40.082  38.808  36.176  1.00  0.00     0.035 C 
HETATM    8  C21 UNL     1      41.334  39.600  35.931  1.00  0.00     0.126 C 
BRANCH   6   9
HETATM    9  S1  UNL     1      39.816  36.885  38.130  1.00  0.00    -0.169 SA
HETATM   10  C1  UNL     1      38.375  36.572  39.200  1.00  0.00     0.090 C 
ENDBRANCH   6   9
ENDBRANCH   2   3
BRANCH   2  11
HETATM   11  O1  UNL     1      42.428  42.656  35.781  1.00  0.00    -0.344 OA
ATOM     12  H1  UNL     1      42.721  43.091  36.574  1.00  0.00     0.219 HD
ENDBRANCH   2  11
ENDBRANCH   1   2
BRANCH   1  13
HETATM   13  C7  UNL     1      38.896  42.194  34.819  1.00  0.00     0.089 C 
BRANCH  13  14
HETATM   14  C8  UNL     1      38.704  41.224  33.738  1.00  0.00     0.110 C 
BRANCH  14  15
HETATM   15  C9  UNL     1      37.420  40.497  33.785  1.00  0.00     0.218 C 
HETATM   16  O2  UNL     1      36.913  40.134  34.847  1.00  0.00    -0.274 OA
HETATM   17  N2  UNL     1      36.729  40.207  32.526  1.00  0.00    -0.356 N 
ATOM     18  H2  UNL     1      37.121  40.498  31.631  1.00  0.00     0.162 HD
BRANCH  17  19
HETATM   19  C10 UNL     1      35.489  39.505  32.594  1.00  0.00     0.088 C 
HETATM   20  C11 UNL     1      34.382  40.539  32.952  1.00  0.00     0.051 C 
HETATM   21  C12 UNL     1      33.102  39.734  33.059  1.00  0.00     0.169 C 
HETATM   22  O3  UNL     1      32.711  39.223  31.838  1.00  0.00    -0.391 OA
HETATM   23  C13 UNL     1      33.688  39.358  30.861  1.00  0.00     0.169 C 
HETATM   24  C14 UNL     1      35.041  38.850  31.320  1.00  0.00     0.051 C 
ENDBRANCH  17  19
ENDBRANCH  14  15
ENDBRANCH  13  14
ENDBRANCH   1  13
BRANCH   1  25
HETATM   25  N3  UNL     1      40.537  43.849  34.647  1.00  0.00    -0.326 NA
BRANCH  25  26
HETATM   26  N4  UNL     1      40.817  45.008  34.219  1.00  0.00    -0.236 N 
ATOM     27  H4  UNL     1      41.786  45.323  34.261  1.00  0.00     0.202 HD
BRANCH  26  28
HETATM   28  C15 UNL     1      39.813  45.910  33.672  1.00  0.00     0.062 A 
HETATM   29  C16 UNL     1      39.458  45.749  32.370  1.00  0.00     0.032 A 
HETATM   30  C17 UNL     1      38.520  46.597  31.841  1.00  0.00     0.004 A 
HETATM   31  C18 UNL     1      37.959  47.592  32.647  1.00  0.00     0.024 A 
HETATM   32  C19 UNL     1      38.329  47.742  33.959  1.00  0.00     0.036 A 
HETATM   33 CL1  UNL     1      37.668  48.968  34.999  1.00  0.00    -0.084 Cl
HETATM   34  C20 UNL     1      39.265  46.888  34.471  1.00  0.00     0.055 A 
ENDBRANCH  26  28
ENDBRANCH  25  26
ENDBRANCH   1  25
TORSDOF 11
ENDMDL
MODEL 2
REMARK VINA RESULT: -8.224748192      1.548      1.747
REMARK  11 active torsions:
REMARK  status: ('A' for Active; 'I' for Inactive)
REMARK    1  A    between atoms: S1_2  and  C2_3 
REMARK    2  A    between atoms: N1_6  and  C5_7 
REMARK    3  A    between atoms: C5_7  and  O1_8 
REMARK    4  A    between atoms: C5_7  and  C6_10 
REMARK    5  A    between atoms: C6_10  and  C7_11 
REMARK    6  A    between atoms: C6_10  and  N3_23 
REMARK    7  A    between atoms: C7_11  and  C8_12 
REMARK    8  A    between atoms: C8_12  and  C9_13 
REMARK       I    between atoms: C9_13  and  N2_15 
REMARK    9  A    between atoms: N2_15  and  C10_17 
REMARK   10  A    between atoms: N3_23  and  N4_24 
REMARK   11  A    between atoms: N4_24  and  C15_26 
ROOT
HETATM    1  C6  UNL     1      40.019  42.294  35.225  1.00  0.00     0.159 C 
ENDROOT
BRANCH   1   2
HETATM    2  C5  UNL     1      41.215  41.820  35.912  1.00  0.00     0.177 C 
BRANCH   2   3
HETATM    3  N1  UNL     1      41.502  40.690  36.631  1.00  0.00    -0.359 N 
HETATM    4  C4  UNL     1      41.533  40.508  38.037  1.00  0.00     0.126 C 
HETATM    5  C3  UNL     1      41.641  39.032  38.454  1.00  0.00     0.035 C 
HETATM    6  C2  UNL     1      40.764  38.127  37.644  1.00  0.00     0.050 C 
HETATM    7  C22 UNL     1      40.846  38.389  36.161  1.00  0.00     0.035 C 
HETATM    8  C21 UNL     1      41.858  39.455  35.857  1.00  0.00     0.126 C 
BRANCH   6   9
HETATM    9  S1  UNL     1      41.196  36.398  38.032  1.00  0.00    -0.169 SA
HETATM   10  C1  UNL     1      39.662  35.453  38.299  1.00  0.00     0.090 C 
ENDBRANCH   6   9
ENDBRANCH   2   3
BRANCH   2  11
HETATM   11  O1  UNL     1      42.211  42.688  35.780  1.00  0.00    -0.344 OA
ATOM     12  H1  UNL     1      41.957  43.603  35.727  1.00  0.00     0.219 HD
ENDBRANCH   2  11
ENDBRANCH   1   2
BRANCH   1  13
HETATM   13  C7  UNL     1      38.791  41.464  35.110  1.00  0.00     0.089 C 
BRANCH  13  14
HETATM   14  C8  UNL     1      38.377  40.981  33.790  1.00  0.00     0.110 C 
BRANCH  14  15
HETATM   15  C9  UNL     1      37.039  40.359  33.756  1.00  0.00     0.218 C 
HETATM   16  O2  UNL     1      36.379  40.171  34.779  1.00  0.00    -0.274 OA
HETATM   17  N2  UNL     1      36.482  39.958  32.462  1.00  0.00    -0.356 N 
ATOM     18  H2  UNL     1      37.003  40.104  31.597  1.00  0.00     0.162 HD
BRANCH  17  19
HETATM   19  C10 UNL     1      35.188  39.359  32.451  1.00  0.00     0.088 C 
HETATM   20  C11 UNL     1      34.155  40.463  32.820  1.00  0.00     0.051 C 
HETATM   21  C12 UNL     1      32.811  39.764  32.842  1.00  0.00     0.169 C 
HETATM   22  O3  UNL     1      32.428  39.345  31.584  1.00  0.00    -0.391 OA
HETATM   23  C13 UNL     1      33.450  39.443  30.650  1.00  0.00     0.169 C 
HETATM   24  C14 UNL     1      34.738  38.804  31.131  1.00  0.00     0.051 C 
ENDBRANCH  17  19
ENDBRANCH  14  15
ENDBRANCH  13  14
ENDBRANCH   1  13
BRANCH   1  25
HETATM   25  N3  UNL     1      40.028  43.424  34.802  1.00  0.00    -0.326 NA
BRANCH  25  26
HETATM   26  N4  UNL     1      40.044  44.603  34.341  1.00  0.00    -0.236 N 
ATOM     27  H4  UNL     1      40.730  45.262  34.709  1.00  0.00     0.202 HD
BRANCH  26  28
HETATM   28  C15 UNL     1      39.126  45.058  33.306  1.00  0.00     0.062 A 
HETATM   29  C16 UNL     1      39.184  46.365  32.935  1.00  0.00     0.032 A 
HETATM   30  C17 UNL     1      38.319  46.806  31.968  1.00  0.00     0.004 A 
HETATM   31  C18 UNL     1      37.412  45.910  31.394  1.00  0.00     0.024 A 
HETATM   32  C19 UNL     1      37.366  44.595  31.779  1.00  0.00     0.036 A 
HETATM   33 CL1  UNL     1      36.253  43.444  31.103  1.00  0.00    -0.084 Cl
HETATM   34  C20 UNL     1      38.235  44.171  32.745  1.00  0.00     0.055 A 
ENDBRANCH  26  28
ENDBRANCH  25  26
ENDBRANCH   1  25
TORSDOF 11
ENDMDL
MODEL 3
REMARK VINA RESULT: -8.104809637      2.724      5.671
REMARK  11 active torsions:
REMARK  status: ('A' for Active; 'I' for Inactive)
REMARK    1  A    between atoms: S1_2  and  C2_3 
REMARK    2  A    between atoms: N1_6  and  C5_7 
REMARK    3  A    between atoms: C5_7  and  O1_8 
REMARK    4  A    between atoms: C5_7  and  C6_10 
REMARK    5  A    between atoms: C6_10  and  C7_11 
REMARK    6  A    between atoms: C6_10  and  N3_23 
REMARK    7  A    between atoms: C7_11  and  C8_12 
REMARK    8  A    between atoms: C8_12  and  C9_13 
REMARK       I    between atoms: C9_13  and  N2_15 
REMARK    9  A    between atoms: N2_15  and  C10_17 
REMARK   10  A    between atoms: N3_23  and  N4_24 
REMARK   11  A    between atoms: N4_24  and  C15_26 
ROOT
HETATM    1  C6  UNL     1      39.430  42.530  35.233  1.00  0.00     0.159 C 
ENDROOT
BRANCH   1   2
HETATM    2  C5  UNL     1      38.829  41.588  34.296  1.00  0.00     0.177 C 
BRANCH   2   3
HETATM    3  N1  UNL     1      37.613  41.535  33.666  1.00  0.00    -0.359 N 
HETATM    4  C4  UNL     1      37.171  42.238  32.517  1.00  0.00     0.126 C 
HETATM    5  C3  UNL     1      35.836  41.714  31.962  1.00  0.00     0.035 C 
HETATM    6  C2  UNL     1      35.752  40.219  31.951  1.00  0.00     0.050 C 
HETATM    7  C22 UNL     1      36.212  39.586  33.240  1.00  0.00     0.035 C 
HETATM    8  C21 UNL     1      36.572  40.632  34.255  1.00  0.00     0.126 C 
BRANCH   6   9
HETATM    9  S1  UNL     1      34.038  39.736  31.555  1.00  0.00    -0.169 SA
HETATM   10  C1  UNL     1      33.051  39.760  33.086  1.00  0.00     0.090 C 
ENDBRANCH   6   9
ENDBRANCH   2   3
BRANCH   2  11
HETATM   11  O1  UNL     1      39.669  40.601  34.013  1.00  0.00    -0.344 OA
ATOM     12  H1  UNL     1      39.269  39.773  33.775  1.00  0.00     0.219 HD
ENDBRANCH   2  11
ENDBRANCH   1   2
BRANCH   1  13
HETATM   13  C7  UNL     1      39.531  42.243  36.689  1.00  0.00     0.089 C 
BRANCH  13  14
HETATM   14  C8  UNL     1      38.733  41.154  37.259  1.00  0.00     0.110 C 
BRANCH  14  15
HETATM   15  C9  UNL     1      39.511  39.962  37.649  1.00  0.00     0.218 C 
HETATM   16  O2  UNL     1      39.942  39.809  38.792  1.00  0.00    -0.274 OA
HETATM   17  N2  UNL     1      39.770  38.931  36.642  1.00  0.00    -0.356 N 
ATOM     18  H2  UNL     1      39.423  39.027  35.688  1.00  0.00     0.162 HD
BRANCH  17  19
HETATM   19  C10 UNL     1      40.522  37.786  37.040  1.00  0.00     0.088 C 
HETATM   20  C11 UNL     1      39.538  36.585  37.133  1.00  0.00     0.051 C 
HETATM   21  C12 UNL     1      40.377  35.414  37.605  1.00  0.00     0.169 C 
HETATM   22  O3  UNL     1      41.300  35.026  36.655  1.00  0.00    -0.391 OA
HETATM   23  C13 UNL     1      41.408  35.932  35.608  1.00  0.00     0.169 C 
HETATM   24  C14 UNL     1      41.604  37.356  36.092  1.00  0.00     0.051 C 
ENDBRANCH  17  19
ENDBRANCH  14  15
ENDBRANCH  13  14
ENDBRANCH   1  13
BRANCH   1  25
HETATM   25  N3  UNL     1      39.916  43.537  34.780  1.00  0.00    -0.326 NA
BRANCH  25  26
HETATM   26  N4  UNL     1      40.417  44.606  34.321  1.00  0.00    -0.236 N 
ATOM     27  H4  UNL     1      41.429  44.730  34.368  1.00  0.00     0.202 HD
BRANCH  26  28
HETATM   28  C15 UNL     1      39.612  45.665  33.729  1.00  0.00     0.062 A 
HETATM   29  C16 UNL     1      39.231  45.523  32.432  1.00  0.00     0.032 A 
HETATM   30  C17 UNL     1      38.479  46.517  31.861  1.00  0.00     0.004 A 
HETATM   31  C18 UNL     1      38.127  47.636  32.622  1.00  0.00     0.024 A 
HETATM   32  C19 UNL     1      38.519  47.764  33.929  1.00  0.00     0.036 A 
HETATM   33 CL1  UNL     1      38.114  49.138  34.914  1.00  0.00    -0.084 Cl
HETATM   34  C20 UNL     1      39.268  46.764  34.483  1.00  0.00     0.055 A 
ENDBRANCH  26  28
ENDBRANCH  25  26
ENDBRANCH   1  25
TORSDOF 11
ENDMDL
MODEL 4
REMARK VINA RESULT: -8.086695991      1.085      1.149
REMARK  11 active torsions:
REMARK  status: ('A' for Active; 'I' for Inactive)
REMARK    1  A    between atoms: S1_2  and  C2_3 
REMARK    2  A    between atoms: N1_6  and  C5_7 
REMARK    3  A    between atoms: C5_7  and  O1_8 
REMARK    4  A    between atoms: C5_7  and  C6_10 
REMARK    5  A    between atoms: C6_10  and  C7_11 
REMARK    6  A    between atoms: C6_10  and  N3_23 
REMARK    7  A    between atoms: C7_11  and  C8_12 
REMARK    8  A    between atoms: C8_12  and  C9_13 
REMARK       I    between atoms: C9_13  and  N2_15 
REMARK    9  A    between atoms: N2_15  and  C10_17 
REMARK   10  A    between atoms: N3_23  and  N4_24 
REMARK   11  A    between atoms: N4_24  and  C15_26 
ROOT
HETATM    1  C6  UNL     1      39.740  42.355  35.145  1.00  0.00     0.159 C 
ENDROOT
BRANCH   1   2
HETATM    2  C5  UNL     1      39.797  41.951  36.545  1.00  0.00     0.177 C 
BRANCH   2   3
HETATM    3  N1  UNL     1      39.950  40.741  37.170  1.00  0.00    -0.359 N 
HETATM    4  C4  UNL     1      39.068  40.077  38.060  1.00  0.00     0.126 C 
HETATM    5  C3  UNL     1      39.477  38.622  38.343  1.00  0.00     0.035 C 
HETATM    6  C2  UNL     1      39.928  37.889  37.117  1.00  0.00     0.050 C 
HETATM    7  C22 UNL     1      40.892  38.680  36.271  1.00  0.00     0.035 C 
HETATM    8  C21 UNL     1      41.225  39.994  36.918  1.00  0.00     0.126 C 
BRANCH   6   9
HETATM    9  S1  UNL     1      40.652  36.294  37.626  1.00  0.00    -0.169 SA
HETATM   10  C1  UNL     1      39.304  35.118  37.970  1.00  0.00     0.090 C 
ENDBRANCH   6   9
ENDBRANCH   2   3
BRANCH   2  11
HETATM   11  O1  UNL     1      39.686  43.004  37.346  1.00  0.00    -0.344 OA
ATOM     12  H1  UNL     1      39.685  43.851  36.915  1.00  0.00     0.219 HD
ENDBRANCH   2  11
ENDBRANCH   1   2
BRANCH   1  13
HETATM   13  C7  UNL     1      39.112  41.504  34.101  1.00  0.00     0.089 C 
BRANCH  13  14
HETATM   14  C8  UNL     1      37.850  41.935  33.493  1.00  0.00     0.110 C 
BRANCH  14  15
HETATM   15  C9  UNL     1      36.744  40.965  33.619  1.00  0.00     0.218 C 
HETATM   16  O2  UNL     1      36.578  40.292  34.636  1.00  0.00    -0.274 OA
HETATM   17  N2  UNL     1      35.816  40.807  32.496  1.00  0.00    -0.356 N 
ATOM     18  H2  UNL     1      35.925  41.352  31.642  1.00  0.00     0.162 HD
BRANCH  17  19
HETATM   19  C10 UNL     1      34.754  39.865  32.639  1.00  0.00     0.088 C 
HETATM   20  C11 UNL     1      33.531  40.621  33.234  1.00  0.00     0.051 C 
HETATM   21  C12 UNL     1      32.456  39.568  33.409  1.00  0.00     0.169 C 
HETATM   22  O3  UNL     1      32.003  39.087  32.197  1.00  0.00    -0.391 OA
HETATM   23  C13 UNL     1      32.792  39.493  31.129  1.00  0.00     0.169 C 
HETATM   24  C14 UNL     1      34.267  39.235  31.367  1.00  0.00     0.051 C 
ENDBRANCH  17  19
ENDBRANCH  14  15
ENDBRANCH  13  14
ENDBRANCH   1  13
BRANCH   1  25
HETATM   25  N3  UNL     1      40.163  43.449  34.861  1.00  0.00    -0.326 NA
BRANCH  25  26
HETATM   26  N4  UNL     1      40.608  44.602  34.583  1.00  0.00    -0.236 N 
ATOM     27  H4  UNL     1      41.576  44.821  34.817  1.00  0.00     0.202 HD
BRANCH  26  28
HETATM   28  C15 UNL     1      39.796  45.628  33.945  1.00  0.00     0.062 A 
HETATM   29  C16 UNL     1      39.471  45.457  32.636  1.00  0.00     0.032 A 
HETATM   30  C17 UNL     1      38.713  46.420  32.021  1.00  0.00     0.004 A 
HETATM   31  C18 UNL     1      38.299  47.539  32.751  1.00  0.00     0.024 A 
HETATM   32  C19 UNL     1      38.636  47.697  34.070  1.00  0.00     0.036 A 
HETATM   33 CL1  UNL     1      38.153  49.072  35.016  1.00  0.00    -0.084 Cl
HETATM   34  C20 UNL     1      39.391  46.727  34.668  1.00  0.00     0.055 A 
ENDBRANCH  26  28
ENDBRANCH  25  26
ENDBRANCH   1  25
TORSDOF 11
ENDMDL
MODEL 5
REMARK VINA RESULT: -8.077611194      1.317      1.711
REMARK  11 active torsions:
REMARK  status: ('A' for Active; 'I' for Inactive)
REMARK    1  A    between atoms: S1_2  and  C2_3 
REMARK    2  A    between atoms: N1_6  and  C5_7 
REMARK    3  A    between atoms: C5_7  and  O1_8 
REMARK    4  A    between atoms: C5_7  and  C6_10 
REMARK    5  A    between atoms: C6_10  and  C7_11 
REMARK    6  A    between atoms: C6_10  and  N3_23 
REMARK    7  A    between atoms: C7_11  and  C8_12 
REMARK    8  A    between atoms: C8_12  and  C9_13 
REMARK       I    between atoms: C9_13  and  N2_15 
REMARK    9  A    between atoms: N2_15  and  C10_17 
REMARK   10  A    between atoms: N3_23  and  N4_24 
REMARK   11  A    between atoms: N4_24  and  C15_26 
ROOT
HETATM    1  C6  UNL     1      40.687  41.699  35.367  1.00  0.00     0.159 C 
ENDROOT
BRANCH   1   2
HETATM    2  C5  UNL     1      41.083  41.144  36.656  1.00  0.00     0.177 C 
BRANCH   2   3
HETATM    3  N1  UNL     1      40.795  39.972  37.305  1.00  0.00    -0.359 N 
HETATM    4  C4  UNL     1      39.742  39.688  38.211  1.00  0.00     0.126 C 
HETATM    5  C3  UNL     1      39.599  38.189  38.522  1.00  0.00     0.035 C 
HETATM    6  C2  UNL     1      39.740  37.321  37.310  1.00  0.00     0.050 C 
HETATM    7  C22 UNL     1      40.917  37.694  36.444  1.00  0.00     0.035 C 
HETATM    8  C21 UNL     1      41.710  38.809  37.063  1.00  0.00     0.126 C 
BRANCH   6   9
HETATM    9  S1  UNL     1      39.843  35.582  37.849  1.00  0.00    -0.169 SA
HETATM   10  C1  UNL     1      38.203  34.811  37.669  1.00  0.00     0.090 C 
ENDBRANCH   6   9
ENDBRANCH   2   3
BRANCH   2  11
HETATM   11  O1  UNL     1      41.902  41.971  37.294  1.00  0.00    -0.344 OA
ATOM     12  H1  UNL     1      41.533  42.415  38.049  1.00  0.00     0.219 HD
ENDBRANCH   2  11
ENDBRANCH   1   2
BRANCH   1  13
HETATM   13  C7  UNL     1      39.772  40.979  34.442  1.00  0.00     0.089 C 
BRANCH  13  14
HETATM   14  C8  UNL     1      38.550  41.645  33.985  1.00  0.00     0.110 C 
BRANCH  14  15
HETATM   15  C9  UNL     1      37.343  40.795  34.006  1.00  0.00     0.218 C 
HETATM   16  O2  UNL     1      36.929  40.273  35.041  1.00  0.00    -0.274 OA
HETATM   17  N2  UNL     1      36.616  40.575  32.753  1.00  0.00    -0.356 N 
ATOM     18  H2  UNL     1      36.932  40.997  31.880  1.00  0.00     0.162 HD
BRANCH  17  19
HETATM   19  C10 UNL     1      35.452  39.752  32.795  1.00  0.00     0.088 C 
HETATM   20  C11 UNL     1      34.229  40.680  33.048  1.00  0.00     0.051 C 
HETATM   21  C12 UNL     1      33.033  39.752  33.132  1.00  0.00     0.169 C 
HETATM   22  O3  UNL     1      32.761  39.151  31.920  1.00  0.00    -0.391 OA
HETATM   23  C13 UNL     1      33.769  39.344  30.986  1.00  0.00     0.169 C 
HETATM   24  C14 UNL     1      35.141  38.999  31.534  1.00  0.00     0.051 C 
ENDBRANCH  17  19
ENDBRANCH  14  15
ENDBRANCH  13  14
ENDBRANCH   1  13
BRANCH   1  25
HETATM   25  N3  UNL     1      41.073  42.809  35.094  1.00  0.00    -0.326 NA
BRANCH  25  26
HETATM   26  N4  UNL     1      41.492  43.973  34.822  1.00  0.00    -0.236 N 
ATOM     27  H4  UNL     1      42.498  44.123  34.744  1.00  0.00     0.202 HD
BRANCH  26  28
HETATM   28  C15 UNL     1      40.600  45.105  34.616  1.00  0.00     0.062 A 
HETATM   29  C16 UNL     1      40.336  45.907  35.681  1.00  0.00     0.032 A 
HETATM   30  C17 UNL     1      39.491  46.971  35.501  1.00  0.00     0.004 A 
HETATM   31  C18 UNL     1      38.931  47.201  34.240  1.00  0.00     0.024 A 
HETATM   32  C19 UNL     1      39.207  46.382  33.176  1.00  0.00     0.036 A 
HETATM   33 CL1  UNL     1      38.531  46.619  31.593  1.00  0.00    -0.084 Cl
HETATM   34  C20 UNL     1      40.052  45.325  33.372  1.00  0.00     0.055 A 
ENDBRANCH  26  28
ENDBRANCH  25  26
ENDBRANCH   1  25
TORSDOF 11
ENDMDL
