MODEL 1
REMARK VINA RESULT: -8.438044968      0.000      0.000
REMARK  12 active torsions:
REMARK  status: ('A' for Active; 'I' for Inactive)
REMARK    1  A    between atoms: O1_2  and  C2_3 
REMARK    2  A    between atoms: C7_8  and  C8_9 
REMARK    3  A    between atoms: C8_9  and  O3_11 
REMARK    4  A    between atoms: O3_11  and  C9_12 
REMARK    5  A    between atoms: C9_12  and  C10_13 
REMARK    6  A    between atoms: C10_13  and  N2_20 
REMARK    7  A    between atoms: N1_14  and  C11_16 
REMARK    8  A    between atoms: N2_20  and  C14_22 
REMARK    9  A    between atoms: C14_22  and  C15_23 
REMARK   10  A    between atoms: C15_23  and  O4_24 
REMARK   11  A    between atoms: C15_23  and  C16_26 
REMARK   12  A    between atoms: C16_26  and  N3_27 
ROOT
HETATM    1  C10 UNL     1      39.515  40.260  37.975  1.00  0.00     0.099 C 
HETATM    2  N1  UNL     1      40.694  40.614  38.191  1.00  0.00    -0.356 N 
ATOM      3  H1  UNL     1      41.208  39.905  38.713  1.00  0.00     0.162 HD
ENDROOT
BRANCH   1   4
HETATM    4  C9  UNL     1      38.514  41.066  37.237  1.00  0.00     0.255 C 
BRANCH   4   5
HETATM    5  O3  UNL     1      38.008  40.414  36.115  1.00  0.00    -0.310 OA
BRANCH   5   6
HETATM    6  C8  UNL     1      38.436  40.463  34.823  1.00  0.00     0.294 C 
HETATM    7  O2  UNL     1      39.511  39.838  34.563  1.00  0.00    -0.259 OA
BRANCH   6   8
HETATM    8  C7  UNL     1      37.755  41.168  33.750  1.00  0.00     0.048 A 
HETATM    9  C5  UNL     1      38.044  42.465  33.464  1.00  0.00    -0.046 A 
HETATM   10  C4  UNL     1      37.359  43.095  32.417  1.00  0.00     0.010 A 
HETATM   11  C6  UNL     1      39.053  43.236  34.225  1.00  0.00     0.049 C 
HETATM   12  C3  UNL     1      36.403  42.452  31.665  1.00  0.00     0.037 A 
HETATM   13  C2  UNL     1      36.121  41.138  31.966  1.00  0.00     0.069 A 
HETATM   14  C23 UNL     1      36.802  40.508  33.008  1.00  0.00     0.054 A 
BRANCH  13  15
HETATM   15  O1  UNL     1      35.163  40.454  31.230  1.00  0.00    -0.356 OA
HETATM   16  C1  UNL     1      34.784  39.148  31.619  1.00  0.00     0.210 C 
ENDBRANCH  13  15
ENDBRANCH   6   8
ENDBRANCH   5   6
ENDBRANCH   4   5
ENDBRANCH   1   4
BRANCH   1  17
HETATM   17  N2  UNL     1      39.104  38.980  38.517  1.00  0.00    -0.376 N 
ATOM     18  H2  UNL     1      38.344  38.969  39.198  1.00  0.00     0.160 HD
BRANCH  17  19
HETATM   19  C14 UNL     1      39.697  37.735  38.158  1.00  0.00     0.154 C 
BRANCH  19  20
HETATM   20  C15 UNL     1      38.916  36.516  38.634  1.00  0.00     0.153 C 
BRANCH  20  21
HETATM   21  O4  UNL     1      38.515  36.683  39.934  1.00  0.00    -0.392 OA
ATOM     22  H4  UNL     1      39.013  36.114  40.510  1.00  0.00     0.210 HD
ENDBRANCH  20  21
BRANCH  20  23
HETATM   23  C16 UNL     1      39.743  35.307  38.359  1.00  0.00     0.150 C 
BRANCH  23  24
HETATM   24  N3  UNL     1      39.954  35.008  36.984  1.00  0.00    -0.410 N 
HETATM   25  C17 UNL     1      41.282  34.671  36.610  1.00  0.00     0.117 C 
HETATM   26  C18 UNL     1      41.381  34.843  35.088  1.00  0.00     0.019 C 
HETATM   27  C19 UNL     1      41.315  33.490  34.415  1.00  0.00     0.002 C 
HETATM   28  C20 UNL     1      39.986  32.825  34.553  1.00  0.00     0.002 C 
HETATM   29  C21 UNL     1      39.437  32.826  35.948  1.00  0.00     0.019 C 
HETATM   30  C22 UNL     1      38.940  34.180  36.391  1.00  0.00     0.117 C 
ENDBRANCH  23  24
ENDBRANCH  20  23
ENDBRANCH  19  20
ENDBRANCH  17  19
ENDBRANCH   1  17
BRANCH   2  31
HETATM   31  C11 UNL     1      41.498  41.728  37.905  1.00  0.00     0.101 C 
HETATM   32  C12 UNL     1      41.797  41.966  36.446  1.00  0.00     0.056 C 
HETATM   33  C13 UNL     1      42.817  41.628  38.648  1.00  0.00     0.056 C 
HETATM   34 CL1  UNL     1      40.734  43.243  38.546  1.00  0.00    -0.096 Cl
ENDBRANCH   2  31
TORSDOF 12
ENDMDL
MODEL 2
REMARK VINA RESULT: -8.349729993      1.238      1.372
REMARK  12 active torsions:
REMARK  status: ('A' for Active; 'I' for Inactive)
REMARK    1  A    between atoms: O1_2  and  C2_3 
REMARK    2  A    between atoms: C7_8  and  C8_9 
REMARK    3  A    between atoms: C8_9  and  O3_11 
REMARK    4  A    between atoms: O3_11  and  C9_12 
REMARK    5  A    between atoms: C9_12  and  C10_13 
REMARK    6  A    between atoms: C10_13  and  N2_20 
REMARK    7  A    between atoms: N1_14  and  C11_16 
REMARK    8  A    between atoms: N2_20  and  C14_22 
REMARK    9  A    between atoms: C14_22  and  C15_23 
REMARK   10  A    between atoms: C15_23  and  O4_24 
REMARK   11  A    between atoms: C15_23  and  C16_26 
REMARK   12  A    between atoms: C16_26  and  N3_27 
ROOT
HETATM    1  C10 UNL     1      39.015  40.850  38.241  1.00  0.00     0.099 C 
HETATM    2  N1  UNL     1      39.140  41.510  39.296  1.00  0.00    -0.356 N 
ATOM      3  H1  UNL     1      39.009  40.924  40.121  1.00  0.00     0.162 HD
ENDROOT
BRANCH   1   4
HETATM    4  C9  UNL     1      39.152  41.411  36.876  1.00  0.00     0.255 C 
BRANCH   4   5
HETATM    5  O3  UNL     1      38.454  40.681  35.916  1.00  0.00    -0.310 OA
BRANCH   5   6
HETATM    6  C8  UNL     1      38.646  40.622  34.569  1.00  0.00     0.294 C 
HETATM    7  O2  UNL     1      39.658  39.962  34.175  1.00  0.00    -0.259 OA
BRANCH   6   8
HETATM    8  C7  UNL     1      37.787  41.251  33.580  1.00  0.00     0.048 A 
HETATM    9  C5  UNL     1      37.931  42.562  33.253  1.00  0.00    -0.046 A 
HETATM   10  C4  UNL     1      37.077  43.116  32.291  1.00  0.00     0.010 A 
HETATM   11  C6  UNL     1      38.954  43.427  33.885  1.00  0.00     0.049 C 
HETATM   12  C3  UNL     1      36.097  42.385  31.662  1.00  0.00     0.037 A 
HETATM   13  C2  UNL     1      35.964  41.057  32.003  1.00  0.00     0.069 A 
HETATM   14  C23 UNL     1      36.812  40.502  32.960  1.00  0.00     0.054 A 
BRANCH  13  15
HETATM   15  O1  UNL     1      34.986  40.284  31.389  1.00  0.00    -0.356 OA
HETATM   16  C1  UNL     1      34.093  39.528  32.184  1.00  0.00     0.210 C 
ENDBRANCH  13  15
ENDBRANCH   6   8
ENDBRANCH   5   6
ENDBRANCH   4   5
ENDBRANCH   1   4
BRANCH   1  17
HETATM   17  N2  UNL     1      38.684  39.446  38.380  1.00  0.00    -0.376 N 
ATOM     18  H2  UNL     1      37.701  39.193  38.478  1.00  0.00     0.160 HD
BRANCH  17  19
HETATM   19  C14 UNL     1      39.649  38.397  38.389  1.00  0.00     0.154 C 
BRANCH  19  20
HETATM   20  C15 UNL     1      39.058  37.013  38.628  1.00  0.00     0.153 C 
BRANCH  20  21
HETATM   21  O4  UNL     1      38.470  36.952  39.865  1.00  0.00    -0.392 OA
ATOM     22  H4  UNL     1      38.076  36.097  40.003  1.00  0.00     0.210 HD
ENDBRANCH  20  21
BRANCH  20  23
HETATM   23  C16 UNL     1      40.126  36.007  38.366  1.00  0.00     0.150 C 
BRANCH  23  24
HETATM   24  N3  UNL     1      40.060  35.360  37.100  1.00  0.00    -0.410 N 
HETATM   25  C17 UNL     1      41.272  34.800  36.617  1.00  0.00     0.117 C 
HETATM   26  C18 UNL     1      41.099  34.583  35.107  1.00  0.00     0.019 C 
HETATM   27  C19 UNL     1      40.825  33.121  34.829  1.00  0.00     0.002 C 
HETATM   28  C20 UNL     1      39.505  32.657  35.350  1.00  0.00     0.002 C 
HETATM   29  C21 UNL     1      39.225  33.060  36.766  1.00  0.00     0.019 C 
HETATM   30  C22 UNL     1      38.904  34.526  36.916  1.00  0.00     0.117 C 
ENDBRANCH  23  24
ENDBRANCH  20  23
ENDBRANCH  19  20
ENDBRANCH  17  19
ENDBRANCH   1  17
BRANCH   2  31
HETATM   31  C11 UNL     1      39.411  42.841  39.647  1.00  0.00     0.101 C 
HETATM   32  C12 UNL     1      38.676  43.893  38.854  1.00  0.00     0.056 C 
HETATM   33  C13 UNL     1      40.898  43.120  39.538  1.00  0.00     0.056 C 
HETATM   34 CL1  UNL     1      39.026  43.127  41.396  1.00  0.00    -0.096 Cl
ENDBRANCH   2  31
TORSDOF 12
ENDMDL
MODEL 3
REMARK VINA RESULT: -8.258368233      1.220      2.082
REMARK  12 active torsions:
REMARK  status: ('A' for Active; 'I' for Inactive)
REMARK    1  A    between atoms: O1_2  and  C2_3 
REMARK    2  A    between atoms: C7_8  and  C8_9 
REMARK    3  A    between atoms: C8_9  and  O3_11 
REMARK    4  A    between atoms: O3_11  and  C9_12 
REMARK    5  A    between atoms: C9_12  and  C10_13 
REMARK    6  A    between atoms: C10_13  and  N2_20 
REMARK    7  A    between atoms: N1_14  and  C11_16 
REMARK    8  A    between atoms: N2_20  and  C14_22 
REMARK    9  A    between atoms: C14_22  and  C15_23 
REMARK   10  A    between atoms: C15_23  and  O4_24 
REMARK   11  A    between atoms: C15_23  and  C16_26 
REMARK   12  A    between atoms: C16_26  and  N3_27 
ROOT
HETATM    1  C10 UNL     1      39.376  40.446  37.882  1.00  0.00     0.099 C 
HETATM    2  N1  UNL     1      40.541  40.866  38.049  1.00  0.00    -0.356 N 
ATOM      3  H1  UNL     1      41.100  40.210  38.595  1.00  0.00     0.162 HD
ENDROOT
BRANCH   1   4
HETATM    4  C9  UNL     1      38.321  41.166  37.129  1.00  0.00     0.255 C 
BRANCH   4   5
HETATM    5  O3  UNL     1      37.934  40.502  35.966  1.00  0.00    -0.310 OA
BRANCH   5   6
HETATM    6  C8  UNL     1      38.379  40.668  34.689  1.00  0.00     0.294 C 
HETATM    7  O2  UNL     1      39.398  39.986  34.357  1.00  0.00    -0.259 OA
BRANCH   6   8
HETATM    8  C7  UNL     1      37.775  41.554  33.709  1.00  0.00     0.048 A 
HETATM    9  C5  UNL     1      36.692  41.169  32.985  1.00  0.00    -0.046 A 
HETATM   10  C4  UNL     1      36.147  42.063  32.054  1.00  0.00     0.010 A 
HETATM   11  C6  UNL     1      36.071  39.833  33.140  1.00  0.00     0.049 C 
HETATM   12  C3  UNL     1      36.667  43.319  31.844  1.00  0.00     0.037 A 
HETATM   13  C2  UNL     1      37.765  43.696  32.586  1.00  0.00     0.069 A 
HETATM   14  C23 UNL     1      38.309  42.808  33.513  1.00  0.00     0.054 A 
BRANCH  13  15
HETATM   15  O1  UNL     1      38.319  44.956  32.403  1.00  0.00    -0.356 OA
HETATM   16  C1  UNL     1      37.585  45.948  31.711  1.00  0.00     0.210 C 
ENDBRANCH  13  15
ENDBRANCH   6   8
ENDBRANCH   5   6
ENDBRANCH   4   5
ENDBRANCH   1   4
BRANCH   1  17
HETATM   17  N2  UNL     1      39.039  39.179  38.501  1.00  0.00    -0.376 N 
ATOM     18  H2  UNL     1      38.202  39.138  39.084  1.00  0.00     0.160 HD
BRANCH  17  19
HETATM   19  C14 UNL     1      39.804  37.988  38.345  1.00  0.00     0.154 C 
BRANCH  19  20
HETATM   20  C15 UNL     1      39.027  36.709  38.631  1.00  0.00     0.153 C 
BRANCH  20  21
HETATM   21  O4  UNL     1      38.459  36.765  39.878  1.00  0.00    -0.392 OA
ATOM     22  H4  UNL     1      37.649  36.268  39.895  1.00  0.00     0.210 HD
ENDBRANCH  20  21
BRANCH  20  23
HETATM   23  C16 UNL     1      39.936  35.555  38.382  1.00  0.00     0.150 C 
BRANCH  23  24
HETATM   24  N3  UNL     1      39.980  35.089  37.038  1.00  0.00    -0.410 N 
HETATM   25  C17 UNL     1      41.253  34.688  36.552  1.00  0.00     0.117 C 
HETATM   26  C18 UNL     1      41.168  34.674  35.020  1.00  0.00     0.019 C 
HETATM   27  C19 UNL     1      41.020  33.250  34.529  1.00  0.00     0.002 C 
HETATM   28  C20 UNL     1      39.717  32.628  34.905  1.00  0.00     0.002 C 
HETATM   29  C21 UNL     1      39.340  32.806  36.345  1.00  0.00     0.019 C 
HETATM   30  C22 UNL     1      38.901  34.211  36.676  1.00  0.00     0.117 C 
ENDBRANCH  23  24
ENDBRANCH  20  23
ENDBRANCH  19  20
ENDBRANCH  17  19
ENDBRANCH   1  17
BRANCH   2  31
HETATM   31  C11 UNL     1      41.285  41.999  37.686  1.00  0.00     0.101 C 
HETATM   32  C12 UNL     1      41.443  42.234  36.204  1.00  0.00     0.056 C 
HETATM   33  C13 UNL     1      42.669  41.940  38.305  1.00  0.00     0.056 C 
HETATM   34 CL1  UNL     1      40.542  43.498  38.387  1.00  0.00    -0.096 Cl
ENDBRANCH   2  31
TORSDOF 12
ENDMDL
MODEL 4
REMARK VINA RESULT: -8.107304972      2.016      3.033
REMARK  12 active torsions:
REMARK  status: ('A' for Active; 'I' for Inactive)
REMARK    1  A    between atoms: O1_2  and  C2_3 
REMARK    2  A    between atoms: C7_8  and  C8_9 
REMARK    3  A    between atoms: C8_9  and  O3_11 
REMARK    4  A    between atoms: O3_11  and  C9_12 
REMARK    5  A    between atoms: C9_12  and  C10_13 
REMARK    6  A    between atoms: C10_13  and  N2_20 
REMARK    7  A    between atoms: N1_14  and  C11_16 
REMARK    8  A    between atoms: N2_20  and  C14_22 
REMARK    9  A    between atoms: C14_22  and  C15_23 
REMARK   10  A    between atoms: C15_23  and  O4_24 
REMARK   11  A    between atoms: C15_23  and  C16_26 
REMARK   12  A    between atoms: C16_26  and  N3_27 
ROOT
HETATM    1  C10 UNL     1      39.154  41.390  38.408  1.00  0.00     0.099 C 
HETATM    2  N1  UNL     1      39.143  41.989  39.505  1.00  0.00    -0.356 N 
ATOM      3  H1  UNL     1      39.005  41.343  40.283  1.00  0.00     0.162 HD
ENDROOT
BRANCH   1   4
HETATM    4  C9  UNL     1      39.338  42.045  37.092  1.00  0.00     0.255 C 
BRANCH   4   5
HETATM    5  O3  UNL     1      38.589  41.451  36.079  1.00  0.00    -0.310 OA
BRANCH   5   6
HETATM    6  C8  UNL     1      38.844  41.386  34.742  1.00  0.00     0.294 C 
HETATM    7  O2  UNL     1      39.815  40.645  34.391  1.00  0.00    -0.259 OA
BRANCH   6   8
HETATM    8  C7  UNL     1      38.092  42.093  33.719  1.00  0.00     0.048 A 
HETATM    9  C5  UNL     1      36.966  41.559  33.178  1.00  0.00    -0.046 A 
HETATM   10  C4  UNL     1      36.278  42.284  32.196  1.00  0.00     0.010 A 
HETATM   11  C6  UNL     1      36.444  40.234  33.585  1.00  0.00     0.049 C 
HETATM   12  C3  UNL     1      36.699  43.518  31.757  1.00  0.00     0.037 A 
HETATM   13  C2  UNL     1      37.842  44.046  32.315  1.00  0.00     0.069 A 
HETATM   14  C23 UNL     1      38.529  43.327  33.293  1.00  0.00     0.054 A 
BRANCH  13  15
HETATM   15  O1  UNL     1      38.299  45.290  31.899  1.00  0.00    -0.356 OA
HETATM   16  C1  UNL     1      39.482  45.824  32.462  1.00  0.00     0.210 C 
ENDBRANCH  13  15
ENDBRANCH   6   8
ENDBRANCH   5   6
ENDBRANCH   4   5
ENDBRANCH   1   4
BRANCH   1  17
HETATM   17  N2  UNL     1      38.940  39.956  38.441  1.00  0.00    -0.376 N 
ATOM     18  H2  UNL     1      37.978  39.615  38.438  1.00  0.00     0.160 HD
BRANCH  17  19
HETATM   19  C14 UNL     1      39.990  38.994  38.477  1.00  0.00     0.154 C 
BRANCH  19  20
HETATM   20  C15 UNL     1      39.833  37.866  37.465  1.00  0.00     0.153 C 
BRANCH  20  21
HETATM   21  O4  UNL     1      39.253  38.334  36.315  1.00  0.00    -0.392 OA
ATOM     22  H4  UNL     1      38.776  37.637  35.877  1.00  0.00     0.210 HD
ENDBRANCH  20  21
BRANCH  20  23
HETATM   23  C16 UNL     1      39.125  36.741  38.139  1.00  0.00     0.150 C 
BRANCH  23  24
HETATM   24  N3  UNL     1      39.545  35.436  37.757  1.00  0.00    -0.410 N 
HETATM   25  C17 UNL     1      38.613  34.670  37.008  1.00  0.00     0.117 C 
HETATM   26  C18 UNL     1      39.055  33.203  37.104  1.00  0.00     0.019 C 
HETATM   27  C19 UNL     1      39.753  32.794  35.825  1.00  0.00     0.002 C 
HETATM   28  C20 UNL     1      41.060  33.485  35.619  1.00  0.00     0.002 C 
HETATM   29  C21 UNL     1      41.014  34.968  35.827  1.00  0.00     0.019 C 
HETATM   30  C22 UNL     1      40.898  35.362  37.278  1.00  0.00     0.117 C 
ENDBRANCH  23  24
ENDBRANCH  20  23
ENDBRANCH  19  20
ENDBRANCH  17  19
ENDBRANCH   1  17
BRANCH   2  31
HETATM   31  C11 UNL     1      39.269  43.313  39.952  1.00  0.00     0.101 C 
HETATM   32  C12 UNL     1      38.497  44.347  39.170  1.00  0.00     0.056 C 
HETATM   33  C13 UNL     1      40.729  43.725  39.967  1.00  0.00     0.056 C 
HETATM   34 CL1  UNL     1      38.743  43.453  41.682  1.00  0.00    -0.096 Cl
ENDBRANCH   2  31
TORSDOF 12
ENDMDL
MODEL 5
REMARK VINA RESULT: -7.999529779      1.249      1.851
REMARK  12 active torsions:
REMARK  status: ('A' for Active; 'I' for Inactive)
REMARK    1  A    between atoms: O1_2  and  C2_3 
REMARK    2  A    between atoms: C7_8  and  C8_9 
REMARK    3  A    between atoms: C8_9  and  O3_11 
REMARK    4  A    between atoms: O3_11  and  C9_12 
REMARK    5  A    between atoms: C9_12  and  C10_13 
REMARK    6  A    between atoms: C10_13  and  N2_20 
REMARK    7  A    between atoms: N1_14  and  C11_16 
REMARK    8  A    between atoms: N2_20  and  C14_22 
REMARK    9  A    between atoms: C14_22  and  C15_23 
REMARK   10  A    between atoms: C15_23  and  O4_24 
REMARK   11  A    between atoms: C15_23  and  C16_26 
REMARK   12  A    between atoms: C16_26  and  N3_27 
ROOT
HETATM    1  C10 UNL     1      39.928  40.910  37.857  1.00  0.00     0.099 C 
HETATM    2  N1  UNL     1      40.470  41.719  38.640  1.00  0.00    -0.356 N 
ATOM      3  H1  UNL     1      41.396  41.401  38.925  1.00  0.00     0.162 HD
ENDROOT
BRANCH   1   4
HETATM    4  C9  UNL     1      38.582  41.086  37.261  1.00  0.00     0.255 C 
BRANCH   4   5
HETATM    5  O3  UNL     1      38.345  40.230  36.188  1.00  0.00    -0.310 OA
BRANCH   5   6
HETATM    6  C8  UNL     1      38.695  40.370  34.879  1.00  0.00     0.294 C 
HETATM    7  O2  UNL     1      39.734  39.742  34.505  1.00  0.00    -0.259 OA
BRANCH   6   8
HETATM    8  C7  UNL     1      37.969  41.171  33.908  1.00  0.00     0.048 A 
HETATM    9  C5  UNL     1      38.312  42.463  33.663  1.00  0.00    -0.046 A 
HETATM   10  C4  UNL     1      37.580  43.188  32.714  1.00  0.00     0.010 A 
HETATM   11  C6  UNL     1      39.429  43.132  34.369  1.00  0.00     0.049 C 
HETATM   12  C3  UNL     1      36.525  42.644  32.019  1.00  0.00     0.037 A 
HETATM   13  C2  UNL     1      36.189  41.334  32.278  1.00  0.00     0.069 A 
HETATM   14  C23 UNL     1      36.916  40.609  33.222  1.00  0.00     0.054 A 
BRANCH  13  15
HETATM   15  O1  UNL     1      35.130  40.748  31.597  1.00  0.00    -0.356 OA
HETATM   16  C1  UNL     1      34.887  39.362  31.742  1.00  0.00     0.210 C 
ENDBRANCH  13  15
ENDBRANCH   6   8
ENDBRANCH   5   6
ENDBRANCH   4   5
ENDBRANCH   1   4
BRANCH   1  17
HETATM   17  N2  UNL     1      40.668  39.704  37.542  1.00  0.00    -0.376 N 
ATOM     18  H2  UNL     1      41.350  39.744  36.784  1.00  0.00     0.160 HD
BRANCH  17  19
HETATM   19  C14 UNL     1      40.503  38.466  38.227  1.00  0.00     0.154 C 
BRANCH  19  20
HETATM   20  C15 UNL     1      40.204  37.285  37.311  1.00  0.00     0.153 C 
BRANCH  20  21
HETATM   21  O4  UNL     1      39.065  37.521  36.586  1.00  0.00    -0.392 OA
ATOM     22  H4  UNL     1      38.338  37.021  36.940  1.00  0.00     0.210 HD
ENDBRANCH  20  21
BRANCH  20  23
HETATM   23  C16 UNL     1      40.200  36.049  38.143  1.00  0.00     0.150 C 
BRANCH  23  24
HETATM   24  N3  UNL     1      40.336  34.828  37.426  1.00  0.00    -0.410 N 
HETATM   25  C17 UNL     1      39.144  34.285  36.877  1.00  0.00     0.117 C 
HETATM   26  C18 UNL     1      39.420  32.806  36.571  1.00  0.00     0.019 C 
HETATM   27  C19 UNL     1      39.663  32.627  35.089  1.00  0.00     0.002 C 
HETATM   28  C20 UNL     1      40.924  33.269  34.615  1.00  0.00     0.002 C 
HETATM   29  C21 UNL     1      41.114  34.679  35.086  1.00  0.00     0.019 C 
HETATM   30  C22 UNL     1      41.473  34.775  36.547  1.00  0.00     0.117 C 
ENDBRANCH  23  24
ENDBRANCH  20  23
ENDBRANCH  19  20
ENDBRANCH  17  19
ENDBRANCH   1  17
BRANCH   2  31
HETATM   31  C11 UNL     1      40.143  42.948  39.233  1.00  0.00     0.101 C 
HETATM   32  C12 UNL     1      39.045  42.908  40.268  1.00  0.00     0.056 C 
HETATM   33  C13 UNL     1      39.753  43.957  38.169  1.00  0.00     0.056 C 
HETATM   34 CL1  UNL     1      41.600  43.675  40.032  1.00  0.00    -0.096 Cl
ENDBRANCH   2  31
TORSDOF 12
ENDMDL
