MODEL 1
REMARK VINA RESULT: -8.955225410      0.000      0.000
REMARK  11 active torsions:
REMARK  status: ('A' for Active; 'I' for Inactive)
REMARK    1  A    between atoms: C2_2  and  C3_3 
REMARK    2  A    between atoms: C8_8  and  O1_9 
REMARK    3  A    between atoms: O1_9  and  C9_10 
REMARK    4  A    between atoms: C9_10  and  C10_12 
REMARK    5  A    between atoms: C10_12  and  C11_13 
REMARK    6  A    between atoms: C11_13  and  C12_14 
REMARK    7  A    between atoms: C13_15  and  C14_16 
REMARK    8  A    between atoms: C15_19  and  O5_20 
REMARK    9  A    between atoms: O5_20  and  C16_21 
REMARK   10  A    between atoms: C16_21  and  C17_23 
REMARK   11  A    between atoms: C24_31  and  O7_32 
ROOT
HETATM    1  C1  UNL     1      43.006  41.311  37.891  1.00  0.00     0.022 C 
HETATM    2  C2  UNL     1      42.102  40.848  39.014  1.00  0.00     0.003 C 
HETATM    3  C6  UNL     1      42.060  39.361  38.954  1.00  0.00    -0.016 C 
HETATM    4  C7  UNL     1      41.113  38.497  38.605  1.00  0.00     0.005 C 
HETATM    5  C8  UNL     1      39.731  38.845  38.144  1.00  0.00     0.184 C 
HETATM    6  C15 UNL     1      39.893  39.870  37.043  1.00  0.00     0.168 C 
HETATM    7  C23 UNL     1      40.111  41.258  37.539  1.00  0.00     0.068 C 
HETATM    8  C24 UNL     1      40.703  41.378  38.896  1.00  0.00     0.133 C 
ENDROOT
BRANCH   5   9
HETATM    9  O1  UNL     1      39.058  37.701  37.647  1.00  0.00    -0.309 OA
BRANCH   9  10
HETATM   10  C9  UNL     1      38.753  36.612  38.448  1.00  0.00     0.259 C 
HETATM   11  O2  UNL     1      37.874  36.804  39.345  1.00  0.00    -0.265 OA
BRANCH  10  12
HETATM   12  C10 UNL     1      39.418  35.293  38.270  1.00  0.00     0.115 C 
BRANCH  12  13
HETATM   13  C11 UNL     1      38.948  34.673  36.980  1.00  0.00     0.037 C 
BRANCH  13  14
HETATM   14  C12 UNL     1      40.057  34.679  35.987  1.00  0.00    -0.019 C 
HETATM   15  C13 UNL     1      40.137  33.821  35.001  1.00  0.00     0.080 C 
BRANCH  15  16
HETATM   16  C14 UNL     1      41.245  33.884  34.073  1.00  0.00     0.198 C 
HETATM   17  O3  UNL     1      41.095  34.444  32.947  1.00  0.00    -0.645 OA
HETATM   18  O4  UNL     1      42.492  33.358  34.347  1.00  0.00    -0.645 OA
ENDBRANCH  15  16
ENDBRANCH  13  14
ENDBRANCH  12  13
ENDBRANCH  10  12
ENDBRANCH   9  10
ENDBRANCH   5   9
BRANCH   6  19
HETATM   19  O5  UNL     1      38.787  39.867  36.162  1.00  0.00    -0.309 OA
BRANCH  19  20
HETATM   20  C16 UNL     1      38.915  40.171  34.818  1.00  0.00     0.293 C 
HETATM   21  O6  UNL     1      39.986  39.874  34.236  1.00  0.00    -0.259 OA
BRANCH  20  22
HETATM   22  C17 UNL     1      37.852  40.825  34.055  1.00  0.00     0.041 A 
HETATM   23  C18 UNL     1      36.622  40.228  33.902  1.00  0.00     0.018 A 
HETATM   24  C19 UNL     1      35.662  40.879  33.181  1.00  0.00     0.003 A 
HETATM   25  C20 UNL     1      35.878  42.117  32.598  1.00  0.00     0.024 A 
HETATM   26  C21 UNL     1      37.110  42.671  32.776  1.00  0.00     0.035 A 
HETATM   27 CL1  UNL     1      37.437  44.238  32.058  1.00  0.00    -0.084 Cl
HETATM   28  C22 UNL     1      38.113  42.056  33.494  1.00  0.00     0.041 A 
ENDBRANCH  20  22
ENDBRANCH  19  20
ENDBRANCH   6  19
BRANCH   2  29
HETATM   29  C3  UNL     1      42.676  41.219  40.359  1.00  0.00    -0.000 A 
HETATM   30  C4  UNL     1      44.097  41.454  40.582  1.00  0.00     0.006 A 
HETATM   31  C5  UNL     1      43.487  40.147  41.088  1.00  0.00     0.006 A 
ENDBRANCH   2  29
BRANCH   8  32
HETATM   32  O7  UNL     1      40.667  42.750  39.238  1.00  0.00    -0.394 OA
ATOM     33  H7  UNL     1      39.789  43.001  39.499  1.00  0.00     0.210 HD
ENDBRANCH   8  32
TORSDOF 11
ENDMDL
MODEL 2
REMARK VINA RESULT: -8.942697390      0.974      1.284
REMARK  11 active torsions:
REMARK  status: ('A' for Active; 'I' for Inactive)
REMARK    1  A    between atoms: C2_2  and  C3_3 
REMARK    2  A    between atoms: C8_8  and  O1_9 
REMARK    3  A    between atoms: O1_9  and  C9_10 
REMARK    4  A    between atoms: C9_10  and  C10_12 
REMARK    5  A    between atoms: C10_12  and  C11_13 
REMARK    6  A    between atoms: C11_13  and  C12_14 
REMARK    7  A    between atoms: C13_15  and  C14_16 
REMARK    8  A    between atoms: C15_19  and  O5_20 
REMARK    9  A    between atoms: O5_20  and  C16_21 
REMARK   10  A    between atoms: C16_21  and  C17_23 
REMARK   11  A    between atoms: C24_31  and  O7_32 
ROOT
HETATM    1  C1  UNL     1      42.840  41.646  37.940  1.00  0.00     0.022 C 
HETATM    2  C2  UNL     1      41.947  41.137  39.053  1.00  0.00     0.003 C 
HETATM    3  C6  UNL     1      41.993  39.649  39.001  1.00  0.00    -0.016 C 
HETATM    4  C7  UNL     1      41.103  38.730  38.643  1.00  0.00     0.005 C 
HETATM    5  C8  UNL     1      39.711  38.994  38.158  1.00  0.00     0.184 C 
HETATM    6  C15 UNL     1      39.829  40.022  37.054  1.00  0.00     0.168 C 
HETATM    7  C23 UNL     1      39.959  41.422  37.546  1.00  0.00     0.068 C 
HETATM    8  C24 UNL     1      40.522  41.583  38.911  1.00  0.00     0.133 C 
ENDROOT
BRANCH   5   9
HETATM    9  O1  UNL     1      39.114  37.811  37.658  1.00  0.00    -0.309 OA
BRANCH   9  10
HETATM   10  C9  UNL     1      38.862  36.708  38.460  1.00  0.00     0.259 C 
HETATM   11  O2  UNL     1      37.935  36.840  39.320  1.00  0.00    -0.265 OA
BRANCH  10  12
HETATM   12  C10 UNL     1      39.634  35.444  38.324  1.00  0.00     0.115 C 
BRANCH  12  13
HETATM   13  C11 UNL     1      39.138  34.691  37.117  1.00  0.00     0.037 C 
BRANCH  13  14
HETATM   14  C12 UNL     1      40.187  34.691  36.060  1.00  0.00    -0.019 C 
HETATM   15  C13 UNL     1      40.218  33.818  35.085  1.00  0.00     0.080 C 
BRANCH  15  16
HETATM   16  C14 UNL     1      41.268  33.877  34.092  1.00  0.00     0.198 C 
HETATM   17  O3  UNL     1      41.067  34.472  32.993  1.00  0.00    -0.645 OA
HETATM   18  O4  UNL     1      42.513  33.307  34.275  1.00  0.00    -0.645 OA
ENDBRANCH  15  16
ENDBRANCH  13  14
ENDBRANCH  12  13
ENDBRANCH  10  12
ENDBRANCH   9  10
ENDBRANCH   5   9
BRANCH   6  19
HETATM   19  O5  UNL     1      38.739  39.950  36.157  1.00  0.00    -0.309 OA
BRANCH  19  20
HETATM   20  C16 UNL     1      38.877  40.219  34.807  1.00  0.00     0.293 C 
HETATM   21  O6  UNL     1      39.936  39.868  34.231  1.00  0.00    -0.259 OA
BRANCH  20  22
HETATM   22  C17 UNL     1      37.841  40.898  34.029  1.00  0.00     0.041 A 
HETATM   23  C18 UNL     1      38.079  42.125  33.455  1.00  0.00     0.018 A 
HETATM   24  C19 UNL     1      37.078  42.719  32.737  1.00  0.00     0.003 A 
HETATM   25  C20 UNL     1      35.836  42.133  32.566  1.00  0.00     0.024 A 
HETATM   26  C21 UNL     1      35.644  40.918  33.151  1.00  0.00     0.035 A 
HETATM   27 CL1  UNL     1      34.087  40.132  32.965  1.00  0.00    -0.084 Cl
HETATM   28  C22 UNL     1      36.620  40.277  33.885  1.00  0.00     0.041 A 
ENDBRANCH  20  22
ENDBRANCH  19  20
ENDBRANCH   6  19
BRANCH   2  29
HETATM   29  C3  UNL     1      42.478  41.546  40.404  1.00  0.00    -0.000 A 
HETATM   30  C4  UNL     1      43.885  41.831  40.655  1.00  0.00     0.006 A 
HETATM   31  C5  UNL     1      43.307  40.513  41.168  1.00  0.00     0.006 A 
ENDBRANCH   2  29
BRANCH   8  32
HETATM   32  O7  UNL     1      40.401  42.952  39.245  1.00  0.00    -0.394 OA
ATOM     33  H7  UNL     1      39.506  43.244  39.119  1.00  0.00     0.210 HD
ENDBRANCH   8  32
TORSDOF 11
ENDMDL
MODEL 3
REMARK VINA RESULT: -8.754875148      3.743      6.452
REMARK  11 active torsions:
REMARK  status: ('A' for Active; 'I' for Inactive)
REMARK    1  A    between atoms: C2_2  and  C3_3 
REMARK    2  A    between atoms: C8_8  and  O1_9 
REMARK    3  A    between atoms: O1_9  and  C9_10 
REMARK    4  A    between atoms: C9_10  and  C10_12 
REMARK    5  A    between atoms: C10_12  and  C11_13 
REMARK    6  A    between atoms: C11_13  and  C12_14 
REMARK    7  A    between atoms: C13_15  and  C14_16 
REMARK    8  A    between atoms: C15_19  and  O5_20 
REMARK    9  A    between atoms: O5_20  and  C16_21 
REMARK   10  A    between atoms: C16_21  and  C17_23 
REMARK   11  A    between atoms: C24_31  and  O7_32 
ROOT
HETATM    1  C1  UNL     1      42.284  40.169  36.513  1.00  0.00     0.022 C 
HETATM    2  C2  UNL     1      40.816  39.800  36.470  1.00  0.00     0.003 C 
HETATM    3  C6  UNL     1      40.427  39.732  35.034  1.00  0.00    -0.016 C 
HETATM    4  C7  UNL     1      39.667  40.506  34.267  1.00  0.00     0.005 C 
HETATM    5  C8  UNL     1      38.954  41.749  34.701  1.00  0.00     0.184 C 
HETATM    6  C15 UNL     1      39.982  42.609  35.404  1.00  0.00     0.168 C 
HETATM    7  C23 UNL     1      40.231  42.217  36.819  1.00  0.00     0.068 C 
HETATM    8  C24 UNL     1      39.940  40.802  37.163  1.00  0.00     0.133 C 
ENDROOT
BRANCH   5   9
HETATM    9  O1  UNL     1      38.418  42.443  33.589  1.00  0.00    -0.309 OA
BRANCH   9  10
HETATM   10  C9  UNL     1      37.123  42.239  33.139  1.00  0.00     0.259 C 
HETATM   11  O2  UNL     1      36.637  43.150  32.398  1.00  0.00    -0.265 OA
BRANCH  10  12
HETATM   12  C10 UNL     1      36.346  41.024  33.503  1.00  0.00     0.115 C 
BRANCH  12  13
HETATM   13  C11 UNL     1      36.426  40.029  32.375  1.00  0.00     0.037 C 
BRANCH  13  14
HETATM   14  C12 UNL     1      35.053  39.675  31.920  1.00  0.00    -0.019 C 
HETATM   15  C13 UNL     1      33.971  40.065  32.545  1.00  0.00     0.080 C 
BRANCH  15  16
HETATM   16  C14 UNL     1      32.668  39.683  32.047  1.00  0.00     0.198 C 
HETATM   17  O3  UNL     1      32.442  39.680  30.801  1.00  0.00    -0.645 OA
HETATM   18  O4  UNL     1      31.624  39.308  32.871  1.00  0.00    -0.645 OA
ENDBRANCH  15  16
ENDBRANCH  13  14
ENDBRANCH  12  13
ENDBRANCH  10  12
ENDBRANCH   9  10
ENDBRANCH   5   9
BRANCH   6  19
HETATM   19  O5  UNL     1      39.632  43.978  35.361  1.00  0.00    -0.309 OA
BRANCH  19  20
HETATM   20  C16 UNL     1      40.235  44.866  34.489  1.00  0.00     0.293 C 
HETATM   21  O6  UNL     1      41.476  44.786  34.316  1.00  0.00    -0.259 OA
BRANCH  20  22
HETATM   22  C17 UNL     1      39.485  45.892  33.765  1.00  0.00     0.041 A 
HETATM   23  C18 UNL     1      39.159  45.723  32.438  1.00  0.00     0.018 A 
HETATM   24  C19 UNL     1      38.456  46.710  31.806  1.00  0.00     0.003 A 
HETATM   25  C20 UNL     1      38.059  47.871  32.448  1.00  0.00     0.024 A 
HETATM   26  C21 UNL     1      38.402  47.995  33.760  1.00  0.00     0.035 A 
HETATM   27 CL1  UNL     1      37.924  49.447  34.620  1.00  0.00    -0.084 Cl
HETATM   28  C22 UNL     1      39.110  47.030  34.444  1.00  0.00     0.041 A 
ENDBRANCH  20  22
ENDBRANCH  19  20
ENDBRANCH   6  19
BRANCH   2  29
HETATM   29  C3  UNL     1      40.585  38.429  37.054  1.00  0.00    -0.000 A 
HETATM   30  C4  UNL     1      41.639  37.640  37.679  1.00  0.00     0.006 A 
HETATM   31  C5  UNL     1      41.160  37.239  36.285  1.00  0.00     0.006 A 
ENDBRANCH   2  29
BRANCH   8  32
HETATM   32  O7  UNL     1      40.076  40.685  38.566  1.00  0.00    -0.394 OA
ATOM     33  H7  UNL     1      39.400  41.188  39.005  1.00  0.00     0.210 HD
ENDBRANCH   8  32
TORSDOF 11
ENDMDL
MODEL 4
REMARK VINA RESULT: -8.672962897      1.123      1.317
REMARK  11 active torsions:
REMARK  status: ('A' for Active; 'I' for Inactive)
REMARK    1  A    between atoms: C2_2  and  C3_3 
REMARK    2  A    between atoms: C8_8  and  O1_9 
REMARK    3  A    between atoms: O1_9  and  C9_10 
REMARK    4  A    between atoms: C9_10  and  C10_12 
REMARK    5  A    between atoms: C10_12  and  C11_13 
REMARK    6  A    between atoms: C11_13  and  C12_14 
REMARK    7  A    between atoms: C13_15  and  C14_16 
REMARK    8  A    between atoms: C15_19  and  O5_20 
REMARK    9  A    between atoms: O5_20  and  C16_21 
REMARK   10  A    between atoms: C16_21  and  C17_23 
REMARK   11  A    between atoms: C24_31  and  O7_32 
ROOT
HETATM    1  C1  UNL     1      43.091  41.112  37.862  1.00  0.00     0.022 C 
HETATM    2  C2  UNL     1      42.184  40.643  38.980  1.00  0.00     0.003 C 
HETATM    3  C6  UNL     1      42.109  39.159  38.886  1.00  0.00    -0.016 C 
HETATM    4  C7  UNL     1      41.141  38.324  38.523  1.00  0.00     0.005 C 
HETATM    5  C8  UNL     1      39.765  38.713  38.078  1.00  0.00     0.184 C 
HETATM    6  C15 UNL     1      39.942  39.761  37.001  1.00  0.00     0.168 C 
HETATM    7  C23 UNL     1      40.194  41.131  37.528  1.00  0.00     0.068 C 
HETATM    8  C24 UNL     1      40.797  41.206  38.884  1.00  0.00     0.133 C 
ENDROOT
BRANCH   5   9
HETATM    9  O1  UNL     1      39.064  37.596  37.559  1.00  0.00    -0.309 OA
BRANCH   9  10
HETATM   10  C9  UNL     1      38.759  36.485  38.330  1.00  0.00     0.259 C 
HETATM   11  O2  UNL     1      37.974  36.682  39.311  1.00  0.00    -0.265 OA
BRANCH  10  12
HETATM   12  C10 UNL     1      39.320  35.141  38.029  1.00  0.00     0.115 C 
BRANCH  12  13
HETATM   13  C11 UNL     1      39.816  35.120  36.607  1.00  0.00     0.037 C 
BRANCH  13  14
HETATM   14  C12 UNL     1      41.185  34.535  36.563  1.00  0.00    -0.019 C 
HETATM   15  C13 UNL     1      42.273  35.263  36.567  1.00  0.00     0.080 C 
BRANCH  15  16
HETATM   16  C14 UNL     1      43.571  34.627  36.520  1.00  0.00     0.198 C 
HETATM   17  O3  UNL     1      43.872  33.872  35.549  1.00  0.00    -0.645 OA
HETATM   18  O4  UNL     1      44.532  34.798  37.498  1.00  0.00    -0.645 OA
ENDBRANCH  15  16
ENDBRANCH  13  14
ENDBRANCH  12  13
ENDBRANCH  10  12
ENDBRANCH   9  10
ENDBRANCH   5   9
BRANCH   6  19
HETATM   19  O5  UNL     1      38.832  39.802  36.127  1.00  0.00    -0.309 OA
BRANCH  19  20
HETATM   20  C16 UNL     1      38.955  40.158  34.795  1.00  0.00     0.293 C 
HETATM   21  O6  UNL     1      40.031  39.901  34.204  1.00  0.00    -0.259 OA
BRANCH  20  22
HETATM   22  C17 UNL     1      37.881  40.821  34.055  1.00  0.00     0.041 A 
HETATM   23  C18 UNL     1      36.637  40.243  33.948  1.00  0.00     0.018 A 
HETATM   24  C19 UNL     1      35.667  40.903  33.246  1.00  0.00     0.003 A 
HETATM   25  C20 UNL     1      35.887  42.128  32.642  1.00  0.00     0.024 A 
HETATM   26  C21 UNL     1      37.132  42.663  32.775  1.00  0.00     0.035 A 
HETATM   27 CL1  UNL     1      37.465  44.215  32.027  1.00  0.00    -0.084 Cl
HETATM   28  C22 UNL     1      38.146  42.040  33.471  1.00  0.00     0.041 A 
ENDBRANCH  20  22
ENDBRANCH  19  20
ENDBRANCH   6  19
BRANCH   2  29
HETATM   29  C3  UNL     1      42.774  40.969  40.329  1.00  0.00    -0.000 A 
HETATM   30  C4  UNL     1      44.203  41.146  40.553  1.00  0.00     0.006 A 
HETATM   31  C5  UNL     1      43.546  39.855  41.038  1.00  0.00     0.006 A 
ENDBRANCH   2  29
BRANCH   8  32
HETATM   32  O7  UNL     1      40.793  42.569  39.258  1.00  0.00    -0.394 OA
ATOM     33  H7  UNL     1      40.751  42.651  40.204  1.00  0.00     0.210 HD
ENDBRANCH   8  32
TORSDOF 11
ENDMDL
MODEL 5
REMARK VINA RESULT: -8.601369461      1.398      1.798
REMARK  11 active torsions:
REMARK  status: ('A' for Active; 'I' for Inactive)
REMARK    1  A    between atoms: C2_2  and  C3_3 
REMARK    2  A    between atoms: C8_8  and  O1_9 
REMARK    3  A    between atoms: O1_9  and  C9_10 
REMARK    4  A    between atoms: C9_10  and  C10_12 
REMARK    5  A    between atoms: C10_12  and  C11_13 
REMARK    6  A    between atoms: C11_13  and  C12_14 
REMARK    7  A    between atoms: C13_15  and  C14_16 
REMARK    8  A    between atoms: C15_19  and  O5_20 
REMARK    9  A    between atoms: O5_20  and  C16_21 
REMARK   10  A    between atoms: C16_21  and  C17_23 
REMARK   11  A    between atoms: C24_31  and  O7_32 
ROOT
HETATM    1  C1  UNL     1      43.313  40.809  37.787  1.00  0.00     0.022 C 
HETATM    2  C2  UNL     1      42.392  40.395  38.916  1.00  0.00     0.003 C 
HETATM    3  C6  UNL     1      42.224  38.918  38.819  1.00  0.00    -0.016 C 
HETATM    4  C7  UNL     1      41.202  38.146  38.466  1.00  0.00     0.005 C 
HETATM    5  C8  UNL     1      39.847  38.620  38.039  1.00  0.00     0.184 C 
HETATM    6  C15 UNL     1      40.077  39.658  36.961  1.00  0.00     0.168 C 
HETATM    7  C23 UNL     1      40.419  41.008  37.488  1.00  0.00     0.068 C 
HETATM    8  C24 UNL     1      41.041  41.043  38.837  1.00  0.00     0.133 C 
ENDROOT
BRANCH   5   9
HETATM    9  O1  UNL     1      39.073  37.551  37.526  1.00  0.00    -0.309 OA
BRANCH   9  10
HETATM   10  C9  UNL     1      38.735  36.444  38.290  1.00  0.00     0.259 C 
HETATM   11  O2  UNL     1      37.972  36.660  39.283  1.00  0.00    -0.265 OA
BRANCH  10  12
HETATM   12  C10 UNL     1      39.239  35.082  37.967  1.00  0.00     0.115 C 
BRANCH  12  13
HETATM   13  C11 UNL     1      39.595  35.022  36.504  1.00  0.00     0.037 C 
BRANCH  13  14
HETATM   14  C12 UNL     1      40.937  34.397  36.340  1.00  0.00    -0.019 C 
HETATM   15  C13 UNL     1      42.056  35.056  36.506  1.00  0.00     0.080 C 
BRANCH  15  16
HETATM   16  C14 UNL     1      43.326  34.385  36.329  1.00  0.00     0.198 C 
HETATM   17  O3  UNL     1      44.256  34.561  37.169  1.00  0.00    -0.645 OA
HETATM   18  O4  UNL     1      43.593  33.540  35.269  1.00  0.00    -0.645 OA
ENDBRANCH  15  16
ENDBRANCH  13  14
ENDBRANCH  12  13
ENDBRANCH  10  12
ENDBRANCH   9  10
ENDBRANCH   5   9
BRANCH   6  19
HETATM   19  O5  UNL     1      38.961  39.770  36.101  1.00  0.00    -0.309 OA
BRANCH  19  20
HETATM   20  C16 UNL     1      39.085  40.159  34.779  1.00  0.00     0.293 C 
HETATM   21  O6  UNL     1      40.155  39.899  34.177  1.00  0.00    -0.259 OA
BRANCH  20  22
HETATM   22  C17 UNL     1      38.022  40.861  34.061  1.00  0.00     0.041 A 
HETATM   23  C18 UNL     1      38.254  42.084  33.475  1.00  0.00     0.018 A 
HETATM   24  C19 UNL     1      37.228  42.700  32.814  1.00  0.00     0.003 A 
HETATM   25  C20 UNL     1      35.965  42.140  32.712  1.00  0.00     0.024 A 
HETATM   26  C21 UNL     1      35.781  40.929  33.306  1.00  0.00     0.035 A 
HETATM   27 CL1  UNL     1      34.200  40.176  33.207  1.00  0.00    -0.084 Cl
HETATM   28  C22 UNL     1      36.782  40.266  33.984  1.00  0.00     0.041 A 
ENDBRANCH  20  22
ENDBRANCH  19  20
ENDBRANCH   6  19
BRANCH   2  29
HETATM   29  C3  UNL     1      43.017  40.680  40.258  1.00  0.00    -0.000 A 
HETATM   30  C4  UNL     1      44.456  40.795  40.460  1.00  0.00     0.006 A 
HETATM   31  C5  UNL     1      43.753  39.526  40.942  1.00  0.00     0.006 A 
ENDBRANCH   2  29
BRANCH   8  32
HETATM   32  O7  UNL     1      41.127  42.403  39.214  1.00  0.00    -0.394 OA
ATOM     33  H7  UNL     1      41.382  42.935  38.470  1.00  0.00     0.210 HD
ENDBRANCH   8  32
TORSDOF 11
ENDMDL
