MODEL 1
REMARK VINA RESULT: -9.621400162      0.000      0.000
REMARK  2 active torsions:
REMARK  status: ('A' for Active; 'I' for Inactive)
REMARK       I    between atoms: C1_2  and  N1_3 
REMARK    1  A    between atoms: C1_2  and  C12_15 
REMARK    2  A    between atoms: N1_3  and  C2_5 
ROOT
HETATM    1  C12 UNL     1      -2.565   9.578  -1.846  1.00  0.00     0.034 A 
HETATM    2  C13 UNL     1      -2.617  10.955  -1.986  1.00  0.00     0.018 A 
HETATM    3  C14 UNL     1      -2.208  11.738  -0.931  1.00  0.00     0.015 A 
HETATM    4  C15 UNL     1      -1.756  11.164   0.245  1.00  0.00    -0.007 A 
HETATM    5  C16 UNL     1      -1.300  11.699   1.425  1.00  0.00     0.044 A 
HETATM    6  C17 UNL     1      -0.965  10.651   2.295  1.00  0.00     0.048 A 
HETATM    7  N2  UNL     1      -1.217   9.534   1.647  1.00  0.00    -0.331 N 
HETATM    8  C18 UNL     1      -1.699   9.810   0.395  1.00  0.00     0.047 A 
HETATM    9  C19 UNL     1      -2.113   9.023  -0.674  1.00  0.00     0.047 A 
HETATM   10  C20 UNL     1      -1.030   8.175   2.134  1.00  0.00     0.275 A 
HETATM   11  S1  UNL     1      -0.404   8.101   3.751  1.00  0.00     0.193 S 
HETATM   12  O2  UNL     1      -1.405   7.400   4.647  1.00  0.00    -0.221 OA
HETATM   13  O3  UNL     1       0.878   7.306   3.853  1.00  0.00    -0.221 OA
HETATM   14  C21 UNL     1      -0.163   9.693   4.375  1.00  0.00     0.073 A 
HETATM   15  C22 UNL     1       0.327   9.813   5.644  1.00  0.00     0.024 A 
HETATM   16  C23 UNL     1       0.559  11.032   6.240  1.00  0.00     0.002 A 
HETATM   17  C24 UNL     1       0.268  12.146   5.485  1.00  0.00     0.001 A 
HETATM   18  C25 UNL     1      -0.225  12.058   4.208  1.00  0.00     0.015 A 
HETATM   19  C26 UNL     1      -0.444  10.805   3.644  1.00  0.00     0.012 A 
ENDROOT
BRANCH   1  20
HETATM   20  C1  UNL     1      -3.006   8.785  -3.008  1.00  0.00     0.256 C 
HETATM   21  O1  UNL     1      -2.285   8.810  -4.015  1.00  0.00    -0.267 OA
HETATM   22  N1  UNL     1      -4.200   8.049  -2.920  1.00  0.00    -0.322 N 
ATOM     23  H1  UNL     1      -4.698   8.117  -2.032  1.00  0.00     0.169 HD
BRANCH  22  24
HETATM   24  C2  UNL     1      -4.799   7.230  -3.898  1.00  0.00     0.046 A 
HETATM   25  C3  UNL     1      -5.223   7.680  -5.114  1.00  0.00     0.030 A 
HETATM   26  C4  UNL     1      -5.822   6.864  -6.088  1.00  0.00     0.003 A 
HETATM   27  C5  UNL     1      -5.985   5.544  -5.790  1.00  0.00     0.012 A 
HETATM   28  C6  UNL     1      -5.578   5.028  -4.579  1.00  0.00    -0.024 A 
HETATM   29  C7  UNL     1      -5.781   3.690  -4.364  1.00  0.00     0.012 A 
HETATM   30  C11 UNL     1      -4.985   5.869  -3.632  1.00  0.00     0.001 A 
HETATM   31  C8  UNL     1      -5.392   3.146  -3.183  1.00  0.00     0.001 A 
HETATM   32  C9  UNL     1      -4.805   3.942  -2.228  1.00  0.00     0.001 A 
HETATM   33  C10 UNL     1      -4.594   5.320  -2.445  1.00  0.00     0.014 A 
ENDBRANCH  22  24
ENDBRANCH   1  20
TORSDOF 2
ENDMDL
MODEL 2
REMARK VINA RESULT: -9.560622393      1.846      1.964
REMARK  2 active torsions:
REMARK  status: ('A' for Active; 'I' for Inactive)
REMARK       I    between atoms: C1_2  and  N1_3 
REMARK    1  A    between atoms: C1_2  and  C12_15 
REMARK    2  A    between atoms: N1_3  and  C2_5 
ROOT
HETATM    1  C12 UNL     1      -3.039   9.450  -2.480  1.00  0.00     0.034 A 
HETATM    2  C13 UNL     1      -2.561  10.704  -2.821  1.00  0.00     0.018 A 
HETATM    3  C14 UNL     1      -2.305  11.606  -1.813  1.00  0.00     0.015 A 
HETATM    4  C15 UNL     1      -2.520  11.268  -0.488  1.00  0.00    -0.007 A 
HETATM    5  C16 UNL     1      -2.352  11.960   0.686  1.00  0.00     0.044 A 
HETATM    6  C17 UNL     1      -2.726  11.132   1.754  1.00  0.00     0.048 A 
HETATM    7  N2  UNL     1      -3.102   9.988   1.226  1.00  0.00    -0.331 N 
HETATM    8  C18 UNL     1      -2.990  10.036  -0.139  1.00  0.00     0.047 A 
HETATM    9  C19 UNL     1      -3.246   9.128  -1.161  1.00  0.00     0.047 A 
HETATM   10  C20 UNL     1      -3.578   8.807   1.932  1.00  0.00     0.275 A 
HETATM   11  S1  UNL     1      -3.625   9.006   3.656  1.00  0.00     0.193 S 
HETATM   12  O2  UNL     1      -5.051   8.854   4.142  1.00  0.00    -0.221 OA
HETATM   13  O3  UNL     1      -2.817   7.963   4.393  1.00  0.00    -0.221 OA
HETATM   14  C21 UNL     1      -3.085  10.588   4.092  1.00  0.00     0.073 A 
HETATM   15  C22 UNL     1      -3.061  10.909   5.419  1.00  0.00     0.024 A 
HETATM   16  C23 UNL     1      -2.649  12.139   5.880  1.00  0.00     0.002 A 
HETATM   17  C24 UNL     1      -2.255  13.048   4.923  1.00  0.00     0.001 A 
HETATM   18  C25 UNL     1      -2.267  12.755   3.583  1.00  0.00     0.015 A 
HETATM   19  C26 UNL     1      -2.691  11.498   3.162  1.00  0.00     0.012 A 
ENDROOT
BRANCH   1  20
HETATM   20  C1  UNL     1      -3.289   8.518  -3.595  1.00  0.00     0.256 C 
HETATM   21  O1  UNL     1      -2.437   8.471  -4.493  1.00  0.00    -0.267 OA
HETATM   22  N1  UNL     1      -4.459   7.741  -3.587  1.00  0.00    -0.322 N 
ATOM     23  H1  UNL     1      -5.077   7.879  -2.787  1.00  0.00     0.169 HD
BRANCH  22  24
HETATM   24  C2  UNL     1      -4.891   6.796  -4.540  1.00  0.00     0.046 A 
HETATM   25  C3  UNL     1      -5.144   7.092  -5.847  1.00  0.00     0.030 A 
HETATM   26  C4  UNL     1      -5.577   6.151  -6.796  1.00  0.00     0.003 A 
HETATM   27  C5  UNL     1      -5.751   4.866  -6.374  1.00  0.00     0.012 A 
HETATM   28  C6  UNL     1      -5.512   4.503  -5.067  1.00  0.00    -0.024 A 
HETATM   29  C7  UNL     1      -5.713   3.190  -4.731  1.00  0.00     0.012 A 
HETATM   30  C11 UNL     1      -5.083   5.467  -4.148  1.00  0.00     0.001 A 
HETATM   31  C8  UNL     1      -5.488   2.795  -3.452  1.00  0.00     0.001 A 
HETATM   32  C9  UNL     1      -5.064   3.714  -2.521  1.00  0.00     0.001 A 
HETATM   33  C10 UNL     1      -4.856   5.067  -2.862  1.00  0.00     0.014 A 
ENDBRANCH  22  24
ENDBRANCH   1  20
TORSDOF 2
ENDMDL
MODEL 3
REMARK VINA RESULT: -9.496776343      3.027      9.790
REMARK  2 active torsions:
REMARK  status: ('A' for Active; 'I' for Inactive)
REMARK       I    between atoms: C1_2  and  N1_3 
REMARK    1  A    between atoms: C1_2  and  C12_15 
REMARK    2  A    between atoms: N1_3  and  C2_5 
ROOT
HETATM    1  C12 UNL     1      -2.948  10.653   0.657  1.00  0.00     0.034 A 
HETATM    2  C13 UNL     1      -2.165  11.692   0.181  1.00  0.00     0.018 A 
HETATM    3  C14 UNL     1      -2.020  11.835  -1.180  1.00  0.00     0.015 A 
HETATM    4  C15 UNL     1      -2.642  10.961  -2.055  1.00  0.00    -0.007 A 
HETATM    5  C16 UNL     1      -2.664  10.877  -3.425  1.00  0.00     0.044 A 
HETATM    6  C17 UNL     1      -3.462   9.786  -3.797  1.00  0.00     0.048 A 
HETATM    7  N2  UNL     1      -3.896   9.243  -2.680  1.00  0.00    -0.331 N 
HETATM    8  C18 UNL     1      -3.415   9.934  -1.599  1.00  0.00     0.047 A 
HETATM    9  C19 UNL     1      -3.559   9.795  -0.223  1.00  0.00     0.047 A 
HETATM   10  C20 UNL     1      -4.761   8.081  -2.546  1.00  0.00     0.275 A 
HETATM   11  S1  UNL     1      -5.231   7.390  -4.068  1.00  0.00     0.193 S 
HETATM   12  O2  UNL     1      -4.720   5.966  -4.154  1.00  0.00    -0.221 OA
HETATM   13  O3  UNL     1      -6.730   7.309  -4.242  1.00  0.00    -0.221 OA
HETATM   14  C21 UNL     1      -4.532   8.281  -5.372  1.00  0.00     0.073 A 
HETATM   15  C22 UNL     1      -4.802   7.865  -6.644  1.00  0.00     0.024 A 
HETATM   16  C23 UNL     1      -4.300   8.500  -7.757  1.00  0.00     0.002 A 
HETATM   17  C24 UNL     1      -3.495   9.594  -7.524  1.00  0.00     0.001 A 
HETATM   18  C25 UNL     1      -3.205  10.036  -6.259  1.00  0.00     0.015 A 
HETATM   19  C26 UNL     1      -3.735   9.363  -5.162  1.00  0.00     0.012 A 
ENDROOT
BRANCH   1  20
HETATM   20  C1  UNL     1      -3.078  10.549   2.122  1.00  0.00     0.256 C 
HETATM   21  O1  UNL     1      -3.913   9.744   2.558  1.00  0.00    -0.267 OA
HETATM   22  N1  UNL     1      -2.264  11.350   2.939  1.00  0.00    -0.322 N 
ATOM     23  H1  UNL     1      -1.619  11.970   2.451  1.00  0.00     0.169 HD
BRANCH  22  24
HETATM   24  C2  UNL     1      -2.222  11.408   4.348  1.00  0.00     0.046 A 
HETATM   25  C3  UNL     1      -3.276  11.784   5.127  1.00  0.00     0.030 A 
HETATM   26  C4  UNL     1      -3.234  11.844   6.530  1.00  0.00     0.003 A 
HETATM   27  C5  UNL     1      -2.063  11.504   7.139  1.00  0.00     0.012 A 
HETATM   28  C6  UNL     1      -0.962  11.114   6.408  1.00  0.00    -0.024 A 
HETATM   29  C7  UNL     1       0.173  10.790   7.104  1.00  0.00     0.012 A 
HETATM   30  C11 UNL     1      -1.039  11.066   5.013  1.00  0.00     0.001 A 
HETATM   31  C8  UNL     1       1.278  10.402   6.417  1.00  0.00     0.001 A 
HETATM   32  C9  UNL     1       1.239  10.341   5.044  1.00  0.00     0.001 A 
HETATM   33  C10 UNL     1       0.073  10.675   4.324  1.00  0.00     0.014 A 
ENDBRANCH  22  24
ENDBRANCH   1  20
TORSDOF 2
ENDMDL
MODEL 4
REMARK VINA RESULT: -9.480392401      3.687      4.834
REMARK  2 active torsions:
REMARK  status: ('A' for Active; 'I' for Inactive)
REMARK       I    between atoms: C1_2  and  N1_3 
REMARK    1  A    between atoms: C1_2  and  C12_15 
REMARK    2  A    between atoms: N1_3  and  C2_5 
ROOT
HETATM    1  C12 UNL     1      -1.830   9.833  -1.369  1.00  0.00     0.034 A 
HETATM    2  C13 UNL     1      -0.870   8.835  -1.369  1.00  0.00     0.018 A 
HETATM    3  C14 UNL     1      -0.194   8.574  -0.199  1.00  0.00     0.015 A 
HETATM    4  C15 UNL     1      -0.466   9.292   0.952  1.00  0.00    -0.007 A 
HETATM    5  C16 UNL     1       0.049   9.239   2.224  1.00  0.00     0.044 A 
HETATM    6  C17 UNL     1      -0.593  10.205   3.012  1.00  0.00     0.048 A 
HETATM    7  N2  UNL     1      -1.459  10.809   2.228  1.00  0.00    -0.331 N 
HETATM    8  C18 UNL     1      -1.408  10.278   0.966  1.00  0.00     0.047 A 
HETATM    9  C19 UNL     1      -2.089  10.537  -0.218  1.00  0.00     0.047 A 
HETATM   10  C20 UNL     1      -2.367  11.888   2.588  1.00  0.00     0.275 A 
HETATM   11  S1  UNL     1      -2.235  12.377   4.249  1.00  0.00     0.193 S 
HETATM   12  O2  UNL     1      -1.807  13.828   4.314  1.00  0.00    -0.221 OA
HETATM   13  O3  UNL     1      -3.547  12.292   4.995  1.00  0.00    -0.221 OA
HETATM   14  C21 UNL     1      -1.034  11.435   5.057  1.00  0.00     0.073 A 
HETATM   15  C22 UNL     1      -0.803  11.695   6.378  1.00  0.00     0.024 A 
HETATM   16  C23 UNL     1       0.129  11.006   7.120  1.00  0.00     0.002 A 
HETATM   17  C24 UNL     1       0.833  10.025   6.456  1.00  0.00     0.001 A 
HETATM   18  C25 UNL     1       0.624   9.740   5.131  1.00  0.00     0.015 A 
HETATM   19  C26 UNL     1      -0.329  10.462   4.419  1.00  0.00     0.012 A 
ENDROOT
BRANCH   1  20
HETATM   20  C1  UNL     1      -2.531  10.068  -2.644  1.00  0.00     0.256 C 
HETATM   21  O1  UNL     1      -3.749  10.292  -2.585  1.00  0.00    -0.267 OA
HETATM   22  N1  UNL     1      -1.801  10.030  -3.843  1.00  0.00    -0.322 N 
ATOM     23  H1  UNL     1      -0.804   9.834  -3.749  1.00  0.00     0.169 HD
BRANCH  22  24
HETATM   24  C2  UNL     1      -2.266  10.227  -5.160  1.00  0.00     0.046 A 
HETATM   25  C3  UNL     1      -3.585  10.312  -5.498  1.00  0.00     0.030 A 
HETATM   26  C4  UNL     1      -4.048  10.506  -6.810  1.00  0.00     0.003 A 
HETATM   27  C5  UNL     1      -3.114  10.612  -7.798  1.00  0.00     0.012 A 
HETATM   28  C6  UNL     1      -1.767  10.534  -7.521  1.00  0.00    -0.024 A 
HETATM   29  C7  UNL     1      -0.899  10.652  -8.575  1.00  0.00     0.012 A 
HETATM   30  C11 UNL     1      -1.341  10.341  -6.203  1.00  0.00     0.001 A 
HETATM   31  C8  UNL     1       0.436  10.580  -8.341  1.00  0.00     0.001 A 
HETATM   32  C9  UNL     1       0.892  10.392  -7.058  1.00  0.00     0.001 A 
HETATM   33  C10 UNL     1       0.003  10.269  -5.970  1.00  0.00     0.014 A 
ENDBRANCH  22  24
ENDBRANCH   1  20
TORSDOF 2
ENDMDL
MODEL 5
REMARK VINA RESULT: -9.426678682      5.563      7.303
REMARK  2 active torsions:
REMARK  status: ('A' for Active; 'I' for Inactive)
REMARK       I    between atoms: C1_2  and  N1_3 
REMARK    1  A    between atoms: C1_2  and  C12_15 
REMARK    2  A    between atoms: N1_3  and  C2_5 
ROOT
HETATM    1  C12 UNL     1      -2.582   8.393   3.454  1.00  0.00     0.034 A 
HETATM    2  C13 UNL     1      -1.239   8.282   3.772  1.00  0.00     0.018 A 
HETATM    3  C14 UNL     1      -0.506   9.434   3.942  1.00  0.00     0.015 A 
HETATM    4  C15 UNL     1      -1.097  10.678   3.797  1.00  0.00    -0.007 A 
HETATM    5  C16 UNL     1      -0.609  11.957   3.908  1.00  0.00     0.044 A 
HETATM    6  C17 UNL     1      -1.652  12.860   3.657  1.00  0.00     0.048 A 
HETATM    7  N2  UNL     1      -2.721  12.135   3.407  1.00  0.00    -0.331 N 
HETATM    8  C18 UNL     1      -2.418  10.802   3.484  1.00  0.00     0.047 A 
HETATM    9  C19 UNL     1      -3.154   9.634   3.314  1.00  0.00     0.047 A 
HETATM   10  C20 UNL     1      -4.056  12.620   3.089  1.00  0.00     0.275 A 
HETATM   11  S1  UNL     1      -4.173  14.351   3.056  1.00  0.00     0.193 S 
HETATM   12  O2  UNL     1      -4.579  14.803   1.669  1.00  0.00    -0.221 OA
HETATM   13  O3  UNL     1      -5.227  14.890   3.997  1.00  0.00    -0.221 OA
HETATM   14  C21 UNL     1      -2.641  15.063   3.415  1.00  0.00     0.073 A 
HETATM   15  C22 UNL     1      -2.560  16.426   3.429  1.00  0.00     0.024 A 
HETATM   16  C23 UNL     1      -1.390  17.099   3.704  1.00  0.00     0.002 A 
HETATM   17  C24 UNL     1      -0.286  16.319   3.967  1.00  0.00     0.001 A 
HETATM   18  C25 UNL     1      -0.336  14.949   3.961  1.00  0.00     0.015 A 
HETATM   19  C26 UNL     1      -1.539  14.310   3.679  1.00  0.00     0.012 A 
ENDROOT
BRANCH   1  20
HETATM   20  C1  UNL     1      -3.324   7.130   3.291  1.00  0.00     0.256 C 
HETATM   21  O1  UNL     1      -3.172   6.519   2.224  1.00  0.00    -0.267 OA
HETATM   22  N1  UNL     1      -4.154   6.686   4.334  1.00  0.00    -0.322 N 
ATOM     23  H1  UNL     1      -4.190   7.286   5.158  1.00  0.00     0.169 HD
BRANCH  22  24
HETATM   24  C2  UNL     1      -4.943   5.518   4.390  1.00  0.00     0.046 A 
HETATM   25  C3  UNL     1      -5.936   5.226   3.501  1.00  0.00     0.030 A 
HETATM   26  C4  UNL     1      -6.723   4.064   3.558  1.00  0.00     0.003 A 
HETATM   27  C5  UNL     1      -6.473   3.183   4.567  1.00  0.00     0.012 A 
HETATM   28  C6  UNL     1      -5.484   3.421   5.497  1.00  0.00    -0.024 A 
HETATM   29  C7  UNL     1      -5.302   2.481   6.477  1.00  0.00     0.012 A 
HETATM   30  C11 UNL     1      -4.719   4.588   5.410  1.00  0.00     0.001 A 
HETATM   31  C8  UNL     1      -4.337   2.681   7.411  1.00  0.00     0.001 A 
HETATM   32  C9  UNL     1      -3.564   3.817   7.357  1.00  0.00     0.001 A 
HETATM   33  C10 UNL     1      -3.748   4.787   6.350  1.00  0.00     0.014 A 
ENDBRANCH  22  24
ENDBRANCH   1  20
TORSDOF 2
ENDMDL
