MODEL 1
REMARK VINA RESULT: -9.895095060      0.000      0.000
REMARK  2 active torsions:
REMARK  status: ('A' for Active; 'I' for Inactive)
REMARK    1  A    between atoms: C3_6  and  C4_7 
REMARK    2  A    between atoms: C3_6  and  C10_13 
ROOT
HETATM    1  C1  UNL     1      -0.136  15.138   2.439  1.00  0.00     0.124 C 
HETATM    2  N1  UNL     1      -1.012  14.177   2.438  1.00  0.00    -0.340 N 
HETATM    3  C2  UNL     1      -1.305  12.733   2.113  1.00  0.00     0.220 C 
HETATM    4  N2  UNL     1      -1.609  12.477   3.400  1.00  0.00    -0.380 N 
ATOM      5  H2  UNL     1      -1.458  13.245   4.054  1.00  0.00     0.157 HD
HETATM    6  C3  UNL     1      -2.081  11.349   3.926  1.00  0.00     0.098 C 
HETATM    7  C18 UNL     1      -3.478  11.906   3.201  1.00  0.00     0.109 C 
HETATM    8  C19 UNL     1      -3.416  13.456   3.215  1.00  0.00    -0.018 A 
HETATM    9  C20 UNL     1      -4.738  13.910   3.579  1.00  0.00     0.010 A 
HETATM   10  C21 UNL     1      -4.965  15.237   3.667  1.00  0.00     0.001 A 
HETATM   11  C22 UNL     1      -4.013  16.217   3.432  1.00  0.00     0.002 A 
HETATM   12  C23 UNL     1      -2.709  15.827   3.073  1.00  0.00     0.030 A 
HETATM   13  C24 UNL     1      -2.502  14.504   2.989  1.00  0.00     0.042 A 
HETATM   14  C25 UNL     1      -3.159  11.416   1.780  1.00  0.00     0.031 A 
HETATM   15  N4  UNL     1      -3.899  10.614   1.074  1.00  0.00    -0.368 N 
ATOM     16  H4  UNL     1      -4.648  10.111   1.549  1.00  0.00     0.165 HD
HETATM   17  C26 UNL     1      -3.739  10.407  -0.249  1.00  0.00     0.088 A 
HETATM   18  C27 UNL     1      -2.750  11.054  -0.953  1.00  0.00     0.018 A 
HETATM   19  C28 UNL     1      -1.927  11.913  -0.272  1.00  0.00     0.014 A 
HETATM   20  C29 UNL     1      -2.069  12.144   1.109  1.00  0.00     0.007 A 
ENDROOT
BRANCH   6  21
HETATM   21  C4  UNL     1      -2.164  11.320   5.365  1.00  0.00    -0.025 A 
HETATM   22  C5  UNL     1      -3.249  11.684   6.096  1.00  0.00     0.010 A 
HETATM   23  C6  UNL     1      -3.230  11.635   7.497  1.00  0.00     0.001 A 
HETATM   24  C7  UNL     1      -2.112  11.217   8.180  1.00  0.00     0.000 A 
HETATM   25  C8  UNL     1      -1.004  10.846   7.454  1.00  0.00     0.001 A 
HETATM   26  C9  UNL     1      -1.029  10.897   6.093  1.00  0.00     0.010 A 
ENDBRANCH   6  21
BRANCH   6  27
HETATM   27  C10 UNL     1      -1.771  10.077   3.310  1.00  0.00     0.003 A 
HETATM   28  C11 UNL     1      -0.607   9.697   2.621  1.00  0.00     0.099 A 
HETATM   29  N3  UNL     1      -0.647   8.424   2.240  1.00  0.00    -0.365 N 
HETATM   30  C12 UNL     1      -1.834   7.922   2.663  1.00  0.00     0.043 A 
ATOM     31  H3  UNL     1       0.076   7.921   1.728  1.00  0.00     0.165 HD
HETATM   32  C13 UNL     1      -2.369   6.642   2.541  1.00  0.00     0.030 A 
HETATM   33  C17 UNL     1      -2.541   8.893   3.316  1.00  0.00     0.001 A 
HETATM   34  C14 UNL     1      -3.596   6.376   3.079  1.00  0.00     0.002 A 
HETATM   35  C15 UNL     1      -4.305   7.370   3.740  1.00  0.00     0.001 A 
HETATM   36  C16 UNL     1      -3.784   8.619   3.859  1.00  0.00     0.014 A 
ENDBRANCH   6  27
TORSDOF 2
ENDMDL
MODEL 2
REMARK VINA RESULT: -9.507326063      1.246      6.529
REMARK  2 active torsions:
REMARK  status: ('A' for Active; 'I' for Inactive)
REMARK    1  A    between atoms: C3_6  and  C4_7 
REMARK    2  A    between atoms: C3_6  and  C10_13 
ROOT
HETATM    1  C1  UNL     1       0.143   7.411   4.003  1.00  0.00     0.124 C 
HETATM    2  N1  UNL     1      -0.777   8.325   4.091  1.00  0.00    -0.340 N 
HETATM    3  C2  UNL     1      -1.095   9.783   4.312  1.00  0.00     0.220 C 
HETATM    4  N2  UNL     1      -1.684   9.866   3.103  1.00  0.00    -0.380 N 
ATOM      5  H2  UNL     1      -1.622   9.031   2.521  1.00  0.00     0.157 HD
HETATM    6  C3  UNL     1      -2.335  10.898   2.573  1.00  0.00     0.098 C 
HETATM    7  C18 UNL     1      -3.503  10.373   3.645  1.00  0.00     0.109 C 
HETATM    8  C19 UNL     1      -3.337   8.837   3.788  1.00  0.00    -0.018 A 
HETATM    9  C20 UNL     1      -4.670   8.283   3.775  1.00  0.00     0.010 A 
HETATM   10  C21 UNL     1      -4.818   6.947   3.886  1.00  0.00     0.001 A 
HETATM   11  C22 UNL     1      -3.770   6.047   4.012  1.00  0.00     0.002 A 
HETATM   12  C23 UNL     1      -2.451   6.535   4.030  1.00  0.00     0.030 A 
HETATM   13  C24 UNL     1      -2.324   7.866   3.921  1.00  0.00     0.042 A 
HETATM   14  C25 UNL     1      -2.923  11.047   4.898  1.00  0.00     0.031 A 
HETATM   15  N4  UNL     1      -3.551  11.895   5.658  1.00  0.00    -0.368 N 
ATOM     16  H4  UNL     1      -4.417  12.302   5.306  1.00  0.00     0.165 HD
HETATM   17  C26 UNL     1      -3.127  12.270   6.882  1.00  0.00     0.088 A 
HETATM   18  C27 UNL     1      -1.968  11.759   7.418  1.00  0.00     0.018 A 
HETATM   19  C28 UNL     1      -1.250  10.860   6.671  1.00  0.00     0.014 A 
HETATM   20  C29 UNL     1      -1.667  10.456   5.389  1.00  0.00     0.007 A 
ENDROOT
BRANCH   6  21
HETATM   21  C4  UNL     1      -2.725  10.748   1.194  1.00  0.00    -0.025 A 
HETATM   22  C5  UNL     1      -3.781  10.018   0.752  1.00  0.00     0.010 A 
HETATM   23  C6  UNL     1      -4.074   9.919  -0.615  1.00  0.00     0.001 A 
HETATM   24  C7  UNL     1      -3.301  10.556  -1.557  1.00  0.00     0.000 A 
HETATM   25  C8  UNL     1      -2.225  11.298  -1.126  1.00  0.00     0.001 A 
HETATM   26  C9  UNL     1      -1.947  11.390   0.204  1.00  0.00     0.010 A 
ENDBRANCH   6  21
BRANCH   6  27
HETATM   27  C10 UNL     1      -1.991  12.249   2.963  1.00  0.00     0.003 A 
HETATM   28  C11 UNL     1      -0.738  12.761   3.339  1.00  0.00     0.099 A 
HETATM   29  N3  UNL     1      -0.785  14.068   3.575  1.00  0.00    -0.365 N 
HETATM   30  C12 UNL     1      -2.064  14.463   3.363  1.00  0.00     0.043 A 
ATOM     31  H3  UNL     1      -0.006  14.661   3.861  1.00  0.00     0.165 HD
HETATM   32  C13 UNL     1      -2.648  15.725   3.454  1.00  0.00     0.030 A 
HETATM   33  C17 UNL     1      -2.824  13.389   2.990  1.00  0.00     0.001 A 
HETATM   34  C14 UNL     1      -3.975  15.869   3.165  1.00  0.00     0.002 A 
HETATM   35  C15 UNL     1      -4.738  14.771   2.786  1.00  0.00     0.001 A 
HETATM   36  C16 UNL     1      -4.169  13.541   2.699  1.00  0.00     0.014 A 
ENDBRANCH   6  27
TORSDOF 2
ENDMDL
MODEL 3
REMARK VINA RESULT: -8.636324264      0.938      1.787
REMARK  2 active torsions:
REMARK  status: ('A' for Active; 'I' for Inactive)
REMARK    1  A    between atoms: C3_6  and  C4_7 
REMARK    2  A    between atoms: C3_6  and  C10_13 
ROOT
HETATM    1  C1  UNL     1      -0.017  14.600   2.354  1.00  0.00     0.124 C 
HETATM    2  N1  UNL     1      -0.962  13.710   2.407  1.00  0.00    -0.340 N 
HETATM    3  C2  UNL     1      -1.371  12.282   2.144  1.00  0.00     0.220 C 
HETATM    4  N2  UNL     1      -1.665  12.097   3.445  1.00  0.00    -0.380 N 
ATOM      5  H2  UNL     1      -1.441  12.875   4.066  1.00  0.00     0.157 HD
HETATM    6  C3  UNL     1      -2.209  11.029   4.023  1.00  0.00     0.098 C 
HETATM    7  C18 UNL     1      -3.576  11.664   3.306  1.00  0.00     0.109 C 
HETATM    8  C19 UNL     1      -3.396  13.204   3.259  1.00  0.00    -0.018 A 
HETATM    9  C20 UNL     1      -4.671  13.771   3.632  1.00  0.00     0.010 A 
HETATM   10  C21 UNL     1      -4.795  15.114   3.673  1.00  0.00     0.001 A 
HETATM   11  C22 UNL     1      -3.777  16.009   3.382  1.00  0.00     0.002 A 
HETATM   12  C23 UNL     1      -2.515  15.507   3.012  1.00  0.00     0.030 A 
HETATM   13  C24 UNL     1      -2.411  14.171   2.975  1.00  0.00     0.042 A 
HETATM   14  C25 UNL     1      -3.327  11.099   1.898  1.00  0.00     0.031 A 
HETATM   15  N4  UNL     1      -4.141  10.331   1.238  1.00  0.00    -0.368 N 
ATOM     16  H4  UNL     1      -4.915   9.904   1.747  1.00  0.00     0.165 HD
HETATM   17  C26 UNL     1      -4.027  10.064  -0.079  1.00  0.00     0.088 A 
HETATM   18  C27 UNL     1      -3.009  10.607  -0.827  1.00  0.00     0.018 A 
HETATM   19  C28 UNL     1      -2.107  11.425  -0.196  1.00  0.00     0.014 A 
HETATM   20  C29 UNL     1      -2.200  11.717   1.178  1.00  0.00     0.007 A 
ENDROOT
BRANCH   6  21
HETATM   21  C4  UNL     1      -2.261  11.059   5.463  1.00  0.00    -0.025 A 
HETATM   22  C5  UNL     1      -3.390  11.189   6.206  1.00  0.00     0.010 A 
HETATM   23  C6  UNL     1      -3.340  11.222   7.606  1.00  0.00     0.001 A 
HETATM   24  C7  UNL     1      -2.144  11.125   8.278  1.00  0.00     0.000 A 
HETATM   25  C8  UNL     1      -0.989  10.994   7.540  1.00  0.00     0.001 A 
HETATM   26  C9  UNL     1      -1.046  10.964   6.181  1.00  0.00     0.010 A 
ENDBRANCH   6  21
BRANCH   6  27
HETATM   27  C10 UNL     1      -2.009   9.715   3.450  1.00  0.00     0.003 A 
HETATM   28  C11 UNL     1      -2.975   8.783   3.035  1.00  0.00     0.099 A 
HETATM   29  N3  UNL     1      -2.423   7.700   2.499  1.00  0.00    -0.365 N 
HETATM   30  C12 UNL     1      -1.080   7.879   2.539  1.00  0.00     0.043 A 
ATOM     31  H3  UNL     1      -2.916   6.889   2.127  1.00  0.00     0.165 HD
HETATM   32  C13 UNL     1      -0.045   7.059   2.094  1.00  0.00     0.030 A 
HETATM   33  C17 UNL     1      -0.791   9.088   3.107  1.00  0.00     0.001 A 
HETATM   34  C14 UNL     1       1.248   7.480   2.233  1.00  0.00     0.002 A 
HETATM   35  C15 UNL     1       1.529   8.711   2.811  1.00  0.00     0.001 A 
HETATM   36  C16 UNL     1       0.520   9.510   3.245  1.00  0.00     0.014 A 
ENDBRANCH   6  27
TORSDOF 2
ENDMDL
MODEL 4
REMARK VINA RESULT: -8.602518052      1.470      5.591
REMARK  2 active torsions:
REMARK  status: ('A' for Active; 'I' for Inactive)
REMARK    1  A    between atoms: C3_6  and  C4_7 
REMARK    2  A    between atoms: C3_6  and  C10_13 
ROOT
HETATM    1  C1  UNL     1      -3.195   6.969   2.794  1.00  0.00     0.124 C 
HETATM    2  N1  UNL     1      -2.652   8.148   2.726  1.00  0.00    -0.340 N 
HETATM    3  C2  UNL     1      -2.852   9.620   2.464  1.00  0.00     0.220 C 
HETATM    4  N2  UNL     1      -2.424   9.927   3.703  1.00  0.00    -0.380 N 
ATOM      5  H2  UNL     1      -2.232   9.135   4.316  1.00  0.00     0.157 HD
HETATM    6  C3  UNL     1      -2.220  11.133   4.229  1.00  0.00     0.098 C 
HETATM    7  C18 UNL     1      -0.864  11.036   3.260  1.00  0.00     0.109 C 
HETATM    8  C19 UNL     1      -0.468   9.539   3.173  1.00  0.00    -0.018 A 
HETATM    9  C20 UNL     1       0.971   9.494   3.296  1.00  0.00     0.010 A 
HETATM   10  C21 UNL     1       1.587   8.295   3.254  1.00  0.00     0.001 A 
HETATM   11  C22 UNL     1       0.937   7.080   3.099  1.00  0.00     0.002 A 
HETATM   12  C23 UNL     1      -0.465   7.069   2.973  1.00  0.00     0.030 A 
HETATM   13  C24 UNL     1      -1.060   8.270   3.017  1.00  0.00     0.042 A 
HETATM   14  C25 UNL     1      -1.547  11.440   1.943  1.00  0.00     0.031 A 
HETATM   15  N4  UNL     1      -1.203  12.441   1.190  1.00  0.00    -0.368 N 
ATOM     16  H4  UNL     1      -0.565  13.135   1.579  1.00  0.00     0.165 HD
HETATM   17  C26 UNL     1      -1.637  12.620  -0.074  1.00  0.00     0.088 A 
HETATM   18  C27 UNL     1      -2.497  11.722  -0.662  1.00  0.00     0.018 A 
HETATM   19  C28 UNL     1      -2.907  10.641   0.075  1.00  0.00     0.014 A 
HETATM   20  C29 UNL     1      -2.474  10.433   1.398  1.00  0.00     0.007 A 
ENDROOT
BRANCH   6  21
HETATM   21  C4  UNL     1      -1.909  11.154   5.636  1.00  0.00    -0.025 A 
HETATM   22  C5  UNL     1      -0.659  11.107   6.165  1.00  0.00     0.010 A 
HETATM   23  C6  UNL     1      -0.456  11.118   7.551  1.00  0.00     0.001 A 
HETATM   24  C7  UNL     1      -1.515  11.176   8.426  1.00  0.00     0.000 A 
HETATM   25  C8  UNL     1      -2.789  11.223   7.907  1.00  0.00     0.001 A 
HETATM   26  C9  UNL     1      -2.978  11.211   6.559  1.00  0.00     0.010 A 
ENDBRANCH   6  21
BRANCH   6  27
HETATM   27  C10 UNL     1      -2.988  12.266   3.760  1.00  0.00     0.003 A 
HETATM   28  C11 UNL     1      -4.261  12.279   3.166  1.00  0.00     0.099 A 
HETATM   29  N3  UNL     1      -4.681  13.514   2.916  1.00  0.00    -0.365 N 
HETATM   30  C12 UNL     1      -3.705  14.357   3.334  1.00  0.00     0.043 A 
ATOM     31  H3  UNL     1      -5.569  13.778   2.490  1.00  0.00     0.165 HD
HETATM   32  C13 UNL     1      -3.644  15.749   3.319  1.00  0.00     0.030 A 
HETATM   33  C17 UNL     1      -2.664  13.638   3.852  1.00  0.00     0.001 A 
HETATM   34  C14 UNL     1      -2.541  16.375   3.826  1.00  0.00     0.002 A 
HETATM   35  C15 UNL     1      -1.489  15.634   4.350  1.00  0.00     0.001 A 
HETATM   36  C16 UNL     1      -1.548  14.278   4.364  1.00  0.00     0.014 A 
ENDBRANCH   6  27
TORSDOF 2
ENDMDL
MODEL 5
REMARK VINA RESULT: -8.341677195      2.382      5.620
REMARK  2 active torsions:
REMARK  status: ('A' for Active; 'I' for Inactive)
REMARK    1  A    between atoms: C3_6  and  C4_7 
REMARK    2  A    between atoms: C3_6  and  C10_13 
ROOT
HETATM    1  C1  UNL     1      -4.840   9.891   4.784  1.00  0.00     0.124 C 
HETATM    2  N1  UNL     1      -3.642  10.084   4.316  1.00  0.00    -0.340 N 
HETATM    3  C2  UNL     1      -2.251   9.530   4.135  1.00  0.00     0.220 C 
HETATM    4  N2  UNL     1      -2.362   9.617   2.795  1.00  0.00    -0.380 N 
ATOM      5  H2  UNL     1      -3.274   9.907   2.442  1.00  0.00     0.157 HD
HETATM    6  C3  UNL     1      -1.433   9.373   1.874  1.00  0.00     0.098 C 
HETATM    7  C18 UNL     1      -0.887  10.857   2.411  1.00  0.00     0.109 C 
HETATM    8  C19 UNL     1      -2.130  11.666   2.864  1.00  0.00    -0.018 A 
HETATM    9  C20 UNL     1      -1.937  13.011   2.372  1.00  0.00     0.010 A 
HETATM   10  C21 UNL     1      -2.885  13.936   2.628  1.00  0.00     0.001 A 
HETATM   11  C22 UNL     1      -4.051  13.694   3.339  1.00  0.00     0.002 A 
HETATM   12  C23 UNL     1      -4.286  12.400   3.841  1.00  0.00     0.030 A 
HETATM   13  C24 UNL     1      -3.333  11.494   3.577  1.00  0.00     0.042 A 
HETATM   14  C25 UNL     1      -0.154  10.344   3.661  1.00  0.00     0.031 A 
HETATM   15  N4  UNL     1       1.105  10.526   3.926  1.00  0.00    -0.368 N 
ATOM     16  H4  UNL     1       1.709  10.860   3.175  1.00  0.00     0.165 HD
HETATM   17  C26 UNL     1       1.664  10.302   5.132  1.00  0.00     0.088 A 
HETATM   18  C27 UNL     1       0.908   9.852   6.190  1.00  0.00     0.018 A 
HETATM   19  C28 UNL     1      -0.429   9.634   5.984  1.00  0.00     0.014 A 
HETATM   20  C29 UNL     1      -1.037   9.855   4.734  1.00  0.00     0.007 A 
ENDROOT
BRANCH   6  21
HETATM   21  C4  UNL     1      -1.889   9.400   0.507  1.00  0.00    -0.025 A 
HETATM   22  C5  UNL     1      -1.788  10.462  -0.334  1.00  0.00     0.010 A 
HETATM   23  C6  UNL     1      -2.275  10.397  -1.646  1.00  0.00     0.001 A 
HETATM   24  C7  UNL     1      -2.873   9.257  -2.129  1.00  0.00     0.000 A 
HETATM   25  C8  UNL     1      -2.985   8.172  -1.290  1.00  0.00     0.001 A 
HETATM   26  C9  UNL     1      -2.510   8.243  -0.016  1.00  0.00     0.010 A 
ENDBRANCH   6  21
BRANCH   6  27
HETATM   27  C10 UNL     1      -0.379   8.419   2.144  1.00  0.00     0.003 A 
HETATM   28  C11 UNL     1      -0.283   7.491   3.195  1.00  0.00     0.099 A 
HETATM   29  N3  UNL     1       0.802   6.732   3.091  1.00  0.00    -0.365 N 
HETATM   30  C12 UNL     1       1.458   7.129   1.973  1.00  0.00     0.043 A 
ATOM     31  H3  UNL     1       1.088   5.991   3.731  1.00  0.00     0.165 HD
HETATM   32  C13 UNL     1       2.636   6.656   1.399  1.00  0.00     0.030 A 
HETATM   33  C17 UNL     1       0.773   8.148   1.372  1.00  0.00     0.001 A 
HETATM   34  C14 UNL     1       3.087   7.219   0.238  1.00  0.00     0.002 A 
HETATM   35  C15 UNL     1       2.382   8.253  -0.364  1.00  0.00     0.001 A 
HETATM   36  C16 UNL     1       1.234   8.715   0.196  1.00  0.00     0.014 A 
ENDBRANCH   6  27
TORSDOF 2
ENDMDL
