MODEL 1
REMARK VINA RESULT: -8.829246537      0.000      0.000
REMARK  2 active torsions:
REMARK  status: ('A' for Active; 'I' for Inactive)
REMARK    1  A    between atoms: C2_3  and  C3_4 
REMARK    2  A    between atoms: C17_19  and  N3_20 
ROOT
HETATM    1  C1  UNL     1      -2.787  10.812   3.308  1.00  0.00     0.156 C 
HETATM    2  N1  UNL     1      -1.892  10.054   2.457  1.00  0.00    -0.349 N 
HETATM    3  C2  UNL     1      -0.711   9.688   2.936  1.00  0.00     0.056 A 
HETATM    4  C9  UNL     1       0.135   8.959   2.106  1.00  0.00     0.003 A 
HETATM    5  C10 UNL     1       1.350   8.584   2.602  1.00  0.00     0.014 A 
HETATM    6  C11 UNL     1       2.200   7.860   1.791  1.00  0.00     0.001 A 
HETATM    7  C12 UNL     1       1.818   7.531   0.513  1.00  0.00     0.001 A 
HETATM    8  C13 UNL     1       0.587   7.906  -0.000  1.00  0.00     0.013 A 
HETATM    9  C14 UNL     1      -0.260   8.628   0.808  1.00  0.00    -0.011 A 
HETATM   10  C15 UNL     1      -1.506   9.032   0.348  1.00  0.00     0.004 A 
HETATM   11  C16 UNL     1      -1.911   8.717  -0.926  1.00  0.00     0.044 A 
HETATM   12  C17 UNL     1      -3.183   9.162  -1.315  1.00  0.00     0.046 A 
HETATM   13  C26 UNL     1      -4.006   9.880  -0.486  1.00  0.00     0.032 A 
HETATM   14  C27 UNL     1      -3.573  10.179   0.780  1.00  0.00     0.033 A 
HETATM   15  C28 UNL     1      -2.309   9.755   1.214  1.00  0.00     0.045 A 
ENDROOT
BRANCH  12  16
HETATM   16  N3  UNL     1      -3.614   8.846  -2.632  1.00  0.00    -0.244 N 
HETATM   17  C18 UNL     1      -4.173   7.600  -3.038  1.00  0.00     0.266 A 
HETATM   18  O1  UNL     1      -4.388   6.569  -2.341  1.00  0.00    -0.267 OA
HETATM   19  C19 UNL     1      -4.483   7.683  -4.471  1.00  0.00     0.048 A 
HETATM   20  C20 UNL     1      -5.034   6.760  -5.348  1.00  0.00     0.018 A 
HETATM   21  C24 UNL     1      -4.119   8.942  -4.900  1.00  0.00     0.048 A 
HETATM   22  C21 UNL     1      -5.205   7.149  -6.667  1.00  0.00     0.001 A 
HETATM   23  C22 UNL     1      -4.846   8.404  -7.111  1.00  0.00     0.001 A 
HETATM   24  C23 UNL     1      -4.295   9.327  -6.233  1.00  0.00     0.018 A 
HETATM   25  C25 UNL     1      -3.581   9.673  -3.778  1.00  0.00     0.266 A 
HETATM   26  O2  UNL     1      -3.142  10.854  -3.771  1.00  0.00    -0.267 OA
ENDBRANCH  12  16
BRANCH   3  27
HETATM   27  C3  UNL     1      -0.249  10.017   4.286  1.00  0.00    -0.008 A 
HETATM   28  C4  UNL     1      -0.370   9.166   5.366  1.00  0.00     0.015 A 
HETATM   29  C5  UNL     1       0.085   9.501   6.623  1.00  0.00     0.027 A 
HETATM   30  C6  UNL     1       0.684  10.723   6.831  1.00  0.00     0.046 A 
HETATM   31  N2  UNL     1       1.158  11.055   8.157  1.00  0.00    -0.102 NA
HETATM   32  C7  UNL     1       0.828  11.607   5.788  1.00  0.00     0.027 A 
HETATM   33  C8  UNL     1       0.365  11.246   4.545  1.00  0.00     0.015 A 
ENDBRANCH   3  27
TORSDOF 2
ENDMDL
MODEL 2
REMARK VINA RESULT: -8.791767119      0.036      1.535
REMARK  2 active torsions:
REMARK  status: ('A' for Active; 'I' for Inactive)
REMARK    1  A    between atoms: C2_3  and  C3_4 
REMARK    2  A    between atoms: C17_19  and  N3_20 
ROOT
HETATM    1  C1  UNL     1      -2.791  10.776   3.307  1.00  0.00     0.156 C 
HETATM    2  N1  UNL     1      -1.894  10.024   2.453  1.00  0.00    -0.349 N 
HETATM    3  C2  UNL     1      -0.710   9.664   2.928  1.00  0.00     0.056 A 
HETATM    4  C9  UNL     1       0.139   8.941   2.095  1.00  0.00     0.003 A 
HETATM    5  C10 UNL     1       1.357   8.572   2.588  1.00  0.00     0.014 A 
HETATM    6  C11 UNL     1       2.209   7.855   1.774  1.00  0.00     0.001 A 
HETATM    7  C12 UNL     1       1.827   7.526   0.497  1.00  0.00     0.001 A 
HETATM    8  C13 UNL     1       0.592   7.894  -0.013  1.00  0.00     0.013 A 
HETATM    9  C14 UNL     1      -0.257   8.610   0.798  1.00  0.00    -0.011 A 
HETATM   10  C15 UNL     1      -1.506   9.007   0.342  1.00  0.00     0.004 A 
HETATM   11  C16 UNL     1      -1.913   8.691  -0.932  1.00  0.00     0.044 A 
HETATM   12  C17 UNL     1      -3.188   9.130  -1.317  1.00  0.00     0.046 A 
HETATM   13  C26 UNL     1      -4.014   9.842  -0.486  1.00  0.00     0.032 A 
HETATM   14  C27 UNL     1      -3.580  10.141   0.780  1.00  0.00     0.033 A 
HETATM   15  C28 UNL     1      -2.312   9.724   1.211  1.00  0.00     0.045 A 
ENDROOT
BRANCH  12  16
HETATM   16  N3  UNL     1      -3.621   8.813  -2.634  1.00  0.00    -0.244 N 
HETATM   17  C18 UNL     1      -3.559   9.689  -3.754  1.00  0.00     0.266 A 
HETATM   18  O1  UNL     1      -3.126  10.874  -3.805  1.00  0.00    -0.267 OA
HETATM   19  C19 UNL     1      -4.103   8.980  -4.920  1.00  0.00     0.048 A 
HETATM   20  C20 UNL     1      -4.271   9.373  -6.240  1.00  0.00     0.018 A 
HETATM   21  C24 UNL     1      -4.476   7.721  -4.500  1.00  0.00     0.048 A 
HETATM   22  C21 UNL     1      -4.824   8.455  -7.118  1.00  0.00     0.001 A 
HETATM   23  C22 UNL     1      -5.202   7.192  -6.714  1.00  0.00     0.001 A 
HETATM   24  C23 UNL     1      -5.034   6.800  -5.394  1.00  0.00     0.018 A 
HETATM   25  C25 UNL     1      -4.185   7.600  -3.092  1.00  0.00     0.266 A 
HETATM   26  O2  UNL     1      -4.383   6.600  -2.351  1.00  0.00    -0.267 OA
ENDBRANCH  12  16
BRANCH   3  27
HETATM   27  C3  UNL     1      -0.246   9.994   4.279  1.00  0.00    -0.008 A 
HETATM   28  C4  UNL     1      -0.360   9.140   5.357  1.00  0.00     0.015 A 
HETATM   29  C5  UNL     1       0.096   9.476   6.614  1.00  0.00     0.027 A 
HETATM   30  C6  UNL     1       0.688  10.702   6.822  1.00  0.00     0.046 A 
HETATM   31  N2  UNL     1       1.163  11.035   8.147  1.00  0.00    -0.102 NA
HETATM   32  C7  UNL     1       0.825  11.588   5.780  1.00  0.00     0.027 A 
HETATM   33  C8  UNL     1       0.361  11.226   4.537  1.00  0.00     0.015 A 
ENDBRANCH   3  27
TORSDOF 2
ENDMDL
MODEL 3
REMARK VINA RESULT: -8.465234277      1.002      1.777
REMARK  2 active torsions:
REMARK  status: ('A' for Active; 'I' for Inactive)
REMARK    1  A    between atoms: C2_3  and  C3_4 
REMARK    2  A    between atoms: C17_19  and  N3_20 
ROOT
HETATM    1  C1  UNL     1      -2.493  11.052   2.735  1.00  0.00     0.156 C 
HETATM    2  N1  UNL     1      -1.588  10.215   1.973  1.00  0.00    -0.349 N 
HETATM    3  C2  UNL     1      -0.526   9.705   2.580  1.00  0.00     0.056 A 
HETATM    4  C9  UNL     1       0.332   8.902   1.835  1.00  0.00     0.003 A 
HETATM    5  C10 UNL     1       1.424   8.377   2.463  1.00  0.00     0.014 A 
HETATM    6  C11 UNL     1       2.284   7.579   1.737  1.00  0.00     0.001 A 
HETATM    7  C12 UNL     1       2.033   7.325   0.410  1.00  0.00     0.001 A 
HETATM    8  C13 UNL     1       0.927   7.852  -0.237  1.00  0.00     0.013 A 
HETATM    9  C14 UNL     1       0.071   8.648   0.486  1.00  0.00    -0.011 A 
HETATM   10  C15 UNL     1      -1.053   9.204  -0.108  1.00  0.00     0.004 A 
HETATM   11  C16 UNL     1      -1.327   8.967  -1.434  1.00  0.00     0.044 A 
HETATM   12  C17 UNL     1      -2.481   9.565  -1.960  1.00  0.00     0.046 A 
HETATM   13  C26 UNL     1      -3.317  10.354  -1.213  1.00  0.00     0.032 A 
HETATM   14  C27 UNL     1      -3.018  10.572   0.106  1.00  0.00     0.033 A 
HETATM   15  C28 UNL     1      -1.875   9.995   0.678  1.00  0.00     0.045 A 
ENDROOT
BRANCH  12  16
HETATM   16  N3  UNL     1      -2.774   9.330  -3.331  1.00  0.00    -0.244 N 
HETATM   17  C18 UNL     1      -2.086   9.915  -4.432  1.00  0.00     0.266 A 
HETATM   18  O1  UNL     1      -1.118  10.726  -4.416  1.00  0.00    -0.267 OA
HETATM   19  C19 UNL     1      -2.697   9.415  -5.671  1.00  0.00     0.048 A 
HETATM   20  C20 UNL     1      -2.410   9.666  -7.005  1.00  0.00     0.018 A 
HETATM   21  C24 UNL     1      -3.716   8.558  -5.312  1.00  0.00     0.048 A 
HETATM   22  C21 UNL     1      -3.182   9.026  -7.960  1.00  0.00     0.001 A 
HETATM   23  C22 UNL     1      -4.205   8.167  -7.618  1.00  0.00     0.001 A 
HETATM   24  C23 UNL     1      -4.492   7.916  -6.284  1.00  0.00     0.018 A 
HETATM   25  C25 UNL     1      -3.778   8.494  -3.872  1.00  0.00     0.266 A 
HETATM   26  O2  UNL     1      -4.576   7.819  -3.169  1.00  0.00    -0.267 OA
ENDBRANCH  12  16
BRANCH   3  27
HETATM   27  C3  UNL     1      -0.205   9.947   3.989  1.00  0.00    -0.008 A 
HETATM   28  C4  UNL     1      -0.525   9.074   5.008  1.00  0.00     0.015 A 
HETATM   29  C5  UNL     1      -0.200   9.326   6.324  1.00  0.00     0.027 A 
HETATM   30  C6  UNL     1       0.467  10.485   6.654  1.00  0.00     0.046 A 
HETATM   31  N2  UNL     1       0.803  10.730   8.039  1.00  0.00    -0.102 NA
HETATM   32  C7  UNL     1       0.808  11.387   5.674  1.00  0.00     0.027 A 
HETATM   33  C8  UNL     1       0.471  11.109   4.371  1.00  0.00     0.015 A 
ENDBRANCH   3  27
TORSDOF 2
ENDMDL
MODEL 4
REMARK VINA RESULT: -8.294882733      1.464      1.601
REMARK  2 active torsions:
REMARK  status: ('A' for Active; 'I' for Inactive)
REMARK    1  A    between atoms: C2_3  and  C3_4 
REMARK    2  A    between atoms: C17_19  and  N3_20 
ROOT
HETATM    1  C1  UNL     1      -2.836  11.099   2.176  1.00  0.00     0.156 C 
HETATM    2  N1  UNL     1      -1.836  10.261   1.546  1.00  0.00    -0.349 N 
HETATM    3  C2  UNL     1      -0.855   9.769   2.289  1.00  0.00     0.056 A 
HETATM    4  C9  UNL     1       0.098   8.965   1.670  1.00  0.00     0.003 A 
HETATM    5  C10 UNL     1       1.106   8.459   2.438  1.00  0.00     0.014 A 
HETATM    6  C11 UNL     1       2.057   7.660   1.838  1.00  0.00     0.001 A 
HETATM    7  C12 UNL     1       1.978   7.387   0.494  1.00  0.00     0.001 A 
HETATM    8  C13 UNL     1       0.958   7.894  -0.295  1.00  0.00     0.013 A 
HETATM    9  C14 UNL     1       0.010   8.691   0.303  1.00  0.00    -0.011 A 
HETATM   10  C15 UNL     1      -1.034   9.229  -0.436  1.00  0.00     0.004 A 
HETATM   11  C16 UNL     1      -1.135   8.972  -1.783  1.00  0.00     0.044 A 
HETATM   12  C17 UNL     1      -2.218   9.552  -2.459  1.00  0.00     0.046 A 
HETATM   13  C26 UNL     1      -3.149  10.343  -1.834  1.00  0.00     0.032 A 
HETATM   14  C27 UNL     1      -3.021  10.580  -0.491  1.00  0.00     0.033 A 
HETATM   15  C28 UNL     1      -1.954  10.021   0.229  1.00  0.00     0.045 A 
ENDROOT
BRANCH  12  16
HETATM   16  N3  UNL     1      -2.334   9.297  -3.852  1.00  0.00    -0.244 N 
HETATM   17  C18 UNL     1      -3.213   8.346  -4.444  1.00  0.00     0.266 A 
HETATM   18  O1  UNL     1      -4.032   7.569  -3.877  1.00  0.00    -0.267 OA
HETATM   19  C19 UNL     1      -3.024   8.393  -5.901  1.00  0.00     0.048 A 
HETATM   20  C20 UNL     1      -3.624   7.682  -6.929  1.00  0.00     0.018 A 
HETATM   21  C24 UNL     1      -2.062   9.346  -6.161  1.00  0.00     0.048 A 
HETATM   22  C21 UNL     1      -3.222   7.964  -8.225  1.00  0.00     0.001 A 
HETATM   23  C22 UNL     1      -2.261   8.913  -8.502  1.00  0.00     0.001 A 
HETATM   24  C23 UNL     1      -1.661   9.624  -7.473  1.00  0.00     0.018 A 
HETATM   25  C25 UNL     1      -1.625   9.913  -4.908  1.00  0.00     0.266 A 
HETATM   26  O2  UNL     1      -0.759  10.811  -4.735  1.00  0.00    -0.267 OA
ENDBRANCH  12  16
BRANCH   3  27
HETATM   27  C3  UNL     1      -0.716  10.032   3.724  1.00  0.00    -0.008 A 
HETATM   28  C4  UNL     1      -1.305   9.260   4.705  1.00  0.00     0.015 A 
HETATM   29  C5  UNL     1      -1.147   9.528   6.048  1.00  0.00     0.027 A 
HETATM   30  C6  UNL     1      -0.379  10.600   6.446  1.00  0.00     0.046 A 
HETATM   31  N2  UNL     1      -0.222  10.863   7.860  1.00  0.00    -0.102 NA
HETATM   32  C7  UNL     1       0.228  11.400   5.507  1.00  0.00     0.027 A 
HETATM   33  C8  UNL     1       0.053  11.109   4.175  1.00  0.00     0.015 A 
ENDBRANCH   3  27
TORSDOF 2
ENDMDL
MODEL 5
REMARK VINA RESULT: -7.980475519      1.424      3.139
REMARK  2 active torsions:
REMARK  status: ('A' for Active; 'I' for Inactive)
REMARK    1  A    between atoms: C2_3  and  C3_4 
REMARK    2  A    between atoms: C17_19  and  N3_20 
ROOT
HETATM    1  C1  UNL     1       0.371   8.785   2.654  1.00  0.00     0.156 C 
HETATM    2  N1  UNL     1      -0.613   9.792   2.311  1.00  0.00    -0.349 N 
HETATM    3  C2  UNL     1      -0.932  10.709   3.214  1.00  0.00     0.056 A 
HETATM    4  C9  UNL     1      -1.877  11.670   2.869  1.00  0.00     0.003 A 
HETATM    5  C10 UNL     1      -2.202  12.612   3.801  1.00  0.00     0.014 A 
HETATM    6  C11 UNL     1      -3.137  13.571   3.473  1.00  0.00     0.001 A 
HETATM    7  C12 UNL     1      -3.721  13.567   2.229  1.00  0.00     0.001 A 
HETATM    8  C13 UNL     1      -3.398  12.616   1.275  1.00  0.00     0.013 A 
HETATM    9  C14 UNL     1      -2.465  11.660   1.602  1.00  0.00    -0.011 A 
HETATM   10  C15 UNL     1      -2.102  10.681   0.688  1.00  0.00     0.004 A 
HETATM   11  C16 UNL     1      -2.671  10.654  -0.563  1.00  0.00     0.044 A 
HETATM   12  C17 UNL     1      -2.251   9.633  -1.428  1.00  0.00     0.046 A 
HETATM   13  C26 UNL     1      -1.318   8.693  -1.074  1.00  0.00     0.032 A 
HETATM   14  C27 UNL     1      -0.768   8.747   0.181  1.00  0.00     0.033 A 
HETATM   15  C28 UNL     1      -1.157   9.749   1.082  1.00  0.00     0.045 A 
ENDROOT
BRANCH  12  16
HETATM   16  N3  UNL     1      -2.834   9.592  -2.724  1.00  0.00    -0.244 N 
HETATM   17  C18 UNL     1      -4.043   8.921  -3.061  1.00  0.00     0.266 A 
HETATM   18  O1  UNL     1      -4.812   8.256  -2.311  1.00  0.00    -0.267 OA
HETATM   19  C19 UNL     1      -4.293   9.120  -4.495  1.00  0.00     0.048 A 
HETATM   20  C20 UNL     1      -5.320   8.684  -5.320  1.00  0.00     0.018 A 
HETATM   21  C24 UNL     1      -3.260   9.887  -4.991  1.00  0.00     0.048 A 
HETATM   22  C21 UNL     1      -5.269   9.047  -6.656  1.00  0.00     0.001 A 
HETATM   23  C22 UNL     1      -4.243   9.814  -7.167  1.00  0.00     0.001 A 
HETATM   24  C23 UNL     1      -3.216  10.249  -6.342  1.00  0.00     0.018 A 
HETATM   25  C25 UNL     1      -2.350  10.187  -3.912  1.00  0.00     0.266 A 
HETATM   26  O2  UNL     1      -1.289  10.863  -3.969  1.00  0.00    -0.267 OA
ENDBRANCH  12  16
BRANCH   3  27
HETATM   27  C3  UNL     1      -0.348  10.758   4.557  1.00  0.00    -0.008 A 
HETATM   28  C4  UNL     1       0.945  11.163   4.816  1.00  0.00     0.015 A 
HETATM   29  C5  UNL     1       1.462  11.208   6.093  1.00  0.00     0.027 A 
HETATM   30  C6  UNL     1       0.677  10.838   7.163  1.00  0.00     0.046 A 
HETATM   31  N2  UNL     1       1.236  10.895   8.495  1.00  0.00    -0.102 NA
HETATM   32  C7  UNL     1      -0.618  10.426   6.957  1.00  0.00     0.027 A 
HETATM   33  C8  UNL     1      -1.107  10.392   5.673  1.00  0.00     0.015 A 
ENDBRANCH   3  27
TORSDOF 2
ENDMDL
