MODEL 1
REMARK VINA RESULT: -7.293656430      0.000      0.000
REMARK  6 active torsions:
REMARK  status: ('A' for Active; 'I' for Inactive)
REMARK    1  A    between atoms: N1_2  and  C2_4 
REMARK    2  A    between atoms: C4_6  and  N2_7 
REMARK    3  A    between atoms: N2_7  and  N3_9 
REMARK    4  A    between atoms: C5_11  and  C6_12 
REMARK    5  A    between atoms: C8_22  and  N8_23 
REMARK    6  A    between atoms: C9_30  and  N12_31 
ROOT
HETATM    1  C2  UNL     1      14.548  47.054 -50.890  1.00  0.00     0.120 A 
HETATM    2  C3  UNL     1      14.154  46.361 -49.764  1.00  0.00     0.099 A 
HETATM    3  C4  UNL     1      13.470  47.059 -48.797  1.00  0.00     0.139 A 
HETATM    4  N7  UNL     1      13.199  48.373 -48.949  1.00  0.00    -0.173 N 
ATOM      5  H7  UNL     1      12.690  48.866 -48.215  1.00  0.00     0.186 HD
HETATM    6  C8  UNL     1      13.585  49.047 -50.049  1.00  0.00     0.723 A 
HETATM    7  N13 UNL     1      14.253  48.371 -50.997  1.00  0.00    -0.174 N 
ATOM      8  H13 UNL     1      14.551  48.871 -51.835  1.00  0.00     0.186 HD
ENDROOT
BRANCH   3   9
HETATM    9  N2  UNL     1      13.053  46.352 -47.619  1.00  0.00    -0.285 N 
ATOM     10  H2  UNL     1      12.235  45.747 -47.686  1.00  0.00     0.188 HD
BRANCH   9  11
HETATM   11  N3  UNL     1      13.690  46.443 -46.413  1.00  0.00    -0.308 N 
HETATM   12  C5  UNL     1      13.298  47.028 -45.396  1.00  0.00     0.139 C 
ATOM     13  H3  UNL     1      14.594  45.974 -46.345  1.00  0.00     0.186 HD
BRANCH  12  14
HETATM   14  C6  UNL     1      12.061  47.760 -45.241  1.00  0.00     0.083 A 
HETATM   15  C7  UNL     1      10.818  47.364 -44.828  1.00  0.00     0.141 A 
HETATM   16  N4  UNL     1       9.997  48.457 -44.862  1.00  0.00    -0.295 N 
HETATM   17  N5  UNL     1      10.707  49.474 -45.280  1.00  0.00    -0.243 N 
ATOM     18  H4  UNL     1       9.010  48.477 -44.609  1.00  0.00     0.187 HD
HETATM   19  N6  UNL     1      11.919  49.103 -45.511  1.00  0.00    -0.284 N 
ATOM     20  H5  UNL     1      10.353  50.423 -45.404  1.00  0.00     0.208 HD
ATOM     21  H6  UNL     1      12.664  49.714 -45.845  1.00  0.00     0.188 HD
ENDBRANCH  12  14
ENDBRANCH   9  11
ENDBRANCH   3   9
BRANCH   1  22
HETATM   22  N1  UNL     1      15.193  46.407 -51.808  1.00  0.00    -0.380 N 
HETATM   23  C1  UNL     1      14.525  45.721 -52.888  1.00  0.00     0.147 C 
ATOM     24  H1  UNL     1      16.211  46.382 -51.766  1.00  0.00     0.160 HD
ENDBRANCH   1  22
BRANCH   6  25
HETATM   25  N8  UNL     1      13.293  50.435 -50.201  1.00  0.00     0.107 N 
HETATM   26  N9  UNL     1      12.321  50.921 -50.951  1.00  0.00    -0.191 N 
HETATM   27  N10 UNL     1      12.302  52.235 -50.888  1.00  0.00    -0.212 N 
ATOM     28  H9  UNL     1      11.675  50.356 -51.503  1.00  0.00     0.211 HD
HETATM   29  N11 UNL     1      13.281  52.592 -50.082  1.00  0.00    -0.114 N 
ATOM     30  H10 UNL     1      11.653  52.858 -51.371  1.00  0.00     0.210 HD
HETATM   31  C9  UNL     1      13.889  51.493 -49.659  1.00  0.00     0.729 A 
ATOM     32  H11 UNL     1      13.528  53.548 -49.827  1.00  0.00     0.207 HD
BRANCH  31  33
HETATM   33  N12 UNL     1      14.891  51.428 -48.858  1.00  0.00    -0.231 N 
ATOM     34 2H12 UNL     1      14.858  51.392 -47.840  1.00  0.00     0.174 HD
ATOM     35 1H12 UNL     1      15.865  51.402 -49.159  1.00  0.00     0.174 HD
ENDBRANCH  31  33
ENDBRANCH   6  25
TORSDOF 6
ENDMDL
MODEL 2
REMARK VINA RESULT: -7.154870184      3.539      6.558
REMARK  6 active torsions:
REMARK  status: ('A' for Active; 'I' for Inactive)
REMARK    1  A    between atoms: N1_2  and  C2_4 
REMARK    2  A    between atoms: C4_6  and  N2_7 
REMARK    3  A    between atoms: N2_7  and  N3_9 
REMARK    4  A    between atoms: C5_11  and  C6_12 
REMARK    5  A    between atoms: C8_22  and  N8_23 
REMARK    6  A    between atoms: C9_30  and  N12_31 
ROOT
HETATM    1  C2  UNL     1      16.244  46.619 -55.414  1.00  0.00     0.120 A 
HETATM    2  C3  UNL     1      15.083  46.301 -54.739  1.00  0.00     0.099 A 
HETATM    3  C4  UNL     1      15.200  45.910 -53.425  1.00  0.00     0.139 A 
HETATM    4  N7  UNL     1      16.407  45.843 -52.825  1.00  0.00    -0.173 N 
ATOM      5  H7  UNL     1      16.464  45.550 -51.850  1.00  0.00     0.186 HD
HETATM    6  C8  UNL     1      17.538  46.155 -53.486  1.00  0.00     0.723 A 
HETATM    7  N13 UNL     1      17.431  46.537 -54.769  1.00  0.00    -0.174 N 
ATOM      8  H13 UNL     1      18.281  46.775 -55.280  1.00  0.00     0.186 HD
ENDROOT
BRANCH   3   9
HETATM    9  N2  UNL     1      14.001  45.574 -52.710  1.00  0.00    -0.285 N 
ATOM     10  H2  UNL     1      13.118  45.586 -53.219  1.00  0.00     0.188 HD
BRANCH   9  11
HETATM   11  N3  UNL     1      13.977  45.240 -51.385  1.00  0.00    -0.308 N 
HETATM   12  C5  UNL     1      13.946  46.007 -50.415  1.00  0.00     0.139 C 
ATOM     13  H3  UNL     1      13.985  44.242 -51.172  1.00  0.00     0.186 HD
BRANCH  12  14
HETATM   14  C6  UNL     1      13.928  47.452 -50.453  1.00  0.00     0.083 A 
HETATM   15  C7  UNL     1      14.927  48.367 -50.648  1.00  0.00     0.141 A 
HETATM   16  N4  UNL     1      14.369  49.614 -50.589  1.00  0.00    -0.295 N 
HETATM   17  N5  UNL     1      13.089  49.467 -50.366  1.00  0.00    -0.243 N 
ATOM     18  H4  UNL     1      14.863  50.499 -50.698  1.00  0.00     0.187 HD
HETATM   19  N6  UNL     1      12.795  48.215 -50.281  1.00  0.00    -0.284 N 
ATOM     20  H5  UNL     1      12.420  50.232 -50.274  1.00  0.00     0.208 HD
ATOM     21  H6  UNL     1      11.860  47.844 -50.111  1.00  0.00     0.188 HD
ENDBRANCH  12  14
ENDBRANCH   9  11
ENDBRANCH   3   9
BRANCH   1  22
HETATM   22  N1  UNL     1      16.146  46.988 -56.651  1.00  0.00    -0.380 N 
HETATM   23  C1  UNL     1      15.743  48.320 -57.034  1.00  0.00     0.147 C 
ATOM     24  H1  UNL     1      16.362  46.312 -57.382  1.00  0.00     0.160 HD
ENDBRANCH   1  22
BRANCH   6  25
HETATM   25  N8  UNL     1      18.810  46.082 -52.843  1.00  0.00     0.107 N 
HETATM   26  N9  UNL     1      19.690  45.116 -53.026  1.00  0.00    -0.191 N 
HETATM   27  N10 UNL     1      20.765  45.325 -52.296  1.00  0.00    -0.212 N 
ATOM     28  H9  UNL     1      19.556  44.318 -53.647  1.00  0.00     0.211 HD
HETATM   29  N11 UNL     1      20.563  46.447 -51.635  1.00  0.00    -0.114 N 
ATOM     30  H10 UNL     1      21.594  44.733 -52.251  1.00  0.00     0.210 HD
HETATM   31  C9  UNL     1      19.368  46.912 -51.967  1.00  0.00     0.729 A 
ATOM     32  H11 UNL     1      21.214  46.881 -50.981  1.00  0.00     0.207 HD
BRANCH  31  33
HETATM   33  N12 UNL     1      18.812  47.987 -51.533  1.00  0.00    -0.231 N 
ATOM     34 2H12 UNL     1      17.885  48.335 -51.775  1.00  0.00     0.174 HD
ATOM     35 1H12 UNL     1      19.248  48.633 -50.877  1.00  0.00     0.174 HD
ENDBRANCH  31  33
ENDBRANCH   6  25
TORSDOF 6
ENDMDL
MODEL 3
REMARK VINA RESULT: -7.105010402      3.276      6.500
REMARK  6 active torsions:
REMARK  status: ('A' for Active; 'I' for Inactive)
REMARK    1  A    between atoms: N1_2  and  C2_4 
REMARK    2  A    between atoms: C4_6  and  N2_7 
REMARK    3  A    between atoms: N2_7  and  N3_9 
REMARK    4  A    between atoms: C5_11  and  C6_12 
REMARK    5  A    between atoms: C8_22  and  N8_23 
REMARK    6  A    between atoms: C9_30  and  N12_31 
ROOT
HETATM    1  C2  UNL     1      13.017  51.174 -49.704  1.00  0.00     0.120 A 
HETATM    2  C3  UNL     1      14.352  51.478 -49.528  1.00  0.00     0.099 A 
HETATM    3  C4  UNL     1      14.924  51.146 -48.322  1.00  0.00     0.139 A 
HETATM    4  N7  UNL     1      14.202  50.547 -47.352  1.00  0.00    -0.173 N 
ATOM      5  H7  UNL     1      14.652  50.312 -46.467  1.00  0.00     0.186 HD
HETATM    6  C8  UNL     1      12.900  50.251 -47.527  1.00  0.00     0.723 A 
HETATM    7  N13 UNL     1      12.335  50.572 -48.702  1.00  0.00    -0.174 N 
ATOM      8  H13 UNL     1      11.349  50.353 -48.846  1.00  0.00     0.186 HD
ENDROOT
BRANCH   3   9
HETATM    9  N2  UNL     1      16.311  51.456 -48.123  1.00  0.00    -0.285 N 
ATOM     10  H2  UNL     1      16.607  51.765 -47.197  1.00  0.00     0.188 HD
BRANCH   9  11
HETATM   11  N3  UNL     1      17.259  51.361 -49.103  1.00  0.00    -0.308 N 
HETATM   12  C5  UNL     1      18.450  51.053 -48.972  1.00  0.00     0.139 C 
ATOM     13  H3  UNL     1      16.947  51.567 -50.052  1.00  0.00     0.186 HD
BRANCH  12  14
HETATM   14  C6  UNL     1      19.128  50.719 -47.740  1.00  0.00     0.083 A 
HETATM   15  C7  UNL     1      18.956  49.683 -46.862  1.00  0.00     0.141 A 
HETATM   16  N4  UNL     1      19.863  49.837 -45.850  1.00  0.00    -0.295 N 
HETATM   17  N5  UNL     1      20.556  50.919 -46.098  1.00  0.00    -0.243 N 
ATOM     18  H4  UNL     1      19.979  49.220 -45.047  1.00  0.00     0.187 HD
HETATM   19  N6  UNL     1      20.152  51.460 -47.196  1.00  0.00    -0.284 N 
ATOM     20  H5  UNL     1      21.306  51.280 -45.509  1.00  0.00     0.208 HD
ATOM     21  H6  UNL     1      20.536  52.314 -47.602  1.00  0.00     0.188 HD
ENDBRANCH  12  14
ENDBRANCH   9  11
ENDBRANCH   3   9
BRANCH   1  22
HETATM   22  N1  UNL     1      12.468  51.482 -50.835  1.00  0.00    -0.380 N 
HETATM   23  C1  UNL     1      12.363  52.844 -51.302  1.00  0.00     0.147 C 
ATOM     24  H1  UNL     1      12.094  50.733 -51.418  1.00  0.00     0.160 HD
ENDBRANCH   1  22
BRANCH   6  25
HETATM   25  N8  UNL     1      12.145  49.616 -46.495  1.00  0.00     0.107 N 
HETATM   26  N9  UNL     1      11.088  50.143 -45.905  1.00  0.00    -0.191 N 
HETATM   27  N10 UNL     1      10.609  49.320 -44.997  1.00  0.00    -0.212 N 
ATOM     28  H9  UNL     1      10.698  51.060 -46.122  1.00  0.00     0.211 HD
HETATM   29  N11 UNL     1      11.376  48.249 -45.010  1.00  0.00    -0.114 N 
ATOM     30  H10 UNL     1       9.799  49.481 -44.397  1.00  0.00     0.210 HD
HETATM   31  C9  UNL     1      12.316  48.427 -45.926  1.00  0.00     0.729 A 
ATOM     32  H11 UNL     1      11.265  47.426 -44.418  1.00  0.00     0.207 HD
BRANCH  31  33
HETATM   33  N12 UNL     1      13.253  47.604 -46.237  1.00  0.00    -0.231 N 
ATOM     34 2H12 UNL     1      14.256  47.748 -46.120  1.00  0.00     0.174 HD
ATOM     35 1H12 UNL     1      13.097  46.685 -46.649  1.00  0.00     0.174 HD
ENDBRANCH  31  33
ENDBRANCH   6  25
TORSDOF 6
ENDMDL
MODEL 4
REMARK VINA RESULT: -7.094919991      0.801      1.410
REMARK  6 active torsions:
REMARK  status: ('A' for Active; 'I' for Inactive)
REMARK    1  A    between atoms: N1_2  and  C2_4 
REMARK    2  A    between atoms: C4_6  and  N2_7 
REMARK    3  A    between atoms: N2_7  and  N3_9 
REMARK    4  A    between atoms: C5_11  and  C6_12 
REMARK    5  A    between atoms: C8_22  and  N8_23 
REMARK    6  A    between atoms: C9_30  and  N12_31 
ROOT
HETATM    1  C2  UNL     1      13.686  46.484 -51.029  1.00  0.00     0.120 A 
HETATM    2  C3  UNL     1      13.314  45.762 -49.913  1.00  0.00     0.099 A 
HETATM    3  C4  UNL     1      13.166  46.450 -48.732  1.00  0.00     0.139 A 
HETATM    4  N7  UNL     1      13.378  47.782 -48.673  1.00  0.00    -0.173 N 
ATOM      5  H7  UNL     1      13.260  48.267 -47.783  1.00  0.00     0.186 HD
HETATM    6  C8  UNL     1      13.740  48.485 -49.763  1.00  0.00     0.723 A 
HETATM    7  N13 UNL     1      13.886  47.818 -50.920  1.00  0.00    -0.174 N 
ATOM      8  H13 UNL     1      14.161  48.340 -51.752  1.00  0.00     0.186 HD
ENDROOT
BRANCH   3   9
HETATM    9  N2  UNL     1      12.780  45.713 -47.562  1.00  0.00    -0.285 N 
ATOM     10  H2  UNL     1      11.952  45.120 -47.619  1.00  0.00     0.188 HD
BRANCH   9  11
HETATM   11  N3  UNL     1      13.459  45.759 -46.378  1.00  0.00    -0.308 N 
HETATM   12  C5  UNL     1      13.180  46.428 -45.375  1.00  0.00     0.139 C 
ATOM     13  H3  UNL     1      14.293  45.175 -46.312  1.00  0.00     0.186 HD
BRANCH  12  14
HETATM   14  C6  UNL     1      12.058  47.327 -45.218  1.00  0.00     0.083 A 
HETATM   15  C7  UNL     1      10.751  47.097 -44.886  1.00  0.00     0.141 A 
HETATM   16  N4  UNL     1      10.103  48.301 -44.876  1.00  0.00    -0.295 N 
HETATM   17  N5  UNL     1      10.975  49.224 -45.190  1.00  0.00    -0.243 N 
ATOM     18  H4  UNL     1       9.118  48.452 -44.663  1.00  0.00     0.187 HD
HETATM   19  N6  UNL     1      12.129  48.690 -45.397  1.00  0.00    -0.284 N 
ATOM     20  H5  UNL     1      10.772  50.221 -45.260  1.00  0.00     0.208 HD
ATOM     21  H6  UNL     1      12.973  49.203 -45.656  1.00  0.00     0.188 HD
ENDBRANCH  12  14
ENDBRANCH   9  11
ENDBRANCH   3   9
BRANCH   1  22
HETATM   22  N1  UNL     1      13.829  45.847 -52.146  1.00  0.00    -0.380 N 
HETATM   23  C1  UNL     1      14.976  46.030 -53.003  1.00  0.00     0.147 C 
ATOM     24  H1  UNL     1      13.103  45.190 -52.433  1.00  0.00     0.160 HD
ENDBRANCH   1  22
BRANCH   6  25
HETATM   25  N8  UNL     1      13.961  49.893 -49.691  1.00  0.00     0.107 N 
HETATM   26  N9  UNL     1      15.037  50.459 -49.178  1.00  0.00    -0.191 N 
HETATM   27  N10 UNL     1      14.949  51.770 -49.254  1.00  0.00    -0.212 N 
ATOM     28  H9  UNL     1      15.826  49.951 -48.778  1.00  0.00     0.211 HD
HETATM   29  N11 UNL     1      13.794  52.042 -49.826  1.00  0.00    -0.114 N 
ATOM     30  H10 UNL     1      15.643  52.445 -48.931  1.00  0.00     0.210 HD
HETATM   31  C9  UNL     1      13.187  50.896 -50.095  1.00  0.00     0.729 A 
ATOM     32  H11 UNL     1      13.431  52.974 -50.027  1.00  0.00     0.207 HD
BRANCH  31  33
HETATM   33  N12 UNL     1      12.040  50.745 -50.654  1.00  0.00    -0.231 N 
ATOM     34 2H12 UNL     1      11.322  50.065 -50.402  1.00  0.00     0.174 HD
ATOM     35 1H12 UNL     1      11.705  51.305 -51.437  1.00  0.00     0.174 HD
ENDBRANCH  31  33
ENDBRANCH   6  25
TORSDOF 6
ENDMDL
MODEL 5
REMARK VINA RESULT: -7.060095851      2.494      6.558
REMARK  6 active torsions:
REMARK  status: ('A' for Active; 'I' for Inactive)
REMARK    1  A    between atoms: N1_2  and  C2_4 
REMARK    2  A    between atoms: C4_6  and  N2_7 
REMARK    3  A    between atoms: N2_7  and  N3_9 
REMARK    4  A    between atoms: C5_11  and  C6_12 
REMARK    5  A    between atoms: C8_22  and  N8_23 
REMARK    6  A    between atoms: C9_30  and  N12_31 
ROOT
HETATM    1  C2  UNL     1      15.421  49.176 -48.093  1.00  0.00     0.120 A 
HETATM    2  C3  UNL     1      14.878  50.215 -48.822  1.00  0.00     0.099 A 
HETATM    3  C4  UNL     1      13.544  50.492 -48.634  1.00  0.00     0.139 A 
HETATM    4  N7  UNL     1      12.800  49.771 -47.767  1.00  0.00    -0.173 N 
ATOM      5  H7  UNL     1      11.814  49.999 -47.648  1.00  0.00     0.186 HD
HETATM    6  C8  UNL     1      13.333  48.758 -47.058  1.00  0.00     0.723 A 
HETATM    7  N13 UNL     1      14.635  48.483 -47.237  1.00  0.00    -0.174 N 
ATOM      8  H13 UNL     1      15.049  47.717 -46.705  1.00  0.00     0.186 HD
ENDROOT
BRANCH   3   9
HETATM    9  N2  UNL     1      12.964  51.569 -49.384  1.00  0.00    -0.285 N 
ATOM     10  H2  UNL     1      12.841  52.468 -48.918  1.00  0.00     0.188 HD
BRANCH   9  11
HETATM   11  N3  UNL     1      12.568  51.459 -50.687  1.00  0.00    -0.308 N 
HETATM   12  C5  UNL     1      12.296  52.376 -51.472  1.00  0.00     0.139 C 
ATOM     13  H3  UNL     1      12.486  50.511 -51.055  1.00  0.00     0.186 HD
BRANCH  12  14
HETATM   14  C6  UNL     1      12.334  53.794 -51.194  1.00  0.00     0.083 A 
HETATM   15  C7  UNL     1      11.336  54.721 -51.064  1.00  0.00     0.141 A 
HETATM   16  N4  UNL     1      11.918  55.930 -50.800  1.00  0.00    -0.295 N 
HETATM   17  N5  UNL     1      13.213  55.750 -50.772  1.00  0.00    -0.243 N 
ATOM     18  H4  UNL     1      11.430  56.812 -50.652  1.00  0.00     0.187 HD
HETATM   19  N6  UNL     1      13.492  54.512 -50.998  1.00  0.00    -0.284 N 
ATOM     20  H5  UNL     1      13.901  56.482 -50.596  1.00  0.00     0.208 HD
ATOM     21  H6  UNL     1      14.435  54.122 -51.028  1.00  0.00     0.188 HD
ENDBRANCH  12  14
ENDBRANCH   9  11
ENDBRANCH   3   9
BRANCH   1  22
HETATM   22  N1  UNL     1      16.676  48.905 -48.262  1.00  0.00    -0.380 N 
HETATM   23  C1  UNL     1      17.469  48.240 -47.256  1.00  0.00     0.147 C 
ATOM     24  H1  UNL     1      17.121  49.172 -49.140  1.00  0.00     0.160 HD
ENDBRANCH   1  22
BRANCH   6  25
HETATM   25  N8  UNL     1      12.539  48.003 -46.144  1.00  0.00     0.107 N 
HETATM   26  N9  UNL     1      11.954  48.499 -45.070  1.00  0.00    -0.191 N 
HETATM   27  N10 UNL     1      11.293  47.559 -44.429  1.00  0.00    -0.212 N 
ATOM     28  H9  UNL     1      12.008  49.475 -44.777  1.00  0.00     0.211 HD
HETATM   29  N11 UNL     1      11.460  46.443 -45.109  1.00  0.00    -0.114 N 
ATOM     30  H10 UNL     1      10.754  47.673 -43.569  1.00  0.00     0.210 HD
HETATM   31  C9  UNL     1      12.222  46.712 -46.160  1.00  0.00     0.729 A 
ATOM     32  H11 UNL     1      11.071  45.532 -44.869  1.00  0.00     0.207 HD
BRANCH  31  33
HETATM   33  N12 UNL     1      12.608  45.883 -47.063  1.00  0.00    -0.231 N 
ATOM     34 2H12 UNL     1      13.527  45.845 -47.503  1.00  0.00     0.174 HD
ATOM     35 1H12 UNL     1      12.022  45.146 -47.453  1.00  0.00     0.174 HD
ENDBRANCH  31  33
ENDBRANCH   6  25
TORSDOF 6
ENDMDL
