MODEL 1
REMARK VINA RESULT: -7.446844002      0.000      0.000
REMARK  8 active torsions:
REMARK  status: ('A' for Active; 'I' for Inactive)
REMARK    1  A    between atoms: N1_1  and  C1_4 
REMARK    2  A    between atoms: N3_8  and  C3_9 
REMARK    3  A    between atoms: C3_9  and  C4_10 
REMARK    4  A    between atoms: C4_10  and  C5_11 
REMARK    5  A    between atoms: C5_11  and  N4_12 
REMARK    6  A    between atoms: C7_14  and  N5_15 
REMARK    7  A    between atoms: C9_19  and  N7_20 
REMARK    8  A    between atoms: C10_28  and  N11_29 
ROOT
HETATM    1  C5  UNL     1      13.097  47.484 -50.213  1.00  0.00     0.147 C 
ENDROOT
BRANCH   1   2
HETATM    2  C4  UNL     1      13.870  48.282 -49.190  1.00  0.00     0.042 C 
BRANCH   2   3
HETATM    3  C3  UNL     1      14.219  47.462 -47.977  1.00  0.00     0.150 C 
BRANCH   3   4
HETATM    4  N3  UNL     1      13.180  47.601 -46.975  1.00  0.00    -0.179 N 
HETATM    5  C2  UNL     1      12.927  48.785 -46.377  1.00  0.00     0.218 A 
HETATM    6  N2  UNL     1      11.961  48.873 -45.456  1.00  0.00    -0.187 N 
HETATM    7  C1  UNL     1      11.228  47.803 -45.108  1.00  0.00     0.691 A 
ATOM      8  H2  UNL     1      11.777  49.771 -45.008  1.00  0.00     0.185 HD
HETATM    9  N12 UNL     1      11.455  46.614 -45.684  1.00  0.00    -0.023 N 
HETATM   10  C10 UNL     1      12.428  46.533 -46.608  1.00  0.00     0.693 A 
ATOM     11  H12 UNL     1      10.905  45.794 -45.428  1.00  0.00     0.203 HD
BRANCH   7  12
HETATM   12  N1  UNL     1      10.285  47.897 -44.206  1.00  0.00    -0.234 N 
ATOM     13  H12 UNL     1      10.550  47.995 -43.227  1.00  0.00     0.174 HD
ATOM     14  H11 UNL     1       9.300  47.873 -44.472  1.00  0.00     0.174 HD
ENDBRANCH   7  12
BRANCH  10  15
HETATM   15  N11 UNL     1      12.676  45.405 -47.185  1.00  0.00    -0.234 N 
ATOM     16 2H11 UNL     1      13.590  45.239 -47.607  1.00  0.00     0.174 HD
ATOM     17 1H11 UNL     1      11.931  44.709 -47.195  1.00  0.00     0.174 HD
ENDBRANCH  10  15
ENDBRANCH   3   4
ENDBRANCH   2   3
ENDBRANCH   1   2
BRANCH   1  18
HETATM   18  N4  UNL     1      14.022  46.859 -51.164  1.00  0.00    -0.283 N 
HETATM   19  C6  UNL     1      15.347  47.065 -51.278  1.00  0.00     0.159 A 
HETATM   20  C7  UNL     1      15.868  46.289 -52.293  1.00  0.00     0.158 A 
HETATM   21  N9  UNL     1      14.809  45.614 -52.781  1.00  0.00    -0.267 N 
HETATM   22  N10 UNL     1      13.716  45.969 -52.092  1.00  0.00    -0.019 NA
ATOM     23  H9  UNL     1      14.835  44.944 -53.549  1.00  0.00     0.186 HD
BRANCH  20  24
HETATM   24  N5  UNL     1      17.209  46.187 -52.761  1.00  0.00    -0.218 N 
HETATM   25  C8  UNL     1      17.692  46.631 -53.945  1.00  0.00     0.226 A 
HETATM   26  N6  UNL     1      19.011  46.350 -54.024  1.00  0.00    -0.185 N 
HETATM   27  C9  UNL     1      19.357  45.733 -52.897  1.00  0.00     0.691 A 
ATOM     28  H6  UNL     1      19.630  46.571 -54.806  1.00  0.00     0.185 HD
HETATM   29  N8  UNL     1      18.248  45.646 -52.147  1.00  0.00    -0.123 N 
ATOM     30  H8  UNL     1      18.210  45.217 -51.223  1.00  0.00     0.206 HD
BRANCH  27  31
HETATM   31  N7  UNL     1      20.535  45.279 -52.539  1.00  0.00    -0.233 N 
ATOM     32  H72 UNL     1      21.226  44.892 -53.182  1.00  0.00     0.174 HD
ATOM     33  H71 UNL     1      20.945  45.235 -51.606  1.00  0.00     0.174 HD
ENDBRANCH  27  31
ENDBRANCH  20  24
ENDBRANCH   1  18
TORSDOF 8
ENDMDL
MODEL 2
REMARK VINA RESULT: -7.440305636      1.146      1.850
REMARK  8 active torsions:
REMARK  status: ('A' for Active; 'I' for Inactive)
REMARK    1  A    between atoms: N1_1  and  C1_4 
REMARK    2  A    between atoms: N3_8  and  C3_9 
REMARK    3  A    between atoms: C3_9  and  C4_10 
REMARK    4  A    between atoms: C4_10  and  C5_11 
REMARK    5  A    between atoms: C5_11  and  N4_12 
REMARK    6  A    between atoms: C7_14  and  N5_15 
REMARK    7  A    between atoms: C9_19  and  N7_20 
REMARK    8  A    between atoms: C10_28  and  N11_29 
ROOT
HETATM    1  C5  UNL     1      13.358  47.211 -48.997  1.00  0.00     0.147 C 
ENDROOT
BRANCH   1   2
HETATM    2  C4  UNL     1      13.681  46.220 -47.903  1.00  0.00     0.042 C 
BRANCH   2   3
HETATM    3  C3  UNL     1      13.931  46.896 -46.582  1.00  0.00     0.150 C 
BRANCH   3   4
HETATM    4  N3  UNL     1      12.677  47.350 -46.016  1.00  0.00    -0.179 N 
HETATM    5  C2  UNL     1      11.701  46.483 -45.670  1.00  0.00     0.218 A 
HETATM    6  N2  UNL     1      10.556  46.941 -45.150  1.00  0.00    -0.187 N 
HETATM    7  C1  UNL     1      10.351  48.255 -44.962  1.00  0.00     0.691 A 
ATOM      8  H2  UNL     1       9.824  46.279 -44.893  1.00  0.00     0.185 HD
HETATM    9  N12 UNL     1      11.300  49.140 -45.295  1.00  0.00    -0.023 N 
HETATM   10  C10 UNL     1      12.448  48.672 -45.817  1.00  0.00     0.693 A 
ATOM     11  H12 UNL     1      11.156  50.140 -45.157  1.00  0.00     0.203 HD
BRANCH   7  12
HETATM   12  N1  UNL     1       9.229  48.695 -44.454  1.00  0.00    -0.234 N 
ATOM     13  H12 UNL     1       8.352  48.279 -44.765  1.00  0.00     0.174 HD
ATOM     14  H11 UNL     1       9.225  49.441 -43.758  1.00  0.00     0.174 HD
ENDBRANCH   7  12
BRANCH  10  15
HETATM   15  N11 UNL     1      13.386  49.494 -46.150  1.00  0.00    -0.234 N 
ATOM     16 2H11 UNL     1      13.661  50.240 -45.511  1.00  0.00     0.174 HD
ATOM     17 1H11 UNL     1      13.826  49.360 -47.060  1.00  0.00     0.174 HD
ENDBRANCH  10  15
ENDBRANCH   3   4
ENDBRANCH   2   3
ENDBRANCH   1   2
BRANCH   1  18
HETATM   18  N4  UNL     1      13.833  46.705 -50.288  1.00  0.00    -0.283 N 
HETATM   19  C6  UNL     1      15.086  46.743 -50.775  1.00  0.00     0.159 A 
HETATM   20  C7  UNL     1      15.133  46.163 -52.027  1.00  0.00     0.158 A 
HETATM   21  N9  UNL     1      13.865  45.780 -52.270  1.00  0.00    -0.267 N 
HETATM   22  N10 UNL     1      13.104  46.112 -51.218  1.00  0.00    -0.019 NA
ATOM     23  H9  UNL     1      13.537  45.313 -53.115  1.00  0.00     0.186 HD
BRANCH  20  24
HETATM   24  N5  UNL     1      16.240  45.986 -52.904  1.00  0.00    -0.218 N 
HETATM   25  C8  UNL     1      16.199  45.559 -54.188  1.00  0.00     0.226 A 
HETATM   26  N6  UNL     1      17.453  45.521 -54.688  1.00  0.00    -0.185 N 
HETATM   27  C9  UNL     1      18.280  45.922 -53.725  1.00  0.00     0.691 A 
ATOM     28  H6  UNL     1      17.719  45.237 -55.632  1.00  0.00     0.185 HD
HETATM   29  N8  UNL     1      17.522  46.198 -52.653  1.00  0.00    -0.123 N 
ATOM     30  H8  UNL     1      17.886  46.528 -51.760  1.00  0.00     0.206 HD
BRANCH  27  31
HETATM   31  N7  UNL     1      19.587  46.041 -53.763  1.00  0.00    -0.233 N 
ATOM     32  H72 UNL     1      20.195  45.532 -54.403  1.00  0.00     0.174 HD
ATOM     33  H71 UNL     1      20.190  46.631 -53.191  1.00  0.00     0.174 HD
ENDBRANCH  27  31
ENDBRANCH  20  24
ENDBRANCH   1  18
TORSDOF 8
ENDMDL
MODEL 3
REMARK VINA RESULT: -7.434699033      0.955      1.082
REMARK  8 active torsions:
REMARK  status: ('A' for Active; 'I' for Inactive)
REMARK    1  A    between atoms: N1_1  and  C1_4 
REMARK    2  A    between atoms: N3_8  and  C3_9 
REMARK    3  A    between atoms: C3_9  and  C4_10 
REMARK    4  A    between atoms: C4_10  and  C5_11 
REMARK    5  A    between atoms: C5_11  and  N4_12 
REMARK    6  A    between atoms: C7_14  and  N5_15 
REMARK    7  A    between atoms: C9_19  and  N7_20 
REMARK    8  A    between atoms: C10_28  and  N11_29 
ROOT
HETATM    1  C5  UNL     1      12.956  48.539 -49.983  1.00  0.00     0.147 C 
ENDROOT
BRANCH   1   2
HETATM    2  C4  UNL     1      13.895  49.016 -48.899  1.00  0.00     0.042 C 
BRANCH   2   3
HETATM    3  C3  UNL     1      14.397  47.882 -48.046  1.00  0.00     0.150 C 
BRANCH   3   4
HETATM    4  N3  UNL     1      13.496  47.670 -46.930  1.00  0.00    -0.179 N 
HETATM    5  C2  UNL     1      13.364  48.582 -45.943  1.00  0.00     0.218 A 
HETATM    6  N2  UNL     1      12.522  48.350 -44.929  1.00  0.00    -0.187 N 
HETATM    7  C1  UNL     1      11.797  47.222 -44.869  1.00  0.00     0.691 A 
ATOM      8  H2  UNL     1      12.430  49.043 -44.187  1.00  0.00     0.185 HD
HETATM    9  N12 UNL     1      11.905  46.298 -45.833  1.00  0.00    -0.023 N 
HETATM   10  C10 UNL     1      12.753  46.537 -46.848  1.00  0.00     0.693 A 
ATOM     11  H12 UNL     1      11.359  45.437 -45.798  1.00  0.00     0.203 HD
BRANCH   7  12
HETATM   12  N1  UNL     1      10.976  47.001 -43.874  1.00  0.00    -0.234 N 
ATOM     13  H12 UNL     1       9.991  47.242 -43.987  1.00  0.00     0.174 HD
ATOM     14  H11 UNL     1      11.308  46.595 -42.999  1.00  0.00     0.174 HD
ENDBRANCH   7  12
BRANCH  10  15
HETATM   15  N11 UNL     1      12.884  45.671 -47.797  1.00  0.00    -0.234 N 
ATOM     16 2H11 UNL     1      13.797  45.255 -47.984  1.00  0.00     0.174 HD
ATOM     17 1H11 UNL     1      12.050  45.432 -48.332  1.00  0.00     0.174 HD
ENDBRANCH  10  15
ENDBRANCH   3   4
ENDBRANCH   2   3
ENDBRANCH   1   2
BRANCH   1  18
HETATM   18  N4  UNL     1      13.615  47.520 -50.804  1.00  0.00    -0.283 N 
HETATM   19  C6  UNL     1      14.786  47.624 -51.460  1.00  0.00     0.159 A 
HETATM   20  C7  UNL     1      15.071  46.448 -52.123  1.00  0.00     0.158 A 
HETATM   21  N9  UNL     1      14.031  45.639 -51.841  1.00  0.00    -0.267 N 
HETATM   22  N10 UNL     1      13.173  46.299 -51.051  1.00  0.00    -0.019 NA
ATOM     23  H9  UNL     1      13.916  44.682 -52.174  1.00  0.00     0.186 HD
BRANCH  20  24
HETATM   24  N5  UNL     1      16.192  46.112 -52.934  1.00  0.00    -0.218 N 
HETATM   25  C8  UNL     1      16.166  45.533 -54.158  1.00  0.00     0.226 A 
HETATM   26  N6  UNL     1      17.430  45.374 -54.606  1.00  0.00    -0.185 N 
HETATM   27  C9  UNL     1      18.249  45.850 -53.671  1.00  0.00     0.691 A 
ATOM     28  H6  UNL     1      17.707  44.965 -55.499  1.00  0.00     0.185 HD
HETATM   29  N8  UNL     1      17.475  46.292 -52.667  1.00  0.00    -0.123 N 
ATOM     30  H8  UNL     1      17.830  46.712 -51.809  1.00  0.00     0.206 HD
BRANCH  27  31
HETATM   31  N7  UNL     1      19.560  45.902 -53.678  1.00  0.00    -0.233 N 
ATOM     32  H72 UNL     1      20.163  45.213 -54.127  1.00  0.00     0.174 HD
ATOM     33  H71 UNL     1      20.173  46.601 -53.260  1.00  0.00     0.174 HD
ENDBRANCH  27  31
ENDBRANCH  20  24
ENDBRANCH   1  18
TORSDOF 8
ENDMDL
MODEL 4
REMARK VINA RESULT: -7.394669197      1.515      8.297
REMARK  8 active torsions:
REMARK  status: ('A' for Active; 'I' for Inactive)
REMARK    1  A    between atoms: N1_1  and  C1_4 
REMARK    2  A    between atoms: N3_8  and  C3_9 
REMARK    3  A    between atoms: C3_9  and  C4_10 
REMARK    4  A    between atoms: C4_10  and  C5_11 
REMARK    5  A    between atoms: C5_11  and  N4_12 
REMARK    6  A    between atoms: C7_14  and  N5_15 
REMARK    7  A    between atoms: C9_19  and  N7_20 
REMARK    8  A    between atoms: C10_28  and  N11_29 
ROOT
HETATM    1  C5  UNL     1      13.683  46.793 -51.298  1.00  0.00     0.147 C 
ENDROOT
BRANCH   1   2
HETATM    2  C4  UNL     1      14.432  45.638 -51.922  1.00  0.00     0.042 C 
BRANCH   2   3
HETATM    3  C3  UNL     1      15.210  46.060 -53.139  1.00  0.00     0.150 C 
BRANCH   3   4
HETATM    4  N3  UNL     1      16.631  45.910 -52.891  1.00  0.00    -0.179 N 
HETATM    5  C2  UNL     1      17.126  45.828 -51.637  1.00  0.00     0.218 A 
HETATM    6  N2  UNL     1      18.443  45.691 -51.448  1.00  0.00    -0.187 N 
HETATM    7  C1  UNL     1      19.294  45.630 -52.484  1.00  0.00     0.691 A 
ATOM      8  H2  UNL     1      18.808  45.631 -50.497  1.00  0.00     0.185 HD
HETATM    9  N12 UNL     1      18.834  45.707 -53.740  1.00  0.00    -0.023 N 
HETATM   10  C10 UNL     1      17.509  45.846 -53.923  1.00  0.00     0.693 A 
ATOM     11  H12 UNL     1      19.471  45.662 -54.536  1.00  0.00     0.203 HD
BRANCH   7  12
HETATM   12  N1  UNL     1      20.581  45.495 -52.292  1.00  0.00    -0.234 N 
ATOM     13  H12 UNL     1      20.934  45.461 -51.336  1.00  0.00     0.174 HD
ATOM     14  H11 UNL     1      21.226  45.424 -53.080  1.00  0.00     0.174 HD
ENDBRANCH   7  12
BRANCH  10  15
HETATM   15  N11 UNL     1      17.028  45.924 -55.118  1.00  0.00    -0.234 N 
ATOM     16 2H11 UNL     1      16.640  45.094 -55.566  1.00  0.00     0.174 HD
ATOM     17 1H11 UNL     1      17.054  46.834 -55.576  1.00  0.00     0.174 HD
ENDBRANCH  10  15
ENDBRANCH   3   4
ENDBRANCH   2   3
ENDBRANCH   1   2
BRANCH   1  18
HETATM   18  N4  UNL     1      13.260  46.440 -49.940  1.00  0.00    -0.283 N 
HETATM   19  C6  UNL     1      13.439  47.152 -48.812  1.00  0.00     0.159 A 
HETATM   20  C7  UNL     1      12.898  46.484 -47.732  1.00  0.00     0.158 A 
HETATM   21  N9  UNL     1      12.391  45.350 -48.254  1.00  0.00    -0.267 N 
HETATM   22  N10 UNL     1      12.618  45.344 -49.574  1.00  0.00    -0.019 NA
ATOM     23  H9  UNL     1      11.913  44.617 -47.730  1.00  0.00     0.186 HD
BRANCH  20  24
HETATM   24  N5  UNL     1      12.858  46.861 -46.359  1.00  0.00    -0.218 N 
HETATM   25  C8  UNL     1      11.804  46.748 -45.516  1.00  0.00     0.226 A 
HETATM   26  N6  UNL     1      12.154  47.212 -44.297  1.00  0.00    -0.185 N 
HETATM   27  C9  UNL     1      13.421  47.615 -44.371  1.00  0.00     0.691 A 
ATOM     28  H6  UNL     1      11.557  47.247 -43.470  1.00  0.00     0.185 HD
HETATM   29  N8  UNL     1      13.825  47.392 -45.631  1.00  0.00    -0.123 N 
ATOM     30  H8  UNL     1      14.758  47.606 -45.982  1.00  0.00     0.206 HD
BRANCH  27  31
HETATM   31  N7  UNL     1      14.172  48.135 -43.429  1.00  0.00    -0.233 N 
ATOM     32  H72 UNL     1      14.003  49.039 -42.987  1.00  0.00     0.174 HD
ATOM     33  H71 UNL     1      15.010  47.749 -42.996  1.00  0.00     0.174 HD
ENDBRANCH  27  31
ENDBRANCH  20  24
ENDBRANCH   1  18
TORSDOF 8
ENDMDL
MODEL 5
REMARK VINA RESULT: -7.321786228      1.737      8.075
REMARK  8 active torsions:
REMARK  status: ('A' for Active; 'I' for Inactive)
REMARK    1  A    between atoms: N1_1  and  C1_4 
REMARK    2  A    between atoms: N3_8  and  C3_9 
REMARK    3  A    between atoms: C3_9  and  C4_10 
REMARK    4  A    between atoms: C4_10  and  C5_11 
REMARK    5  A    between atoms: C5_11  and  N4_12 
REMARK    6  A    between atoms: C7_14  and  N5_15 
REMARK    7  A    between atoms: C9_19  and  N7_20 
REMARK    8  A    between atoms: C10_28  and  N11_29 
ROOT
HETATM    1  C5  UNL     1      13.783  46.249 -51.631  1.00  0.00     0.147 C 
ENDROOT
BRANCH   1   2
HETATM    2  C4  UNL     1      15.019  47.092 -51.850  1.00  0.00     0.042 C 
BRANCH   2   3
HETATM    3  C3  UNL     1      15.704  46.764 -53.150  1.00  0.00     0.150 C 
BRANCH   3   4
HETATM    4  N3  UNL     1      17.068  46.345 -52.894  1.00  0.00    -0.179 N 
HETATM    5  C2  UNL     1      17.483  46.001 -51.656  1.00  0.00     0.218 A 
HETATM    6  N2  UNL     1      18.751  45.620 -51.460  1.00  0.00    -0.187 N 
HETATM    7  C1  UNL     1      19.629  45.569 -52.474  1.00  0.00     0.691 A 
ATOM      8  H2  UNL     1      19.056  45.363 -50.521  1.00  0.00     0.185 HD
HETATM    9  N12 UNL     1      19.248  45.904 -53.714  1.00  0.00    -0.023 N 
HETATM   10  C10 UNL     1      17.973  46.286 -53.904  1.00  0.00     0.693 A 
ATOM     11  H12 UNL     1      19.906  45.869 -54.493  1.00  0.00     0.203 HD
BRANCH   7  12
HETATM   12  N1  UNL     1      20.867  45.196 -52.275  1.00  0.00    -0.234 N 
ATOM     13  H12 UNL     1      21.077  44.199 -52.219  1.00  0.00     0.174 HD
ATOM     14  H11 UNL     1      21.614  45.884 -52.177  1.00  0.00     0.174 HD
ENDBRANCH   7  12
BRANCH  10  15
HETATM   15  N11 UNL     1      17.567  46.615 -55.084  1.00  0.00    -0.234 N 
ATOM     16 2H11 UNL     1      18.245  46.778 -55.829  1.00  0.00     0.174 HD
ATOM     17 1H11 UNL     1      16.561  46.701 -55.228  1.00  0.00     0.174 HD
ENDBRANCH  10  15
ENDBRANCH   3   4
ENDBRANCH   2   3
ENDBRANCH   1   2
BRANCH   1  18
HETATM   18  N4  UNL     1      13.529  46.099 -50.196  1.00  0.00    -0.283 N 
HETATM   19  C6  UNL     1      14.243  46.609 -49.176  1.00  0.00     0.159 A 
HETATM   20  C7  UNL     1      13.683  46.245 -47.968  1.00  0.00     0.158 A 
HETATM   21  N9  UNL     1      12.613  45.499 -48.302  1.00  0.00    -0.267 N 
HETATM   22  N10 UNL     1      12.538  45.425 -49.637  1.00  0.00    -0.019 NA
ATOM     23  H9  UNL     1      11.965  45.063 -47.646  1.00  0.00     0.186 HD
BRANCH  20  24
HETATM   24  N5  UNL     1      14.102  46.557 -46.643  1.00  0.00    -0.218 N 
HETATM   25  C8  UNL     1      15.276  46.215 -46.060  1.00  0.00     0.226 A 
HETATM   26  N6  UNL     1      15.304  46.691 -44.797  1.00  0.00    -0.185 N 
HETATM   27  C9  UNL     1      14.155  47.329 -44.584  1.00  0.00     0.691 A 
ATOM     28  H6  UNL     1      16.067  46.583 -44.128  1.00  0.00     0.185 HD
HETATM   29  N8  UNL     1      13.443  47.233 -45.718  1.00  0.00    -0.123 N 
ATOM     30  H8  UNL     1      12.513  47.631 -45.849  1.00  0.00     0.206 HD
BRANCH  27  31
HETATM   31  N7  UNL     1      13.748  47.945 -43.499  1.00  0.00    -0.233 N 
ATOM     32  H72 UNL     1      13.209  48.811 -43.494  1.00  0.00     0.174 HD
ATOM     33  H71 UNL     1      13.891  47.681 -42.525  1.00  0.00     0.174 HD
ENDBRANCH  27  31
ENDBRANCH  20  24
ENDBRANCH   1  18
TORSDOF 8
ENDMDL
