MODEL 1
REMARK VINA RESULT: -7.036860924      0.000      0.000
REMARK  7 active torsions:
REMARK  status: ('A' for Active; 'I' for Inactive)
REMARK    1  A    between atoms: N1_2  and  N2_3 
REMARK       I    between atoms: N2_3  and  C2_5 
REMARK    2  A    between atoms: C2_5  and  C3_7 
REMARK    3  A    between atoms: C3_7  and  C4_8 
REMARK    4  A    between atoms: N3_10  and  N4_12 
REMARK    5  A    between atoms: N4_12  and  C6_14 
REMARK    6  A    between atoms: C8_21  and  N7_22 
REMARK    7  A    between atoms: N9_27  and  O2_28 
ROOT
HETATM    1  C6  UNL     1      16.110  46.293 -51.455  1.00  0.00     0.140 A 
HETATM    2  S1  UNL     1      17.723  46.769 -51.208  1.00  0.00     0.024 SA
HETATM    3  N5  UNL     1      18.559  47.045 -52.663  1.00  0.00    -0.267 N 
ATOM      4  H5  UNL     1      19.537  47.337 -52.690  1.00  0.00     0.195 HD
HETATM    5  N6  UNL     1      17.852  46.854 -53.736  1.00  0.00    -0.289 N 
ATOM      6  H6  UNL     1      18.331  47.013 -54.623  1.00  0.00     0.188 HD
HETATM    7  C7  UNL     1      16.572  46.475 -53.819  1.00  0.00     0.127 A 
HETATM    8  C8  UNL     1      15.860  46.284 -55.009  1.00  0.00     0.146 A 
HETATM    9  N8  UNL     1      14.626  45.910 -54.656  1.00  0.00    -0.257 N 
ATOM     10  H8  UNL     1      13.867  45.696 -55.304  1.00  0.00     0.191 HD
HETATM   11  N9  UNL     1      14.540  45.861 -53.326  1.00  0.00    -0.157 N 
HETATM   12  C9  UNL     1      15.734  46.206 -52.773  1.00  0.00     0.149 A 
ENDROOT
BRANCH   1  13
HETATM   13  N4  UNL     1      15.263  46.022 -50.520  1.00  0.00    -0.291 N 
ATOM     14  H4  UNL     1      15.258  45.115 -50.054  1.00  0.00     0.187 HD
BRANCH  13  15
HETATM   15  N3  UNL     1      14.370  47.005 -50.181  1.00  0.00    -0.308 N 
HETATM   16  C4  UNL     1      14.347  47.778 -49.177  1.00  0.00     0.008 C 
HETATM   17  C5  UNL     1      15.404  47.680 -48.144  1.00  0.00     0.065 C 
ATOM     18  H3  UNL     1      13.603  47.135 -50.841  1.00  0.00     0.186 HD
BRANCH  16  19
HETATM   19  C3  UNL     1      13.242  48.763 -49.065  1.00  0.00     0.157 C 
BRANCH  19  20
HETATM   20  C2  UNL     1      13.275  49.735 -50.203  1.00  0.00     0.238 C 
HETATM   21  N2  UNL     1      12.205  50.628 -50.441  1.00  0.00    -0.274 N 
ATOM     22  H2  UNL     1      11.403  50.591 -49.812  1.00  0.00     0.185 HD
HETATM   23  O1  UNL     1      14.283  49.752 -50.963  1.00  0.00    -0.272 OA
BRANCH  21  24
HETATM   24  N1  UNL     1      12.176  51.551 -51.473  1.00  0.00    -0.143 NA
HETATM   25  C1  UNL     1      12.514  52.888 -51.012  1.00  0.00     0.159 C 
ENDBRANCH  21  24
ENDBRANCH  19  20
ENDBRANCH  16  19
ENDBRANCH  13  15
ENDBRANCH   1  13
BRANCH  11  26
HETATM   26  O2  UNL     1      13.391  45.507 -52.671  1.00  0.00    -0.267 OA
ATOM     27  H2  UNL     1      13.020  44.634 -52.721  1.00  0.00     0.247 HD
ENDBRANCH  11  26
BRANCH   8  28
HETATM   28  N7  UNL     1      16.256  46.426 -56.209  1.00  0.00    -0.382 N 
ATOM     29  H72 UNL     1      15.861  47.091 -56.874  1.00  0.00     0.157 HD
ATOM     30  H71 UNL     1      17.001  45.932 -56.700  1.00  0.00     0.157 HD
ENDBRANCH   8  28
TORSDOF 7
ENDMDL
MODEL 2
REMARK VINA RESULT: -6.829162454      3.440      5.777
REMARK  7 active torsions:
REMARK  status: ('A' for Active; 'I' for Inactive)
REMARK    1  A    between atoms: N1_2  and  N2_3 
REMARK       I    between atoms: N2_3  and  C2_5 
REMARK    2  A    between atoms: C2_5  and  C3_7 
REMARK    3  A    between atoms: C3_7  and  C4_8 
REMARK    4  A    between atoms: N3_10  and  N4_12 
REMARK    5  A    between atoms: N4_12  and  C6_14 
REMARK    6  A    between atoms: C8_21  and  N7_22 
REMARK    7  A    between atoms: N9_27  and  O2_28 
ROOT
HETATM    1  C6  UNL     1      17.174  45.971 -53.346  1.00  0.00     0.140 A 
HETATM    2  S1  UNL     1      18.368  45.958 -52.136  1.00  0.00     0.024 SA
HETATM    3  N5  UNL     1      17.725  45.758 -50.576  1.00  0.00    -0.267 N 
ATOM      4  H5  UNL     1      18.307  45.729 -49.738  1.00  0.00     0.195 HD
HETATM    5  N6  UNL     1      16.430  45.646 -50.536  1.00  0.00    -0.289 N 
ATOM      6  H6  UNL     1      16.019  45.526 -49.610  1.00  0.00     0.188 HD
HETATM    7  C7  UNL     1      15.573  45.670 -51.562  1.00  0.00     0.127 A 
HETATM    8  C8  UNL     1      14.182  45.546 -51.458  1.00  0.00     0.146 A 
HETATM    9  N8  UNL     1      13.701  45.621 -52.703  1.00  0.00    -0.257 N 
ATOM     10  H8  UNL     1      12.715  45.562 -52.958  1.00  0.00     0.191 HD
HETATM   11  N9  UNL     1      14.710  45.785 -53.560  1.00  0.00    -0.157 N 
HETATM   12  C9  UNL     1      15.890  45.820 -52.883  1.00  0.00     0.149 A 
ENDROOT
BRANCH   1  13
HETATM   13  N4  UNL     1      17.396  46.109 -54.610  1.00  0.00    -0.291 N 
ATOM     14  H4  UNL     1      17.849  45.374 -55.153  1.00  0.00     0.187 HD
BRANCH  13  15
HETATM   15  N3  UNL     1      16.996  47.284 -55.190  1.00  0.00    -0.308 N 
HETATM   16  C4  UNL     1      17.627  48.371 -55.355  1.00  0.00     0.008 C 
HETATM   17  C5  UNL     1      19.022  48.496 -54.875  1.00  0.00     0.065 C 
ATOM     18  H3  UNL     1      16.040  47.284 -55.546  1.00  0.00     0.186 HD
BRANCH  16  19
HETATM   19  C3  UNL     1      16.933  49.499 -56.028  1.00  0.00     0.157 C 
BRANCH  19  20
HETATM   20  C2  UNL     1      16.157  49.018 -57.213  1.00  0.00     0.238 C 
HETATM   21  N2  UNL     1      15.931  49.852 -58.333  1.00  0.00    -0.274 N 
ATOM     22  H2  UNL     1      16.313  50.797 -58.310  1.00  0.00     0.185 HD
HETATM   23  O1  UNL     1      15.697  47.842 -57.207  1.00  0.00    -0.272 OA
BRANCH  21  24
HETATM   24  N1  UNL     1      15.224  49.467 -59.460  1.00  0.00    -0.143 NA
HETATM   25  C1  UNL     1      16.001  49.655 -60.675  1.00  0.00     0.159 C 
ENDBRANCH  21  24
ENDBRANCH  19  20
ENDBRANCH  16  19
ENDBRANCH  13  15
ENDBRANCH   1  13
BRANCH  11  26
HETATM   26  O2  UNL     1      14.522  45.895 -54.912  1.00  0.00    -0.267 OA
ATOM     27  H2  UNL     1      14.821  46.645 -55.412  1.00  0.00     0.247 HD
ENDBRANCH  11  26
BRANCH   8  28
HETATM   28  N7  UNL     1      13.471  45.387 -50.417  1.00  0.00    -0.382 N 
ATOM     29  H72 UNL     1      13.834  45.124 -49.501  1.00  0.00     0.157 HD
ATOM     30  H71 UNL     1      12.461  45.490 -50.309  1.00  0.00     0.157 HD
ENDBRANCH   8  28
TORSDOF 7
ENDMDL
MODEL 3
REMARK VINA RESULT: -6.751366681      4.314      6.740
REMARK  7 active torsions:
REMARK  status: ('A' for Active; 'I' for Inactive)
REMARK    1  A    between atoms: N1_2  and  N2_3 
REMARK       I    between atoms: N2_3  and  C2_5 
REMARK    2  A    between atoms: C2_5  and  C3_7 
REMARK    3  A    between atoms: C3_7  and  C4_8 
REMARK    4  A    between atoms: N3_10  and  N4_12 
REMARK    5  A    between atoms: N4_12  and  C6_14 
REMARK    6  A    between atoms: C8_21  and  N7_22 
REMARK    7  A    between atoms: N9_27  and  O2_28 
ROOT
HETATM    1  C6  UNL     1      16.692  46.090 -54.409  1.00  0.00     0.140 A 
HETATM    2  S1  UNL     1      15.156  45.709 -53.789  1.00  0.00     0.024 SA
HETATM    3  N5  UNL     1      15.147  45.560 -52.096  1.00  0.00    -0.267 N 
ATOM      4  H5  UNL     1      14.304  45.334 -51.567  1.00  0.00     0.195 HD
HETATM    5  N6  UNL     1      16.301  45.756 -51.531  1.00  0.00    -0.289 N 
ATOM      6  H6  UNL     1      16.321  45.672 -50.514  1.00  0.00     0.188 HD
HETATM    7  C7  UNL     1      17.463  46.055 -52.120  1.00  0.00     0.127 A 
HETATM    8  C8  UNL     1      18.679  46.255 -51.457  1.00  0.00     0.146 A 
HETATM    9  N8  UNL     1      19.585  46.531 -52.400  1.00  0.00    -0.257 N 
ATOM     10  H8  UNL     1      20.572  46.726 -52.231  1.00  0.00     0.191 HD
HETATM   11  N9  UNL     1      18.998  46.511 -53.598  1.00  0.00    -0.157 N 
HETATM   12  C9  UNL     1      17.677  46.217 -53.461  1.00  0.00     0.149 A 
ENDROOT
BRANCH   1  13
HETATM   13  N4  UNL     1      16.971  46.257 -55.658  1.00  0.00    -0.291 N 
ATOM     14  H4  UNL     1      17.754  45.773 -56.097  1.00  0.00     0.187 HD
BRANCH  13  15
HETATM   15  N3  UNL     1      16.169  47.111 -56.369  1.00  0.00    -0.308 N 
HETATM   16  C4  UNL     1      16.138  48.378 -56.390  1.00  0.00     0.008 C 
HETATM   17  C5  UNL     1      17.073  49.153 -55.543  1.00  0.00     0.065 C 
ATOM     18  H3  UNL     1      15.489  46.655 -56.978  1.00  0.00     0.186 HD
BRANCH  16  19
HETATM   19  C3  UNL     1      15.149  49.050 -57.269  1.00  0.00     0.157 C 
BRANCH  19  20
HETATM   20  C2  UNL     1      15.829  49.745 -58.406  1.00  0.00     0.238 C 
HETATM   21  N2  UNL     1      15.487  49.469 -59.750  1.00  0.00    -0.274 N 
ATOM     22  H2  UNL     1      14.759  48.776 -59.925  1.00  0.00     0.185 HD
HETATM   23  O1  UNL     1      16.727  50.596 -58.153  1.00  0.00    -0.272 OA
BRANCH  21  24
HETATM   24  N1  UNL     1      16.077  50.078 -60.845  1.00  0.00    -0.143 NA
HETATM   25  C1  UNL     1      16.689  49.107 -61.738  1.00  0.00     0.159 C 
ENDBRANCH  21  24
ENDBRANCH  19  20
ENDBRANCH  16  19
ENDBRANCH  13  15
ENDBRANCH   1  13
BRANCH  11  26
HETATM   26  O2  UNL     1      19.679  46.757 -54.760  1.00  0.00    -0.267 OA
ATOM     27  H2  UNL     1      20.244  47.513 -54.874  1.00  0.00     0.247 HD
ENDBRANCH  11  26
BRANCH   8  28
HETATM   28  N7  UNL     1      18.928  46.202 -50.211  1.00  0.00    -0.382 N 
ATOM     29  H72 UNL     1      19.143  47.011 -49.628  1.00  0.00     0.157 HD
ATOM     30  H71 UNL     1      18.954  45.387 -49.598  1.00  0.00     0.157 HD
ENDBRANCH   8  28
TORSDOF 7
ENDMDL
MODEL 4
REMARK VINA RESULT: -6.724022677      2.752      3.243
REMARK  7 active torsions:
REMARK  status: ('A' for Active; 'I' for Inactive)
REMARK    1  A    between atoms: N1_2  and  N2_3 
REMARK       I    between atoms: N2_3  and  C2_5 
REMARK    2  A    between atoms: C2_5  and  C3_7 
REMARK    3  A    between atoms: C3_7  and  C4_8 
REMARK    4  A    between atoms: N3_10  and  N4_12 
REMARK    5  A    between atoms: N4_12  and  C6_14 
REMARK    6  A    between atoms: C8_21  and  N7_22 
REMARK    7  A    between atoms: N9_27  and  O2_28 
ROOT
HETATM    1  C6  UNL     1      17.182  45.932 -51.994  1.00  0.00     0.140 A 
HETATM    2  S1  UNL     1      18.774  46.517 -52.107  1.00  0.00     0.024 SA
HETATM    3  N5  UNL     1      19.160  47.084 -53.662  1.00  0.00    -0.267 N 
ATOM      4  H5  UNL     1      20.076  47.468 -53.898  1.00  0.00     0.195 HD
HETATM    5  N6  UNL     1      18.194  46.988 -54.527  1.00  0.00    -0.289 N 
ATOM      6  H6  UNL     1      18.401  47.322 -55.469  1.00  0.00     0.188 HD
HETATM    7  C7  UNL     1      16.963  46.506 -54.331  1.00  0.00     0.127 A 
HETATM    8  C8  UNL     1      15.960  46.426 -55.305  1.00  0.00     0.146 A 
HETATM    9  N8  UNL     1      14.892  45.889 -54.706  1.00  0.00    -0.257 N 
ATOM     10  H8  UNL     1      13.996  45.703 -55.156  1.00  0.00     0.191 HD
HETATM   11  N9  UNL     1      15.180  45.635 -53.429  1.00  0.00    -0.157 N 
HETATM   12  C9  UNL     1      16.462  46.006 -53.161  1.00  0.00     0.149 A 
ENDROOT
BRANCH   1  13
HETATM   13  N4  UNL     1      16.641  45.446 -50.928  1.00  0.00    -0.291 N 
ATOM     14  H4  UNL     1      16.861  44.505 -50.602  1.00  0.00     0.187 HD
BRANCH  13  15
HETATM   15  N3  UNL     1      15.758  46.249 -50.253  1.00  0.00    -0.308 N 
HETATM   16  C4  UNL     1      15.712  46.563 -49.027  1.00  0.00     0.008 C 
HETATM   17  C5  UNL     1      16.723  46.024 -48.087  1.00  0.00     0.065 C 
ATOM     18  H3  UNL     1      15.023  46.658 -50.830  1.00  0.00     0.186 HD
BRANCH  16  19
HETATM   19  C3  UNL     1      14.627  47.465 -48.566  1.00  0.00     0.157 C 
BRANCH  19  20
HETATM   20  C2  UNL     1      13.440  46.680 -48.103  1.00  0.00     0.238 C 
HETATM   21  N2  UNL     1      13.040  46.680 -46.746  1.00  0.00    -0.274 N 
ATOM     22  H2  UNL     1      13.587  47.233 -46.087  1.00  0.00     0.185 HD
HETATM   23  O1  UNL     1      12.786  46.007 -48.947  1.00  0.00    -0.272 OA
BRANCH  21  24
HETATM   24  N1  UNL     1      11.952  45.978 -46.256  1.00  0.00    -0.143 NA
HETATM   25  C1  UNL     1      11.252  46.721 -45.219  1.00  0.00     0.159 C 
ENDBRANCH  21  24
ENDBRANCH  19  20
ENDBRANCH  16  19
ENDBRANCH  13  15
ENDBRANCH   1  13
BRANCH  11  26
HETATM   26  O2  UNL     1      14.277  45.080 -52.562  1.00  0.00    -0.267 OA
ATOM     27  H2  UNL     1      14.101  44.147 -52.531  1.00  0.00     0.247 HD
ENDBRANCH  11  26
BRANCH   8  28
HETATM   28  N7  UNL     1      16.002  46.781 -56.524  1.00  0.00    -0.382 N 
ATOM     29  H72 UNL     1      16.821  47.177 -56.985  1.00  0.00     0.157 HD
ATOM     30  H71 UNL     1      15.266  46.737 -57.230  1.00  0.00     0.157 HD
ENDBRANCH   8  28
TORSDOF 7
ENDMDL
MODEL 5
REMARK VINA RESULT: -6.711523024      3.006      5.827
REMARK  7 active torsions:
REMARK  status: ('A' for Active; 'I' for Inactive)
REMARK    1  A    between atoms: N1_2  and  N2_3 
REMARK       I    between atoms: N2_3  and  C2_5 
REMARK    2  A    between atoms: C2_5  and  C3_7 
REMARK    3  A    between atoms: C3_7  and  C4_8 
REMARK    4  A    between atoms: N3_10  and  N4_12 
REMARK    5  A    between atoms: N4_12  and  C6_14 
REMARK    6  A    between atoms: C8_21  and  N7_22 
REMARK    7  A    between atoms: N9_27  and  O2_28 
ROOT
HETATM    1  C6  UNL     1      15.677  46.550 -51.144  1.00  0.00     0.140 A 
HETATM    2  S1  UNL     1      16.740  47.715 -50.510  1.00  0.00     0.024 SA
HETATM    3  N5  UNL     1      16.300  48.231 -48.951  1.00  0.00    -0.267 N 
ATOM      4  H5  UNL     1      16.834  48.927 -48.429  1.00  0.00     0.195 HD
HETATM    5  N6  UNL     1      15.229  47.667 -48.478  1.00  0.00    -0.289 N 
ATOM      6  H6  UNL     1      14.944  47.960 -47.543  1.00  0.00     0.188 HD
HETATM    7  C7  UNL     1      14.456  46.749 -49.068  1.00  0.00     0.127 A 
HETATM    8  C8  UNL     1      13.309  46.175 -48.508  1.00  0.00     0.146 A 
HETATM    9  N8  UNL     1      12.835  45.314 -49.414  1.00  0.00    -0.257 N 
ATOM     10  H8  UNL     1      12.002  44.736 -49.299  1.00  0.00     0.191 HD
HETATM   11  N9  UNL     1      13.621  45.326 -50.492  1.00  0.00    -0.157 N 
HETATM   12  C9  UNL     1      14.640  46.209 -50.311  1.00  0.00     0.149 A 
ENDROOT
BRANCH   1  13
HETATM   13  N4  UNL     1      15.785  45.998 -52.305  1.00  0.00    -0.291 N 
ATOM     14  H4  UNL     1      15.526  45.023 -52.456  1.00  0.00     0.187 HD
BRANCH  13  15
HETATM   15  N3  UNL     1      16.261  46.778 -53.327  1.00  0.00    -0.308 N 
HETATM   16  C4  UNL     1      17.365  46.730 -53.946  1.00  0.00     0.008 C 
HETATM   17  C5  UNL     1      18.374  45.710 -53.579  1.00  0.00     0.065 C 
ATOM     18  H3  UNL     1      15.625  47.513 -53.638  1.00  0.00     0.186 HD
BRANCH  16  19
HETATM   19  C3  UNL     1      17.616  47.716 -55.027  1.00  0.00     0.157 C 
BRANCH  19  20
HETATM   20  C2  UNL     1      16.601  47.582 -56.119  1.00  0.00     0.238 C 
HETATM   21  N2  UNL     1      15.953  48.714 -56.666  1.00  0.00    -0.274 N 
ATOM     22  H2  UNL     1      16.197  49.631 -56.292  1.00  0.00     0.185 HD
HETATM   23  O1  UNL     1      16.323  46.431 -56.556  1.00  0.00    -0.272 OA
BRANCH  21  24
HETATM   24  N1  UNL     1      15.008  48.656 -57.677  1.00  0.00    -0.143 NA
HETATM   25  C1  UNL     1      15.452  49.361 -58.870  1.00  0.00     0.159 C 
ENDBRANCH  21  24
ENDBRANCH  19  20
ENDBRANCH  16  19
ENDBRANCH  13  15
ENDBRANCH   1  13
BRANCH  11  26
HETATM   26  O2  UNL     1      13.384  44.542 -51.589  1.00  0.00    -0.267 OA
ATOM     27  H2  UNL     1      13.631  44.802 -52.469  1.00  0.00     0.247 HD
ENDBRANCH  11  26
BRANCH   8  28
HETATM   28  N7  UNL     1      12.782  46.391 -47.372  1.00  0.00    -0.382 N 
ATOM     29  H72 UNL     1      13.102  45.976 -46.496  1.00  0.00     0.157 HD
ATOM     30  H71 UNL     1      11.988  46.986 -47.137  1.00  0.00     0.157 HD
ENDBRANCH   8  28
TORSDOF 7
ENDMDL
