MODEL 1
REMARK VINA RESULT: -8.625711116      0.000      0.000
REMARK  6 active torsions:
REMARK  status: ('A' for Active; 'I' for Inactive)
REMARK    1  A    between atoms: N1_1  and  C1_4 
REMARK    2  A    between atoms: C2_9  and  C3_10 
REMARK    3  A    between atoms: N6_15  and  C4_16 
REMARK    4  A    between atoms: C4_16  and  C5_17 
REMARK       I    between atoms: C5_17  and  N7_19 
REMARK    5  A    between atoms: N7_19  and  N8_20 
REMARK    6  A    between atoms: N11_31  and  N12_32 
ROOT
HETATM    1  C3  UNL     1      17.472  47.849 -55.073  1.00  0.00     0.186 A 
HETATM    2  N4  UNL     1      17.525  49.187 -55.177  1.00  0.00    -0.265 N 
ATOM      3  H4  UNL     1      18.066  49.793 -54.560  1.00  0.00     0.190 HD
HETATM    4  N5  UNL     1      16.790  49.610 -56.175  1.00  0.00    -0.224 N 
ATOM      5  H5  UNL     1      16.659  50.578 -56.467  1.00  0.00     0.210 HD
HETATM    6  N6  UNL     1      16.244  48.523 -56.742  1.00  0.00    -0.208 N 
HETATM    7  N10 UNL     1      16.660  47.466 -56.071  1.00  0.00    -0.263 N 
ATOM      8  H10 UNL     1      16.403  46.501 -56.280  1.00  0.00     0.190 HD
ENDROOT
BRANCH   1   9
HETATM    9  C2  UNL     1      18.162  47.053 -54.083  1.00  0.00     0.207 A 
HETATM   10  N3  UNL     1      19.408  46.512 -54.239  1.00  0.00    -0.266 N 
HETATM   11  N2  UNL     1      19.756  45.865 -53.160  1.00  0.00    -0.129 N 
ATOM     12  H3  UNL     1      19.983  46.601 -55.077  1.00  0.00     0.189 HD
HETATM   13  C1  UNL     1      18.771  45.945 -52.251  1.00  0.00     0.713 A 
ATOM     14  H2  UNL     1      20.640  45.375 -53.027  1.00  0.00     0.205 HD
HETATM   15  N11 UNL     1      17.810  46.676 -52.845  1.00  0.00    -0.070 N 
BRANCH  13  16
HETATM   16  N1  UNL     1      18.764  45.435 -51.061  1.00  0.00    -0.232 N 
ATOM     17  H12 UNL     1      19.313  45.724 -50.251  1.00  0.00     0.174 HD
ATOM     18  H11 UNL     1      18.211  44.644 -50.734  1.00  0.00     0.174 HD
ENDBRANCH  13  16
BRANCH  15  19
HETATM   19  N12 UNL     1      16.600  47.017 -52.244  1.00  0.00    -0.322 N 
ATOM     20 2H12 UNL     1      16.379  46.829 -51.266  1.00  0.00     0.178 HD
ATOM     21 1H12 UNL     1      15.827  47.473 -52.729  1.00  0.00     0.178 HD
ENDBRANCH  15  19
ENDBRANCH   1   9
BRANCH   6  22
HETATM   22  C4  UNL     1      15.360  48.508 -57.869  1.00  0.00     0.292 C 
BRANCH  22  23
HETATM   23  C5  UNL     1      15.682  49.667 -58.794  1.00  0.00     0.333 C 
HETATM   24  O1  UNL     1      15.451  50.795 -58.335  1.00  0.00    -0.253 OA
HETATM   25  N7  UNL     1      16.205  49.312 -60.046  1.00  0.00    -0.284 NA
BRANCH  25  26
HETATM   26  N8  UNL     1      16.675  48.992 -61.177  1.00  0.00    -0.220 N 
HETATM   27  C6  UNL     1      16.886  49.537 -62.314  1.00  0.00     0.103 C 
HETATM   28  C7  UNL     1      16.550  50.951 -62.620  1.00  0.00     0.078 C 
HETATM   29  N9  UNL     1      17.459  48.782 -63.381  1.00  0.00    -0.378 N 
HETATM   30  C8  UNL     1      17.671  51.534 -63.427  1.00  0.00     0.009 C 
HETATM   31  C9  UNL     1      17.970  50.787 -64.684  1.00  0.00     0.020 C 
HETATM   32  C10 UNL     1      18.206  49.314 -64.464  1.00  0.00     0.121 C 
ATOM     33  H9  UNL     1      17.322  47.772 -63.362  1.00  0.00     0.160 HD
ATOM     34  H8  UNL     1      16.973  48.017 -61.182  1.00  0.00     0.203 HD
ENDBRANCH  25  26
ENDBRANCH  22  23
ENDBRANCH   6  22
TORSDOF 6
ENDMDL
MODEL 2
REMARK VINA RESULT: -8.399842470      6.597      9.658
REMARK  6 active torsions:
REMARK  status: ('A' for Active; 'I' for Inactive)
REMARK    1  A    between atoms: N1_1  and  C1_4 
REMARK    2  A    between atoms: C2_9  and  C3_10 
REMARK    3  A    between atoms: N6_15  and  C4_16 
REMARK    4  A    between atoms: C4_16  and  C5_17 
REMARK       I    between atoms: C5_17  and  N7_19 
REMARK    5  A    between atoms: N7_19  and  N8_20 
REMARK    6  A    between atoms: N11_31  and  N12_32 
ROOT
HETATM    1  C3  UNL     1      14.347  46.962 -51.283  1.00  0.00     0.186 A 
HETATM    2  N4  UNL     1      13.967  46.268 -50.199  1.00  0.00    -0.265 N 
ATOM      3  H4  UNL     1      14.008  45.251 -50.120  1.00  0.00     0.190 HD
HETATM    4  N5  UNL     1      13.538  47.068 -49.255  1.00  0.00    -0.224 N 
ATOM      5  H5  UNL     1      13.193  46.794 -48.335  1.00  0.00     0.210 HD
HETATM    6  N6  UNL     1      13.641  48.319 -49.731  1.00  0.00    -0.208 N 
HETATM    7  N10 UNL     1      14.129  48.246 -50.954  1.00  0.00    -0.263 N 
ATOM      8  H10 UNL     1      14.314  49.046 -51.559  1.00  0.00     0.190 HD
ENDROOT
BRANCH   1   9
HETATM    9  C2  UNL     1      14.869  46.396 -52.506  1.00  0.00     0.207 A 
HETATM   10  N3  UNL     1      14.109  45.959 -53.557  1.00  0.00    -0.266 N 
HETATM   11  N2  UNL     1      14.878  45.521 -54.516  1.00  0.00    -0.129 N 
ATOM     12  H3  UNL     1      13.089  45.973 -53.586  1.00  0.00     0.189 HD
HETATM   13  C1  UNL     1      16.165  45.645 -54.153  1.00  0.00     0.713 A 
ATOM     14  H2  UNL     1      14.551  45.144 -55.406  1.00  0.00     0.205 HD
HETATM   15  N11 UNL     1      16.126  46.182 -52.920  1.00  0.00    -0.070 N 
BRANCH  13  16
HETATM   16  N1  UNL     1      17.207  45.325 -54.851  1.00  0.00    -0.232 N 
ATOM     17  H12 UNL     1      17.641  44.408 -54.948  1.00  0.00     0.174 HD
ATOM     18  H11 UNL     1      17.780  45.948 -55.420  1.00  0.00     0.174 HD
ENDBRANCH  13  16
BRANCH  15  19
HETATM   19  N12 UNL     1      17.255  46.493 -52.165  1.00  0.00    -0.322 N 
ATOM     20 2H12 UNL     1      17.932  47.211 -52.424  1.00  0.00     0.178 HD
ATOM     21 1H12 UNL     1      17.510  46.027 -51.294  1.00  0.00     0.178 HD
ENDBRANCH  15  19
ENDBRANCH   1   9
BRANCH   6  22
HETATM   22  C4  UNL     1      13.279  49.521 -49.041  1.00  0.00     0.292 C 
BRANCH  22  23
HETATM   23  C5  UNL     1      12.433  50.401 -49.942  1.00  0.00     0.333 C 
HETATM   24  O1  UNL     1      11.385  49.885 -50.358  1.00  0.00    -0.253 OA
HETATM   25  N7  UNL     1      12.942  51.685 -50.183  1.00  0.00    -0.284 NA
BRANCH  25  26
HETATM   26  N8  UNL     1      13.403  52.843 -50.401  1.00  0.00    -0.220 N 
HETATM   27  C6  UNL     1      12.963  54.006 -50.700  1.00  0.00     0.103 C 
HETATM   28  C7  UNL     1      11.525  54.311 -50.904  1.00  0.00     0.078 C 
HETATM   29  N9  UNL     1      13.868  55.097 -50.871  1.00  0.00    -0.378 N 
HETATM   30  C8  UNL     1      11.230  55.632 -50.258  1.00  0.00     0.009 C 
HETATM   31  C9  UNL     1      12.075  56.757 -50.756  1.00  0.00     0.020 C 
HETATM   32  C10 UNL     1      13.554  56.469 -50.690  1.00  0.00     0.121 C 
ATOM     33  H9  UNL     1      14.823  54.871 -51.146  1.00  0.00     0.160 HD
ATOM     34  H8  UNL     1      14.419  52.852 -50.313  1.00  0.00     0.203 HD
ENDBRANCH  25  26
ENDBRANCH  22  23
ENDBRANCH   6  22
TORSDOF 6
ENDMDL
MODEL 3
REMARK VINA RESULT: -8.308383829      7.085     11.291
REMARK  6 active torsions:
REMARK  status: ('A' for Active; 'I' for Inactive)
REMARK    1  A    between atoms: N1_1  and  C1_4 
REMARK    2  A    between atoms: C2_9  and  C3_10 
REMARK    3  A    between atoms: N6_15  and  C4_16 
REMARK    4  A    between atoms: C4_16  and  C5_17 
REMARK       I    between atoms: C5_17  and  N7_19 
REMARK    5  A    between atoms: N7_19  and  N8_20 
REMARK    6  A    between atoms: N11_31  and  N12_32 
ROOT
HETATM    1  C3  UNL     1      15.964  46.071 -52.578  1.00  0.00     0.186 A 
HETATM    2  N4  UNL     1      14.991  45.662 -53.408  1.00  0.00    -0.265 N 
ATOM      3  H4  UNL     1      15.152  45.236 -54.321  1.00  0.00     0.190 HD
HETATM    4  N5  UNL     1      13.808  45.881 -52.890  1.00  0.00    -0.224 N 
ATOM      5  H5  UNL     1      12.907  45.663 -53.316  1.00  0.00     0.210 HD
HETATM    6  N6  UNL     1      14.010  46.446 -51.689  1.00  0.00    -0.208 N 
HETATM    7  N10 UNL     1      15.312  46.558 -51.509  1.00  0.00    -0.263 N 
ATOM      8  H10 UNL     1      15.757  46.953 -50.681  1.00  0.00     0.190 HD
ENDROOT
BRANCH   1   9
HETATM    9  C2  UNL     1      17.383  45.981 -52.834  1.00  0.00     0.207 A 
HETATM   10  N3  UNL     1      17.986  46.265 -54.029  1.00  0.00    -0.266 N 
HETATM   11  N2  UNL     1      19.278  46.105 -53.931  1.00  0.00    -0.129 N 
ATOM     12  H3  UNL     1      17.497  46.559 -54.875  1.00  0.00     0.189 HD
HETATM   13  C1  UNL     1      19.588  45.713 -52.685  1.00  0.00     0.713 A 
ATOM     14  H2  UNL     1      19.948  46.255 -54.684  1.00  0.00     0.205 HD
HETATM   15  N11 UNL     1      18.409  45.646 -52.039  1.00  0.00    -0.070 N 
BRANCH  13  16
HETATM   16  N1  UNL     1      20.769  45.468 -52.215  1.00  0.00    -0.232 N 
ATOM     17  H12 UNL     1      21.670  45.734 -52.612  1.00  0.00     0.174 HD
ATOM     18  H11 UNL     1      20.999  44.953 -51.365  1.00  0.00     0.174 HD
ENDBRANCH  13  16
BRANCH  15  19
HETATM   19  N12 UNL     1      18.268  45.285 -50.700  1.00  0.00    -0.322 N 
ATOM     20 2H12 UNL     1      19.015  45.363 -50.009  1.00  0.00     0.178 HD
ATOM     21 1H12 UNL     1      17.413  44.904 -50.296  1.00  0.00     0.178 HD
ENDBRANCH  15  19
ENDBRANCH   1   9
BRANCH   6  22
HETATM   22  C4  UNL     1      12.996  46.863 -50.767  1.00  0.00     0.292 C 
BRANCH  22  23
HETATM   23  C5  UNL     1      12.930  45.896 -49.599  1.00  0.00     0.333 C 
HETATM   24  O1  UNL     1      12.106  44.978 -49.715  1.00  0.00    -0.253 OA
HETATM   25  N7  UNL     1      13.813  46.164 -48.544  1.00  0.00    -0.284 NA
BRANCH  25  26
HETATM   26  N8  UNL     1      14.610  46.406 -47.590  1.00  0.00    -0.220 N 
HETATM   27  C6  UNL     1      14.601  47.021 -46.469  1.00  0.00     0.103 C 
HETATM   28  C7  UNL     1      13.414  47.736 -45.936  1.00  0.00     0.078 C 
HETATM   29  N9  UNL     1      15.775  47.061 -45.659  1.00  0.00    -0.378 N 
HETATM   30  C8  UNL     1      13.316  47.452 -44.468  1.00  0.00     0.009 C 
HETATM   31  C9  UNL     1      14.537  47.821 -43.692  1.00  0.00     0.020 C 
HETATM   32  C10 UNL     1      15.803  47.223 -44.250  1.00  0.00     0.121 C 
ATOM     33  H9  UNL     1      16.672  46.964 -46.135  1.00  0.00     0.160 HD
ATOM     34  H8  UNL     1      15.524  45.989 -47.768  1.00  0.00     0.203 HD
ENDBRANCH  25  26
ENDBRANCH  22  23
ENDBRANCH   6  22
TORSDOF 6
ENDMDL
MODEL 4
REMARK VINA RESULT: -8.265265994      7.094     11.309
REMARK  6 active torsions:
REMARK  status: ('A' for Active; 'I' for Inactive)
REMARK    1  A    between atoms: N1_1  and  C1_4 
REMARK    2  A    between atoms: C2_9  and  C3_10 
REMARK    3  A    between atoms: N6_15  and  C4_16 
REMARK    4  A    between atoms: C4_16  and  C5_17 
REMARK       I    between atoms: C5_17  and  N7_19 
REMARK    5  A    between atoms: N7_19  and  N8_20 
REMARK    6  A    between atoms: N11_31  and  N12_32 
ROOT
HETATM    1  C3  UNL     1      15.935  46.117 -52.478  1.00  0.00     0.186 A 
HETATM    2  N4  UNL     1      14.946  45.632 -53.244  1.00  0.00    -0.265 N 
ATOM      3  H4  UNL     1      15.087  45.136 -54.125  1.00  0.00     0.190 HD
HETATM    4  N5  UNL     1      13.775  45.878 -52.712  1.00  0.00    -0.224 N 
ATOM      5  H5  UNL     1      12.865  45.617 -53.094  1.00  0.00     0.210 HD
HETATM    6  N6  UNL     1      14.001  46.539 -51.566  1.00  0.00    -0.208 N 
HETATM    7  N10 UNL     1      15.306  46.679 -51.432  1.00  0.00    -0.263 N 
ATOM      8  H10 UNL     1      15.768  47.144 -50.651  1.00  0.00     0.190 HD
ENDROOT
BRANCH   1   9
HETATM    9  C2  UNL     1      17.348  46.023 -52.766  1.00  0.00     0.207 A 
HETATM   10  N3  UNL     1      17.929  46.342 -53.963  1.00  0.00    -0.266 N 
HETATM   11  N2  UNL     1      19.221  46.167 -53.897  1.00  0.00    -0.129 N 
ATOM     12  H3  UNL     1      17.426  46.669 -54.788  1.00  0.00     0.189 HD
HETATM   13  C1  UNL     1      19.553  45.730 -52.671  1.00  0.00     0.713 A 
ATOM     14  H2  UNL     1      19.877  46.338 -54.658  1.00  0.00     0.205 HD
HETATM   15  N11 UNL     1      18.387  45.652 -52.004  1.00  0.00    -0.070 N 
BRANCH  13  16
HETATM   16  N1  UNL     1      20.741  45.459 -52.235  1.00  0.00    -0.232 N 
ATOM     17  H12 UNL     1      21.247  45.907 -51.471  1.00  0.00     0.174 HD
ATOM     18  H11 UNL     1      21.381  44.751 -52.594  1.00  0.00     0.174 HD
ENDBRANCH  13  16
BRANCH  15  19
HETATM   19  N12 UNL     1      18.270  45.247 -50.676  1.00  0.00    -0.322 N 
ATOM     20 2H12 UNL     1      18.662  45.763 -49.888  1.00  0.00     0.178 HD
ATOM     21 1H12 UNL     1      17.791  44.398 -50.374  1.00  0.00     0.178 HD
ENDBRANCH  15  19
ENDBRANCH   1   9
BRANCH   6  22
HETATM   22  C4  UNL     1      13.007  47.016 -50.652  1.00  0.00     0.292 C 
BRANCH  22  23
HETATM   23  C5  UNL     1      12.760  45.981 -49.570  1.00  0.00     0.333 C 
HETATM   24  O1  UNL     1      12.343  44.883 -49.969  1.00  0.00    -0.253 OA
HETATM   25  N7  UNL     1      13.039  46.397 -48.261  1.00  0.00    -0.284 NA
BRANCH  25  26
HETATM   26  N8  UNL     1      13.290  46.773 -47.078  1.00  0.00    -0.220 N 
HETATM   27  C6  UNL     1      14.165  46.555 -46.171  1.00  0.00     0.103 C 
HETATM   28  C7  UNL     1      15.305  45.620 -46.339  1.00  0.00     0.078 C 
HETATM   29  N9  UNL     1      14.073  47.215 -44.909  1.00  0.00    -0.378 N 
HETATM   30  C8  UNL     1      16.524  46.254 -45.740  1.00  0.00     0.009 C 
HETATM   31  C9  UNL     1      16.371  46.634 -44.305  1.00  0.00     0.020 C 
HETATM   32  C10 UNL     1      15.160  47.492 -44.039  1.00  0.00     0.121 C 
ATOM     33  H9  UNL     1      13.147  47.514 -44.606  1.00  0.00     0.160 HD
ATOM     34  H8  UNL     1      12.593  47.444 -46.756  1.00  0.00     0.203 HD
ENDBRANCH  25  26
ENDBRANCH  22  23
ENDBRANCH   6  22
TORSDOF 6
ENDMDL
MODEL 5
REMARK VINA RESULT: -8.023382728      5.828      8.508
REMARK  6 active torsions:
REMARK  status: ('A' for Active; 'I' for Inactive)
REMARK    1  A    between atoms: N1_1  and  C1_4 
REMARK    2  A    between atoms: C2_9  and  C3_10 
REMARK    3  A    between atoms: N6_15  and  C4_16 
REMARK    4  A    between atoms: C4_16  and  C5_17 
REMARK       I    between atoms: C5_17  and  N7_19 
REMARK    5  A    between atoms: N7_19  and  N8_20 
REMARK    6  A    between atoms: N11_31  and  N12_32 
ROOT
HETATM    1  C3  UNL     1      14.570  46.409 -51.257  1.00  0.00     0.186 A 
HETATM    2  N4  UNL     1      15.110  47.522 -51.779  1.00  0.00    -0.265 N 
ATOM      3  H4  UNL     1      15.252  48.391 -51.265  1.00  0.00     0.190 HD
HETATM    4  N5  UNL     1      15.430  47.344 -53.037  1.00  0.00    -0.224 N 
ATOM      5  H5  UNL     1      15.853  48.031 -53.661  1.00  0.00     0.210 HD
HETATM    6  N6  UNL     1      15.093  46.082 -53.347  1.00  0.00    -0.208 N 
HETATM    7  N10 UNL     1      14.577  45.525 -52.269  1.00  0.00    -0.263 N 
ATOM      8  H10 UNL     1      14.233  44.567 -52.211  1.00  0.00     0.190 HD
ENDROOT
BRANCH   1   9
HETATM    9  C2  UNL     1      14.105  46.256 -49.897  1.00  0.00     0.207 A 
HETATM   10  N3  UNL     1      12.947  45.627 -49.529  1.00  0.00    -0.266 N 
HETATM   11  N2  UNL     1      12.822  45.640 -48.230  1.00  0.00    -0.129 N 
ATOM     12  H3  UNL     1      12.279  45.208 -50.176  1.00  0.00     0.189 HD
HETATM   13  C1  UNL     1      13.874  46.271 -47.683  1.00  0.00     0.713 A 
ATOM     14  H2  UNL     1      12.045  45.234 -47.710  1.00  0.00     0.205 HD
HETATM   15  N11 UNL     1      14.640  46.635 -48.728  1.00  0.00    -0.070 N 
BRANCH  13  16
HETATM   16  N1  UNL     1      14.098  46.466 -46.423  1.00  0.00    -0.232 N 
ATOM     17  H12 UNL     1      14.504  45.817 -45.749  1.00  0.00     0.174 HD
ATOM     18  H11 UNL     1      13.894  47.308 -45.886  1.00  0.00     0.174 HD
ENDBRANCH  13  16
BRANCH  15  19
HETATM   19  N12 UNL     1      15.852  47.314 -48.612  1.00  0.00    -0.322 N 
ATOM     20 2H12 UNL     1      16.607  47.025 -47.991  1.00  0.00     0.178 HD
ATOM     21 1H12 UNL     1      16.087  48.161 -49.129  1.00  0.00     0.178 HD
ENDBRANCH  15  19
ENDBRANCH   1   9
BRANCH   6  22
HETATM   22  C4  UNL     1      15.259  45.449 -54.621  1.00  0.00     0.292 C 
BRANCH  22  23
HETATM   23  C5  UNL     1      16.543  45.927 -55.274  1.00  0.00     0.333 C 
HETATM   24  O1  UNL     1      16.416  46.408 -56.409  1.00  0.00    -0.253 OA
HETATM   25  N7  UNL     1      17.705  45.767 -54.506  1.00  0.00    -0.284 NA
BRANCH  25  26
HETATM   26  N8  UNL     1      18.755  45.623 -53.813  1.00  0.00    -0.220 N 
HETATM   27  C6  UNL     1      19.137  45.805 -52.606  1.00  0.00     0.103 C 
HETATM   28  C7  UNL     1      18.255  46.340 -51.539  1.00  0.00     0.078 C 
HETATM   29  N9  UNL     1      20.478  45.504 -52.222  1.00  0.00    -0.378 N 
HETATM   30  C8  UNL     1      18.513  45.563 -50.284  1.00  0.00     0.009 C 
HETATM   31  C9  UNL     1      19.937  45.580 -49.838  1.00  0.00     0.020 C 
HETATM   32  C10 UNL     1      20.906  45.159 -50.914  1.00  0.00     0.121 C 
ATOM     33  H9  UNL     1      21.190  45.539 -52.950  1.00  0.00     0.160 HD
ATOM     34  H8  UNL     1      19.516  45.254 -54.383  1.00  0.00     0.203 HD
ENDBRANCH  25  26
ENDBRANCH  22  23
ENDBRANCH   6  22
TORSDOF 6
ENDMDL
