MODEL 1
REMARK VINA RESULT: -7.371968694      0.000      0.000
REMARK  7 active torsions:
REMARK  status: ('A' for Active; 'I' for Inactive)
REMARK    1  A    between atoms: N1_1  and  C1_4 
REMARK    2  A    between atoms: C2_13  and  C3_14 
REMARK    3  A    between atoms: C3_14  and  C4_16 
REMARK    4  A    between atoms: C4_16  and  S1_17 
REMARK    5  A    between atoms: S1_17  and  C5_18 
REMARK    6  A    between atoms: C8_27  and  N9_28 
REMARK    7  A    between atoms: N9_28  and  N10_30 
ROOT
HETATM    1  C5  UNL     1      15.647  46.143 -51.410  1.00  0.00     0.102 A 
HETATM    2  N6  UNL     1      14.441  46.062 -51.971  1.00  0.00    -0.345 N 
ATOM      3  H6  UNL     1      13.622  46.179 -51.376  1.00  0.00     0.167 HD
HETATM    4  C6  UNL     1      14.249  45.829 -53.299  1.00  0.00     0.183 A 
HETATM    5  N7  UNL     1      15.292  45.667 -54.131  1.00  0.00    -0.336 N 
ATOM      6  H7  UNL     1      15.150  45.492 -55.126  1.00  0.00     0.168 HD
HETATM    7  C7  UNL     1      16.534  45.742 -53.608  1.00  0.00     0.152 A 
HETATM    8  N8  UNL     1      17.728  45.617 -54.222  1.00  0.00    -0.173 N 
ATOM      9  H8  UNL     1      17.885  45.440 -55.214  1.00  0.00     0.186 HD
HETATM   10  C8  UNL     1      18.658  45.769 -53.289  1.00  0.00     0.698 A 
HETATM   11  N11 UNL     1      18.059  45.988 -52.092  1.00  0.00    -0.184 N 
ATOM     12  H11 UNL     1      18.539  46.136 -51.205  1.00  0.00     0.184 HD
HETATM   13  C9  UNL     1      16.741  45.975 -52.268  1.00  0.00     0.127 A 
ENDROOT
BRANCH   1  14
HETATM   14  S1  UNL     1      15.991  46.442 -49.696  1.00  0.00    -0.102 SA
BRANCH  14  15
HETATM   15  C4  UNL     1      15.083  47.859 -49.115  1.00  0.00     0.166 C 
BRANCH  15  16
HETATM   16  C3  UNL     1      13.692  47.541 -48.672  1.00  0.00     0.190 C 
HETATM   17  O1  UNL     1      12.918  47.050 -49.517  1.00  0.00    -0.290 OA
BRANCH  16  18
HETATM   18  C2  UNL     1      13.242  47.784 -47.325  1.00  0.00     0.141 A 
HETATM   19  C1  UNL     1      12.761  46.767 -46.554  1.00  0.00     0.147 A 
HETATM   20  N2  UNL     1      12.325  46.974 -45.280  1.00  0.00    -0.268 N 
HETATM   21  N3  UNL     1      12.406  48.222 -44.859  1.00  0.00    -0.227 N 
ATOM     22  H2  UNL     1      11.963  46.221 -44.696  1.00  0.00     0.190 HD
HETATM   23  N4  UNL     1      12.869  49.211 -45.591  1.00  0.00    -0.228 N 
ATOM     24  H3  UNL     1      12.093  48.431 -43.911  1.00  0.00     0.210 HD
HETATM   25  N5  UNL     1      13.297  49.022 -46.834  1.00  0.00    -0.278 N 
ATOM     26  H4  UNL     1      12.901  50.150 -45.194  1.00  0.00     0.210 HD
ATOM     27  H5  UNL     1      13.655  49.796 -47.394  1.00  0.00     0.189 HD
BRANCH  19  28
HETATM   28  N1  UNL     1      12.701  45.574 -47.012  1.00  0.00    -0.382 N 
ATOM     29  H12 UNL     1      12.125  44.869 -46.553  1.00  0.00     0.157 HD
ATOM     30  H11 UNL     1      13.251  45.362 -47.844  1.00  0.00     0.157 HD
ENDBRANCH  19  28
ENDBRANCH  16  18
ENDBRANCH  15  16
ENDBRANCH  14  15
ENDBRANCH   1  14
BRANCH  10  31
HETATM   31  N9  UNL     1      19.954  45.728 -53.444  1.00  0.00    -0.138 N 
ATOM     32  H9  UNL     1      20.383  46.223 -54.226  1.00  0.00     0.205 HD
BRANCH  31  33
HETATM   33  N10 UNL     1      20.751  45.022 -52.563  1.00  0.00    -0.331 N 
ATOM     34 2H10 UNL     1      20.463  44.963 -51.587  1.00  0.00     0.177 HD
ATOM     35 1H10 UNL     1      21.609  44.570 -52.880  1.00  0.00     0.177 HD
ENDBRANCH  31  33
ENDBRANCH  10  31
TORSDOF 7
ENDMDL
MODEL 2
REMARK VINA RESULT: -7.305178997      1.562      2.068
REMARK  7 active torsions:
REMARK  status: ('A' for Active; 'I' for Inactive)
REMARK    1  A    between atoms: N1_1  and  C1_4 
REMARK    2  A    between atoms: C2_13  and  C3_14 
REMARK    3  A    between atoms: C3_14  and  C4_16 
REMARK    4  A    between atoms: C4_16  and  S1_17 
REMARK    5  A    between atoms: S1_17  and  C5_18 
REMARK    6  A    between atoms: C8_27  and  N9_28 
REMARK    7  A    between atoms: N9_28  and  N10_30 
ROOT
HETATM    1  C5  UNL     1      15.668  46.231 -53.846  1.00  0.00     0.102 A 
HETATM    2  N6  UNL     1      15.299  46.610 -55.069  1.00  0.00    -0.345 N 
ATOM      3  H6  UNL     1      14.302  46.672 -55.277  1.00  0.00     0.167 HD
HETATM    4  C6  UNL     1      16.186  46.919 -56.055  1.00  0.00     0.183 A 
HETATM    5  N7  UNL     1      17.512  46.856 -55.837  1.00  0.00    -0.336 N 
ATOM      6  H7  UNL     1      18.178  47.087 -56.574  1.00  0.00     0.168 HD
HETATM    7  C7  UNL     1      17.932  46.477 -54.612  1.00  0.00     0.152 A 
HETATM    8  N8  UNL     1      19.190  46.338 -54.147  1.00  0.00    -0.173 N 
ATOM      9  H8  UNL     1      20.052  46.504 -54.667  1.00  0.00     0.186 HD
HETATM   10  C8  UNL     1      19.092  45.946 -52.884  1.00  0.00     0.698 A 
HETATM   11  N11 UNL     1      17.782  45.836 -52.551  1.00  0.00    -0.184 N 
ATOM     12  H11 UNL     1      17.421  45.550 -51.640  1.00  0.00     0.184 HD
HETATM   13  C9  UNL     1      17.045  46.161 -53.608  1.00  0.00     0.127 A 
ENDROOT
BRANCH   1  14
HETATM   14  S1  UNL     1      14.584  45.811 -52.505  1.00  0.00    -0.102 SA
BRANCH  14  15
HETATM   15  C4  UNL     1      14.582  47.100 -51.277  1.00  0.00     0.166 C 
BRANCH  15  16
HETATM   16  C3  UNL     1      13.397  47.059 -50.367  1.00  0.00     0.190 C 
HETATM   17  O1  UNL     1      12.373  46.484 -50.783  1.00  0.00    -0.290 OA
BRANCH  16  18
HETATM   18  C2  UNL     1      13.417  47.656 -49.055  1.00  0.00     0.141 A 
HETATM   19  C1  UNL     1      13.208  46.900 -47.940  1.00  0.00     0.147 A 
HETATM   20  N2  UNL     1      13.217  47.442 -46.691  1.00  0.00    -0.268 N 
HETATM   21  N3  UNL     1      13.443  48.742 -46.649  1.00  0.00    -0.227 N 
ATOM     22  H2  UNL     1      13.061  46.886 -45.851  1.00  0.00     0.190 HD
HETATM   23  N4  UNL     1      13.647  49.483 -47.717  1.00  0.00    -0.228 N 
ATOM     24  H3  UNL     1      13.460  49.199 -45.737  1.00  0.00     0.210 HD
HETATM   25  N5  UNL     1      13.640  48.964 -48.940  1.00  0.00    -0.278 N 
ATOM     26  H4  UNL     1      13.815  50.482 -47.603  1.00  0.00     0.210 HD
ATOM     27  H5  UNL     1      13.800  49.547 -49.762  1.00  0.00     0.189 HD
BRANCH  19  28
HETATM   28  N1  UNL     1      12.992  45.643 -48.036  1.00  0.00    -0.382 N 
ATOM     29  H12 UNL     1      12.064  45.259 -47.854  1.00  0.00     0.157 HD
ATOM     30  H11 UNL     1      13.779  45.048 -48.296  1.00  0.00     0.157 HD
ENDBRANCH  19  28
ENDBRANCH  16  18
ENDBRANCH  15  16
ENDBRANCH  14  15
ENDBRANCH   1  14
BRANCH  10  31
HETATM   31  N9  UNL     1      20.066  45.695 -52.051  1.00  0.00    -0.138 N 
ATOM     32  H9  UNL     1      20.127  46.217 -51.176  1.00  0.00     0.205 HD
BRANCH  31  33
HETATM   33  N10 UNL     1      21.015  44.733 -52.338  1.00  0.00    -0.331 N 
ATOM     34 2H10 UNL     1      21.009  44.305 -53.264  1.00  0.00     0.177 HD
ATOM     35 1H10 UNL     1      21.707  44.456 -51.642  1.00  0.00     0.177 HD
ENDBRANCH  31  33
ENDBRANCH  10  31
TORSDOF 7
ENDMDL
MODEL 3
REMARK VINA RESULT: -7.296261351      2.831      8.011
REMARK  7 active torsions:
REMARK  status: ('A' for Active; 'I' for Inactive)
REMARK    1  A    between atoms: N1_1  and  C1_4 
REMARK    2  A    between atoms: C2_13  and  C3_14 
REMARK    3  A    between atoms: C3_14  and  C4_16 
REMARK    4  A    between atoms: C4_16  and  S1_17 
REMARK    5  A    between atoms: S1_17  and  C5_18 
REMARK    6  A    between atoms: C8_27  and  N9_28 
REMARK    7  A    between atoms: N9_28  and  N10_30 
ROOT
HETATM    1  C5  UNL     1      14.655  47.366 -50.476  1.00  0.00     0.102 A 
HETATM    2  N6  UNL     1      14.609  46.380 -49.581  1.00  0.00    -0.345 N 
ATOM      3  H6  UNL     1      15.053  45.492 -49.815  1.00  0.00     0.167 HD
HETATM    4  C6  UNL     1      14.000  46.498 -48.369  1.00  0.00     0.183 A 
HETATM    5  N7  UNL     1      13.399  47.645 -48.006  1.00  0.00    -0.336 N 
ATOM      6  H7  UNL     1      12.941  47.736 -47.099  1.00  0.00     0.168 HD
HETATM    7  C7  UNL     1      13.420  48.673 -48.881  1.00  0.00     0.152 A 
HETATM    8  N8  UNL     1      12.899  49.910 -48.758  1.00  0.00    -0.173 N 
ATOM      9  H8  UNL     1      12.388  50.276 -47.955  1.00  0.00     0.186 HD
HETATM   10  C8  UNL     1      13.179  50.560 -49.880  1.00  0.00     0.698 A 
HETATM   11  N11 UNL     1      13.871  49.740 -50.709  1.00  0.00    -0.184 N 
ATOM     12  H11 UNL     1      14.211  49.984 -51.640  1.00  0.00     0.184 HD
HETATM   13  C9  UNL     1      14.033  48.565 -50.109  1.00  0.00     0.127 A 
ENDROOT
BRANCH   1  14
HETATM   14  S1  UNL     1      15.426  47.300 -52.073  1.00  0.00    -0.102 SA
BRANCH  14  15
HETATM   15  C4  UNL     1      15.155  45.713 -52.832  1.00  0.00     0.166 C 
BRANCH  15  16
HETATM   16  C3  UNL     1      15.740  45.597 -54.203  1.00  0.00     0.190 C 
HETATM   17  O1  UNL     1      15.076  44.981 -55.060  1.00  0.00    -0.290 OA
BRANCH  16  18
HETATM   18  C2  UNL     1      17.020  46.166 -54.542  1.00  0.00     0.141 A 
HETATM   19  C1  UNL     1      17.138  47.056 -55.568  1.00  0.00     0.147 A 
HETATM   20  N2  UNL     1      18.338  47.604 -55.909  1.00  0.00    -0.268 N 
HETATM   21  N3  UNL     1      19.361  47.208 -55.175  1.00  0.00    -0.227 N 
ATOM     22  H2  UNL     1      18.438  48.270 -56.675  1.00  0.00     0.190 HD
HETATM   23  N4  UNL     1      19.260  46.351 -54.183  1.00  0.00    -0.228 N 
ATOM     24  H3  UNL     1      20.283  47.587 -55.390  1.00  0.00     0.210 HD
HETATM   25  N5  UNL     1      18.095  45.811 -53.841  1.00  0.00    -0.278 N 
ATOM     26  H4  UNL     1      20.097  46.094 -53.661  1.00  0.00     0.210 HD
ATOM     27  H5  UNL     1      18.027  45.147 -53.069  1.00  0.00     0.189 HD
BRANCH  19  28
HETATM   28  N1  UNL     1      16.115  47.406 -56.250  1.00  0.00    -0.382 N 
ATOM     29  H12 UNL     1      15.190  47.438 -55.821  1.00  0.00     0.157 HD
ATOM     30  H11 UNL     1      16.263  47.647 -57.230  1.00  0.00     0.157 HD
ENDBRANCH  19  28
ENDBRANCH  16  18
ENDBRANCH  15  16
ENDBRANCH  14  15
ENDBRANCH   1  14
BRANCH  10  31
HETATM   31  N9  UNL     1      12.865  51.789 -50.187  1.00  0.00    -0.138 N 
ATOM     32  H9  UNL     1      13.030  52.535 -49.510  1.00  0.00     0.205 HD
BRANCH  31  33
HETATM   33  N10 UNL     1      12.311  52.094 -51.415  1.00  0.00    -0.331 N 
ATOM     34 2H10 UNL     1      12.115  53.071 -51.632  1.00  0.00     0.177 HD
ATOM     35 1H10 UNL     1      12.102  51.360 -52.092  1.00  0.00     0.177 HD
ENDBRANCH  31  33
ENDBRANCH  10  31
TORSDOF 7
ENDMDL
MODEL 4
REMARK VINA RESULT: -7.294541391      1.849      2.605
REMARK  7 active torsions:
REMARK  status: ('A' for Active; 'I' for Inactive)
REMARK    1  A    between atoms: N1_1  and  C1_4 
REMARK    2  A    between atoms: C2_13  and  C3_14 
REMARK    3  A    between atoms: C3_14  and  C4_16 
REMARK    4  A    between atoms: C4_16  and  S1_17 
REMARK    5  A    between atoms: S1_17  and  C5_18 
REMARK    6  A    between atoms: C8_27  and  N9_28 
REMARK    7  A    between atoms: N9_28  and  N10_30 
ROOT
HETATM    1  C5  UNL     1      15.648  46.204 -53.860  1.00  0.00     0.102 A 
HETATM    2  N6  UNL     1      15.287  46.620 -55.073  1.00  0.00    -0.345 N 
ATOM      3  H6  UNL     1      14.293  46.667 -55.293  1.00  0.00     0.167 HD
HETATM    4  C6  UNL     1      16.181  46.984 -56.034  1.00  0.00     0.183 A 
HETATM    5  N7  UNL     1      17.504  46.942 -55.801  1.00  0.00    -0.336 N 
ATOM      6  H7  UNL     1      18.175  47.214 -56.519  1.00  0.00     0.168 HD
HETATM    7  C7  UNL     1      17.917  46.527 -54.584  1.00  0.00     0.152 A 
HETATM    8  N8  UNL     1      19.170  46.399 -54.106  1.00  0.00    -0.173 N 
ATOM      9  H8  UNL     1      20.036  46.602 -54.607  1.00  0.00     0.186 HD
HETATM   10  C8  UNL     1      19.065  45.958 -52.860  1.00  0.00     0.698 A 
HETATM   11  N11 UNL     1      17.753  45.808 -52.550  1.00  0.00    -0.184 N 
ATOM     12  H11 UNL     1      17.387  45.481 -51.655  1.00  0.00     0.184 HD
HETATM   13  C9  UNL     1      17.023  46.156 -53.605  1.00  0.00     0.127 A 
ENDROOT
BRANCH   1  14
HETATM   14  S1  UNL     1      14.556  45.712 -52.551  1.00  0.00    -0.102 SA
BRANCH  14  15
HETATM   15  C4  UNL     1      14.486  46.967 -51.291  1.00  0.00     0.166 C 
BRANCH  15  16
HETATM   16  C3  UNL     1      15.050  46.532 -49.978  1.00  0.00     0.190 C 
HETATM   17  O1  UNL     1      16.249  46.192 -49.952  1.00  0.00    -0.290 OA
BRANCH  16  18
HETATM   18  C2  UNL     1      14.257  46.498 -48.775  1.00  0.00     0.141 A 
HETATM   19  C1  UNL     1      14.554  47.307 -47.719  1.00  0.00     0.147 A 
HETATM   20  N2  UNL     1      13.821  47.290 -46.570  1.00  0.00    -0.268 N 
HETATM   21  N3  UNL     1      12.814  46.437 -46.565  1.00  0.00    -0.227 N 
ATOM     22  H2  UNL     1      14.036  47.890 -45.775  1.00  0.00     0.190 HD
HETATM   23  N4  UNL     1      12.516  45.652 -47.577  1.00  0.00    -0.228 N 
ATOM     24  H3  UNL     1      12.233  46.384 -45.728  1.00  0.00     0.210 HD
HETATM   25  N5  UNL     1      13.223  45.661 -48.701  1.00  0.00    -0.278 N 
ATOM     26  H4  UNL     1      11.720  45.020 -47.497  1.00  0.00     0.210 HD
ATOM     27  H5  UNL     1      12.983  45.048 -49.481  1.00  0.00     0.189 HD
BRANCH  19  28
HETATM   28  N1  UNL     1      15.544  48.116 -47.774  1.00  0.00    -0.382 N 
ATOM     29  H12 UNL     1      16.480  47.812 -47.505  1.00  0.00     0.157 HD
ATOM     30  H11 UNL     1      15.357  49.066 -48.094  1.00  0.00     0.157 HD
ENDBRANCH  19  28
ENDBRANCH  16  18
ENDBRANCH  15  16
ENDBRANCH  14  15
ENDBRANCH   1  14
BRANCH  10  31
HETATM   31  N9  UNL     1      20.033  45.699 -52.023  1.00  0.00    -0.138 N 
ATOM     32  H9  UNL     1      20.061  46.178 -51.122  1.00  0.00     0.205 HD
BRANCH  31  33
HETATM   33  N10 UNL     1      21.018  44.784 -52.340  1.00  0.00    -0.331 N 
ATOM     34 2H10 UNL     1      20.747  43.918 -52.805  1.00  0.00     0.177 HD
ATOM     35 1H10 UNL     1      21.996  44.969 -52.116  1.00  0.00     0.177 HD
ENDBRANCH  31  33
ENDBRANCH  10  31
TORSDOF 7
ENDMDL
MODEL 5
REMARK VINA RESULT: -7.265616363      1.642      8.231
REMARK  7 active torsions:
REMARK  status: ('A' for Active; 'I' for Inactive)
REMARK    1  A    between atoms: N1_1  and  C1_4 
REMARK    2  A    between atoms: C2_13  and  C3_14 
REMARK    3  A    between atoms: C3_14  and  C4_16 
REMARK    4  A    between atoms: C4_16  and  S1_17 
REMARK    5  A    between atoms: S1_17  and  C5_18 
REMARK    6  A    between atoms: C8_27  and  N9_28 
REMARK    7  A    between atoms: N9_28  and  N10_30 
ROOT
HETATM    1  C5  UNL     1      13.873  47.984 -48.373  1.00  0.00     0.102 A 
HETATM    2  N6  UNL     1      14.463  49.154 -48.618  1.00  0.00    -0.345 N 
ATOM      3  H6  UNL     1      14.976  49.263 -49.492  1.00  0.00     0.167 HD
HETATM    4  C6  UNL     1      14.415  50.209 -47.759  1.00  0.00     0.183 A 
HETATM    5  N7  UNL     1      13.753  50.123 -46.593  1.00  0.00    -0.336 N 
ATOM      6  H7  UNL     1      13.716  50.912 -45.948  1.00  0.00     0.168 HD
HETATM    7  C7  UNL     1      13.138  48.957 -46.301  1.00  0.00     0.152 A 
HETATM    8  N8  UNL     1      12.418  48.620 -45.213  1.00  0.00    -0.173 N 
ATOM      9  H8  UNL     1      12.217  49.216 -44.409  1.00  0.00     0.186 HD
HETATM   10  C8  UNL     1      12.019  47.368 -45.387  1.00  0.00     0.698 A 
HETATM   11  N11 UNL     1      12.484  46.912 -46.577  1.00  0.00    -0.184 N 
ATOM     12  H11 UNL     1      12.326  45.980 -46.960  1.00  0.00     0.184 HD
HETATM   13  C9  UNL     1      13.180  47.883 -47.161  1.00  0.00     0.127 A 
ENDROOT
BRANCH   1  14
HETATM   14  S1  UNL     1      13.882  46.561 -49.431  1.00  0.00    -0.102 SA
BRANCH  14  15
HETATM   15  C4  UNL     1      14.232  47.033 -51.112  1.00  0.00     0.166 C 
BRANCH  15  16
HETATM   16  C3  UNL     1      14.608  45.885 -51.992  1.00  0.00     0.190 C 
HETATM   17  O1  UNL     1      13.804  44.936 -52.073  1.00  0.00    -0.290 OA
BRANCH  16  18
HETATM   18  C2  UNL     1      15.847  45.856 -52.727  1.00  0.00     0.141 A 
HETATM   19  C1  UNL     1      15.850  45.764 -54.087  1.00  0.00     0.147 A 
HETATM   20  N2  UNL     1      17.009  45.731 -54.803  1.00  0.00    -0.268 N 
HETATM   21  N3  UNL     1      18.112  45.794 -54.081  1.00  0.00    -0.227 N 
ATOM     22  H2  UNL     1      17.023  45.661 -55.820  1.00  0.00     0.190 HD
HETATM   23  N4  UNL     1      18.123  45.884 -52.769  1.00  0.00    -0.228 N 
ATOM     24  H3  UNL     1      19.008  45.772 -54.569  1.00  0.00     0.210 HD
HETATM   25  N5  UNL     1      16.999  45.917 -52.061  1.00  0.00    -0.278 N 
ATOM     26  H4  UNL     1      19.017  45.929 -52.282  1.00  0.00     0.210 HD
ATOM     27  H5  UNL     1      17.018  45.988 -51.044  1.00  0.00     0.189 HD
BRANCH  19  28
HETATM   28  N1  UNL     1      14.752  45.704 -54.740  1.00  0.00    -0.382 N 
ATOM     29  H12 UNL     1      14.236  46.554 -54.970  1.00  0.00     0.157 HD
ATOM     30  H11 UNL     1      14.418  44.780 -55.014  1.00  0.00     0.157 HD
ENDBRANCH  19  28
ENDBRANCH  16  18
ENDBRANCH  15  16
ENDBRANCH  14  15
ENDBRANCH   1  14
BRANCH  10  31
HETATM   31  N9  UNL     1      11.293  46.644 -44.578  1.00  0.00    -0.138 N 
ATOM     32  H9  UNL     1      10.606  45.995 -44.962  1.00  0.00     0.205 HD
BRANCH  31  33
HETATM   33  N10 UNL     1      11.444  46.745 -43.208  1.00  0.00    -0.331 N 
ATOM     34 2H10 UNL     1      11.887  47.581 -42.827  1.00  0.00     0.177 HD
ATOM     35 1H10 UNL     1      11.119  46.002 -42.589  1.00  0.00     0.177 HD
ENDBRANCH  31  33
ENDBRANCH  10  31
TORSDOF 7
ENDMDL
