MODEL 1
REMARK VINA RESULT: -7.306945347      0.000      0.000
REMARK  6 active torsions:
REMARK  status: ('A' for Active; 'I' for Inactive)
REMARK    1  A    between atoms: C3_6  and  N3_7 
REMARK    2  A    between atoms: C5_14  and  C6_15 
REMARK    3  A    between atoms: C6_15  and  O2_16 
REMARK    4  A    between atoms: C6_15  and  C7_18 
REMARK    5  A    between atoms: C8_23  and  C9_24 
REMARK       I    between atoms: C9_24  and  N7_26 
REMARK    6  A    between atoms: N7_26  and  N8_28 
ROOT
HETATM    1  N1  UNL     1      17.856  45.052 -49.534  1.00  0.00    -0.190 NA
HETATM    2  C1  UNL     1      16.860  45.650 -49.494  1.00  0.00     0.119 C 
HETATM    3  C2  UNL     1      15.643  46.414 -49.447  1.00  0.00     0.144 A 
HETATM    4  N2  UNL     1      15.542  47.420 -48.538  1.00  0.00    -0.181 N 
ATOM      5  H2  UNL     1      16.312  47.613 -47.898  1.00  0.00     0.185 HD
HETATM    6  C3  UNL     1      14.421  48.157 -48.488  1.00  0.00     0.679 A 
HETATM    7  N4  UNL     1      13.430  47.874 -49.342  1.00  0.00    -0.156 N 
ATOM      8  H4  UNL     1      12.582  48.439 -49.295  1.00  0.00     0.187 HD
HETATM    9  C4  UNL     1      13.484  46.892 -50.254  1.00  0.00     0.271 A 
HETATM   10  O1  UNL     1      12.514  46.667 -51.040  1.00  0.00    -0.267 OA
HETATM   11  C5  UNL     1      14.645  46.115 -50.319  1.00  0.00     0.083 A 
ENDROOT
BRANCH  11  12
HETATM   12  C6  UNL     1      14.661  45.044 -51.311  1.00  0.00     0.218 C 
BRANCH  12  13
HETATM   13  O2  UNL     1      13.465  44.363 -51.460  1.00  0.00    -0.384 OA
ATOM     14  H2  UNL     1      12.839  44.769 -52.049  1.00  0.00     0.211 HD
ENDBRANCH  12  13
BRANCH  12  15
HETATM   15  C7  UNL     1      14.953  45.662 -52.658  1.00  0.00     0.102 A 
HETATM   16  N5  UNL     1      14.153  45.692 -53.727  1.00  0.00    -0.294 N 
HETATM   17  N6  UNL     1      14.540  46.249 -54.787  1.00  0.00    -0.288 N 
ATOM     18  H5  UNL     1      13.229  45.263 -53.684  1.00  0.00     0.187 HD
HETATM   19  C8  UNL     1      15.747  46.809 -54.840  1.00  0.00     0.161 A 
ATOM     20  H6  UNL     1      13.931  46.272 -55.605  1.00  0.00     0.188 HD
HETATM   21  S1  UNL     1      16.321  46.491 -53.257  1.00  0.00    -0.048 SA
BRANCH  19  22
HETATM   22  C9  UNL     1      16.396  47.507 -55.961  1.00  0.00     0.294 C 
HETATM   23  O3  UNL     1      17.496  47.056 -56.348  1.00  0.00    -0.264 OA
HETATM   24  N7  UNL     1      15.813  48.620 -56.567  1.00  0.00    -0.271 N 
ATOM     25  H7  UNL     1      14.914  48.958 -56.224  1.00  0.00     0.189 HD
BRANCH  24  26
HETATM   26  N8  UNL     1      16.419  49.277 -57.619  1.00  0.00    -0.342 N 
ATOM     27  H82 UNL     1      17.429  49.183 -57.726  1.00  0.00     0.176 HD
ATOM     28  H81 UNL     1      15.885  49.844 -58.278  1.00  0.00     0.176 HD
ENDBRANCH  24  26
ENDBRANCH  19  22
ENDBRANCH  12  15
ENDBRANCH  11  12
BRANCH   6  29
HETATM   29  N3  UNL     1      14.331  49.111 -47.624  1.00  0.00    -0.234 N 
ATOM     30  H32 UNL     1      14.464  50.090 -47.880  1.00  0.00     0.174 HD
ATOM     31  H31 UNL     1      14.120  48.885 -46.652  1.00  0.00     0.174 HD
ENDBRANCH   6  29
TORSDOF 6
ENDMDL
MODEL 2
REMARK VINA RESULT: -7.088486773      2.598      3.471
REMARK  6 active torsions:
REMARK  status: ('A' for Active; 'I' for Inactive)
REMARK    1  A    between atoms: C3_6  and  N3_7 
REMARK    2  A    between atoms: C5_14  and  C6_15 
REMARK    3  A    between atoms: C6_15  and  O2_16 
REMARK    4  A    between atoms: C6_15  and  C7_18 
REMARK    5  A    between atoms: C8_23  and  C9_24 
REMARK       I    between atoms: C9_24  and  N7_26 
REMARK    6  A    between atoms: N7_26  and  N8_28 
ROOT
HETATM    1  N1  UNL     1      18.158  49.561 -51.611  1.00  0.00    -0.190 NA
HETATM    2  C1  UNL     1      17.264  48.821 -51.678  1.00  0.00     0.119 C 
HETATM    3  C2  UNL     1      16.140  47.928 -51.762  1.00  0.00     0.144 A 
HETATM    4  N2  UNL     1      15.130  48.068 -50.863  1.00  0.00    -0.181 N 
ATOM      5  H2  UNL     1      15.183  48.785 -50.139  1.00  0.00     0.185 HD
HETATM    6  C3  UNL     1      14.064  47.256 -50.933  1.00  0.00     0.679 A 
HETATM    7  N4  UNL     1      14.029  46.326 -51.895  1.00  0.00    -0.156 N 
ATOM      8  H4  UNL     1      13.215  45.713 -51.939  1.00  0.00     0.187 HD
HETATM    9  C4  UNL     1      15.001  46.151 -52.803  1.00  0.00     0.271 A 
HETATM   10  O1  UNL     1      14.917  45.251 -53.694  1.00  0.00    -0.267 OA
HETATM   11  C5  UNL     1      16.119  46.988 -52.743  1.00  0.00     0.083 A 
ENDROOT
BRANCH  11  12
HETATM   12  C6  UNL     1      17.165  46.756 -53.735  1.00  0.00     0.218 C 
BRANCH  12  13
HETATM   13  O2  UNL     1      17.418  45.425 -54.022  1.00  0.00    -0.384 OA
ATOM     14  H2  UNL     1      17.698  44.898 -53.282  1.00  0.00     0.211 HD
ENDBRANCH  12  13
BRANCH  12  15
HETATM   15  C7  UNL     1      16.718  47.379 -55.037  1.00  0.00     0.102 A 
HETATM   16  N5  UNL     1      15.915  46.843 -55.959  1.00  0.00    -0.294 N 
HETATM   17  N6  UNL     1      15.632  47.491 -56.999  1.00  0.00    -0.288 N 
ATOM     18  H5  UNL     1      15.532  45.908 -55.820  1.00  0.00     0.187 HD
HETATM   19  C8  UNL     1      16.133  48.712 -57.178  1.00  0.00     0.161 A 
ATOM     20  H6  UNL     1      15.019  47.083 -57.706  1.00  0.00     0.188 HD
HETATM   21  S1  UNL     1      17.057  48.895 -55.747  1.00  0.00    -0.048 SA
BRANCH  19  22
HETATM   22  C9  UNL     1      15.936  49.639 -58.305  1.00  0.00     0.294 C 
HETATM   23  O3  UNL     1      15.576  50.802 -58.023  1.00  0.00    -0.264 OA
HETATM   24  N7  UNL     1      16.141  49.240 -59.625  1.00  0.00    -0.271 N 
ATOM     25  H7  UNL     1      16.436  48.282 -59.814  1.00  0.00     0.189 HD
BRANCH  24  26
HETATM   26  N8  UNL     1      15.958  50.106 -60.684  1.00  0.00    -0.342 N 
ATOM     27  H82 UNL     1      16.449  49.909 -61.556  1.00  0.00     0.176 HD
ATOM     28  H81 UNL     1      15.351  50.923 -60.612  1.00  0.00     0.176 HD
ENDBRANCH  24  26
ENDBRANCH  19  22
ENDBRANCH  12  15
ENDBRANCH  11  12
BRANCH   6  29
HETATM   29  N3  UNL     1      13.108  47.394 -50.077  1.00  0.00    -0.234 N 
ATOM     30  H32 UNL     1      12.473  46.630 -49.845  1.00  0.00     0.174 HD
ATOM     31  H31 UNL     1      12.979  48.294 -49.614  1.00  0.00     0.174 HD
ENDBRANCH   6  29
TORSDOF 6
ENDMDL
MODEL 3
REMARK VINA RESULT: -7.004396888      3.009      6.244
REMARK  6 active torsions:
REMARK  status: ('A' for Active; 'I' for Inactive)
REMARK    1  A    between atoms: C3_6  and  N3_7 
REMARK    2  A    between atoms: C5_14  and  C6_15 
REMARK    3  A    between atoms: C6_15  and  O2_16 
REMARK    4  A    between atoms: C6_15  and  C7_18 
REMARK    5  A    between atoms: C8_23  and  C9_24 
REMARK       I    between atoms: C9_24  and  N7_26 
REMARK    6  A    between atoms: N7_26  and  N8_28 
ROOT
HETATM    1  N1  UNL     1      18.501  49.538 -50.543  1.00  0.00    -0.190 NA
HETATM    2  C1  UNL     1      18.609  48.584 -51.197  1.00  0.00     0.119 C 
HETATM    3  C2  UNL     1      18.748  47.386 -51.981  1.00  0.00     0.144 A 
HETATM    4  N2  UNL     1      19.893  46.662 -51.865  1.00  0.00    -0.181 N 
ATOM      5  H2  UNL     1      20.637  46.975 -51.241  1.00  0.00     0.185 HD
HETATM    6  C3  UNL     1      20.037  45.533 -52.575  1.00  0.00     0.679 A 
HETATM    7  N4  UNL     1      19.041  45.154 -53.385  1.00  0.00    -0.156 N 
ATOM      8  H4  UNL     1      19.161  44.295 -53.921  1.00  0.00     0.187 HD
HETATM    9  C4  UNL     1      17.895  45.836 -53.533  1.00  0.00     0.271 A 
HETATM   10  O1  UNL     1      16.982  45.430 -54.316  1.00  0.00    -0.267 OA
HETATM   11  C5  UNL     1      17.729  47.015 -52.799  1.00  0.00     0.083 A 
ENDROOT
BRANCH  11  12
HETATM   12  C6  UNL     1      16.478  47.740 -53.001  1.00  0.00     0.218 C 
BRANCH  12  13
HETATM   13  O2  UNL     1      16.002  47.741 -54.301  1.00  0.00    -0.384 OA
ATOM     14  H2  UNL     1      16.501  48.269 -54.914  1.00  0.00     0.211 HD
ENDBRANCH  12  13
BRANCH  12  15
HETATM   15  C7  UNL     1      15.410  47.065 -52.172  1.00  0.00     0.102 A 
HETATM   16  N5  UNL     1      14.470  46.216 -52.597  1.00  0.00    -0.294 N 
HETATM   17  N6  UNL     1      13.645  45.732 -51.779  1.00  0.00    -0.288 N 
ATOM     18  H5  UNL     1      14.421  45.961 -53.583  1.00  0.00     0.187 HD
HETATM   19  C8  UNL     1      13.712  46.066 -50.492  1.00  0.00     0.161 A 
ATOM     20  H6  UNL     1      12.926  45.085 -52.102  1.00  0.00     0.188 HD
HETATM   21  S1  UNL     1      15.049  47.138 -50.504  1.00  0.00    -0.048 SA
BRANCH  19  22
HETATM   22  C9  UNL     1      12.861  45.625 -49.375  1.00  0.00     0.294 C 
HETATM   23  O3  UNL     1      11.857  44.940 -49.666  1.00  0.00    -0.264 OA
HETATM   24  N7  UNL     1      13.158  45.954 -48.053  1.00  0.00    -0.271 N 
ATOM     25  H7  UNL     1      13.988  46.514 -47.856  1.00  0.00     0.189 HD
BRANCH  24  26
HETATM   26  N8  UNL     1      12.362  45.541 -47.003  1.00  0.00    -0.342 N 
ATOM     27  H82 UNL     1      12.143  46.219 -46.272  1.00  0.00     0.176 HD
ATOM     28  H81 UNL     1      11.997  44.591 -46.946  1.00  0.00     0.176 HD
ENDBRANCH  24  26
ENDBRANCH  19  22
ENDBRANCH  12  15
ENDBRANCH  11  12
BRANCH   6  29
HETATM   29  N3  UNL     1      21.125  44.849 -52.460  1.00  0.00    -0.234 N 
ATOM     30  H32 UNL     1      21.266  43.966 -52.951  1.00  0.00     0.174 HD
ATOM     31  H31 UNL     1      21.872  45.198 -51.860  1.00  0.00     0.174 HD
ENDBRANCH   6  29
TORSDOF 6
ENDMDL
MODEL 4
REMARK VINA RESULT: -6.893710025      2.387      6.577
REMARK  6 active torsions:
REMARK  status: ('A' for Active; 'I' for Inactive)
REMARK    1  A    between atoms: C3_6  and  N3_7 
REMARK    2  A    between atoms: C5_14  and  C6_15 
REMARK    3  A    between atoms: C6_15  and  O2_16 
REMARK    4  A    between atoms: C6_15  and  C7_18 
REMARK    5  A    between atoms: C8_23  and  C9_24 
REMARK       I    between atoms: C9_24  and  N7_26 
REMARK    6  A    between atoms: N7_26  and  N8_28 
ROOT
HETATM    1  N1  UNL     1      17.949  49.682 -52.361  1.00  0.00    -0.190 NA
HETATM    2  C1  UNL     1      17.486  48.967 -53.151  1.00  0.00     0.119 C 
HETATM    3  C2  UNL     1      16.930  48.095 -54.151  1.00  0.00     0.144 A 
HETATM    4  N2  UNL     1      16.353  48.650 -55.249  1.00  0.00    -0.181 N 
ATOM      5  H2  UNL     1      16.308  49.664 -55.349  1.00  0.00     0.185 HD
HETATM    6  C3  UNL     1      15.842  47.855 -56.202  1.00  0.00     0.679 A 
HETATM    7  N4  UNL     1      15.916  46.528 -56.037  1.00  0.00    -0.156 N 
ATOM      8  H4  UNL     1      15.523  45.933 -56.766  1.00  0.00     0.187 HD
HETATM    9  C4  UNL     1      16.475  45.936 -54.971  1.00  0.00     0.271 A 
HETATM   10  O1  UNL     1      16.518  44.672 -54.865  1.00  0.00    -0.267 OA
HETATM   11  C5  UNL     1      17.012  46.751 -53.969  1.00  0.00     0.083 A 
ENDROOT
BRANCH  11  12
HETATM   12  C6  UNL     1      17.594  46.072 -52.815  1.00  0.00     0.218 C 
BRANCH  12  13
HETATM   13  O2  UNL     1      18.737  46.660 -52.301  1.00  0.00    -0.384 OA
ATOM     14  H2  UNL     1      19.196  46.147 -51.646  1.00  0.00     0.211 HD
ENDBRANCH  12  13
BRANCH  12  15
HETATM   15  C7  UNL     1      16.578  46.102 -51.697  1.00  0.00     0.102 A 
HETATM   16  N5  UNL     1      16.757  46.546 -50.450  1.00  0.00    -0.294 N 
HETATM   17  N6  UNL     1      15.807  46.506 -49.626  1.00  0.00    -0.288 N 
ATOM     18  H5  UNL     1      17.663  46.917 -50.167  1.00  0.00     0.187 HD
HETATM   19  C8  UNL     1      14.624  46.022 -50.000  1.00  0.00     0.161 A 
ATOM     20  H6  UNL     1      15.942  46.844 -48.673  1.00  0.00     0.188 HD
HETATM   21  S1  UNL     1      14.942  45.612 -51.633  1.00  0.00    -0.048 SA
BRANCH  19  22
HETATM   22  C9  UNL     1      13.389  45.883 -49.211  1.00  0.00     0.294 C 
HETATM   23  O3  UNL     1      12.315  45.827 -49.848  1.00  0.00    -0.264 OA
HETATM   24  N7  UNL     1      13.413  45.817 -47.818  1.00  0.00    -0.271 N 
ATOM     25  H7  UNL     1      14.309  45.866 -47.335  1.00  0.00     0.189 HD
BRANCH  24  26
HETATM   26  N8  UNL     1      12.256  45.687 -47.075  1.00  0.00    -0.342 N 
ATOM     27  H82 UNL     1      11.473  46.303 -47.296  1.00  0.00     0.176 HD
ATOM     28  H81 UNL     1      12.173  45.002 -46.326  1.00  0.00     0.176 HD
ENDBRANCH  24  26
ENDBRANCH  19  22
ENDBRANCH  12  15
ENDBRANCH  11  12
BRANCH   6  29
HETATM   29  N3  UNL     1      15.296  48.387 -57.243  1.00  0.00    -0.234 N 
ATOM     30  H32 UNL     1      14.713  49.222 -57.183  1.00  0.00     0.174 HD
ATOM     31  H31 UNL     1      15.450  47.964 -58.158  1.00  0.00     0.174 HD
ENDBRANCH   6  29
TORSDOF 6
ENDMDL
MODEL 5
REMARK VINA RESULT: -6.865734756      2.354      6.401
REMARK  6 active torsions:
REMARK  status: ('A' for Active; 'I' for Inactive)
REMARK    1  A    between atoms: C3_6  and  N3_7 
REMARK    2  A    between atoms: C5_14  and  C6_15 
REMARK    3  A    between atoms: C6_15  and  O2_16 
REMARK    4  A    between atoms: C6_15  and  C7_18 
REMARK    5  A    between atoms: C8_23  and  C9_24 
REMARK       I    between atoms: C9_24  and  N7_26 
REMARK    6  A    between atoms: N7_26  and  N8_28 
ROOT
HETATM    1  N1  UNL     1      14.820  48.597 -56.893  1.00  0.00    -0.190 NA
HETATM    2  C1  UNL     1      15.734  48.586 -56.175  1.00  0.00     0.119 C 
HETATM    3  C2  UNL     1      16.853  48.595 -55.271  1.00  0.00     0.144 A 
HETATM    4  N2  UNL     1      17.531  49.759 -55.087  1.00  0.00    -0.181 N 
ATOM      5  H2  UNL     1      17.253  50.600 -55.593  1.00  0.00     0.185 HD
HETATM    6  C3  UNL     1      18.567  49.793 -54.236  1.00  0.00     0.679 A 
HETATM    7  N4  UNL     1      18.905  48.670 -53.591  1.00  0.00    -0.156 N 
ATOM      8  H4  UNL     1      19.695  48.707 -52.948  1.00  0.00     0.187 HD
HETATM    9  C4  UNL     1      18.266  47.500 -53.741  1.00  0.00     0.271 A 
HETATM   10  O1  UNL     1      18.629  46.464 -53.104  1.00  0.00    -0.267 OA
HETATM   11  C5  UNL     1      17.183  47.446 -54.624  1.00  0.00     0.083 A 
ENDROOT
BRANCH  11  12
HETATM   12  C6  UNL     1      16.526  46.152 -54.777  1.00  0.00     0.218 C 
BRANCH  12  13
HETATM   13  O2  UNL     1      17.364  45.053 -54.692  1.00  0.00    -0.384 OA
ATOM     14  H2  UNL     1      17.401  44.638 -53.838  1.00  0.00     0.211 HD
ENDBRANCH  12  13
BRANCH  12  15
HETATM   15  C7  UNL     1      15.533  46.000 -53.648  1.00  0.00     0.102 A 
HETATM   16  N5  UNL     1      14.214  45.815 -53.747  1.00  0.00    -0.294 N 
HETATM   17  N6  UNL     1      13.515  45.704 -52.707  1.00  0.00    -0.288 N 
ATOM     18  H5  UNL     1      13.774  45.765 -54.666  1.00  0.00     0.187 HD
HETATM   19  C8  UNL     1      14.092  45.769 -51.509  1.00  0.00     0.161 A 
ATOM     20  H6  UNL     1      12.507  45.564 -52.781  1.00  0.00     0.188 HD
HETATM   21  S1  UNL     1      15.731  46.006 -51.951  1.00  0.00    -0.048 SA
BRANCH  19  22
HETATM   22  C9  UNL     1      13.475  45.665 -50.176  1.00  0.00     0.294 C 
HETATM   23  O3  UNL     1      12.317  45.198 -50.125  1.00  0.00    -0.264 OA
HETATM   24  N7  UNL     1      14.149  46.065 -49.023  1.00  0.00    -0.271 N 
ATOM     25  H7  UNL     1      15.094  46.440 -49.106  1.00  0.00     0.189 HD
BRANCH  24  26
HETATM   26  N8  UNL     1      13.573  45.969 -47.773  1.00  0.00    -0.342 N 
ATOM     27  H82 UNL     1      12.667  45.506 -47.696  1.00  0.00     0.176 HD
ATOM     28  H81 UNL     1      14.029  46.344 -46.941  1.00  0.00     0.176 HD
ENDBRANCH  24  26
ENDBRANCH  19  22
ENDBRANCH  12  15
ENDBRANCH  11  12
BRANCH   6  29
HETATM   29  N3  UNL     1      19.207  50.901 -54.065  1.00  0.00    -0.234 N 
ATOM     30  H32 UNL     1      18.852  51.792 -54.414  1.00  0.00     0.174 HD
ATOM     31  H31 UNL     1      20.095  50.892 -53.564  1.00  0.00     0.174 HD
ENDBRANCH   6  29
TORSDOF 6
ENDMDL
