MODEL 1
REMARK VINA RESULT: -7.332882147      0.000      0.000
REMARK  7 active torsions:
REMARK  status: ('A' for Active; 'I' for Inactive)
REMARK    1  A    between atoms: N1_1  and  C1_4 
REMARK    2  A    between atoms: C5_14  and  C6_15 
REMARK    3  A    between atoms: N7_19  and  C7_20 
REMARK    4  A    between atoms: C7_20  and  C8_21 
REMARK    5  A    between atoms: C8_21  and  C9_22 
REMARK    6  A    between atoms: C9_22  and  C10_23 
REMARK    7  A    between atoms: C10_23  and  O1_24 
ROOT
HETATM    1  C1  UNL     1      15.810  45.944 -53.825  1.00  0.00     0.132 A 
HETATM    2  N2  UNL     1      16.977  45.921 -54.493  1.00  0.00    -0.337 N 
ATOM      3  H2  UNL     1      16.974  45.831 -55.509  1.00  0.00     0.168 HD
HETATM    4  C2  UNL     1      18.149  46.017 -53.838  1.00  0.00     0.183 A 
HETATM    5  N3  UNL     1      18.133  46.137 -52.494  1.00  0.00    -0.336 N 
ATOM      6  H3  UNL     1      19.019  46.209 -51.993  1.00  0.00     0.168 HD
HETATM    7  C3  UNL     1      16.973  46.164 -51.788  1.00  0.00     0.140 A 
HETATM    8  N4  UNL     1      16.661  46.271 -50.491  1.00  0.00    -0.323 N 
ATOM      9  H4  UNL     1      17.346  46.360 -49.741  1.00  0.00     0.169 HD
HETATM   10  C4  UNL     1      15.328  46.245 -50.303  1.00  0.00     0.160 A 
HETATM   11  C5  UNL     1      14.287  46.295 -49.386  1.00  0.00     0.138 A 
HETATM   12  N9  UNL     1      13.152  46.197 -50.070  1.00  0.00    -0.277 N 
ATOM     13  H9  UNL     1      12.211  46.202 -49.677  1.00  0.00     0.184 HD
HETATM   14  N10 UNL     1      13.464  46.092 -51.354  1.00  0.00    -0.013 NA
HETATM   15  N11 UNL     1      14.773  46.117 -51.534  1.00  0.00    -0.214 N 
HETATM   16  C11 UNL     1      15.760  46.067 -52.445  1.00  0.00     0.144 A 
ENDROOT
BRANCH  11  17
HETATM   17  C6  UNL     1      14.463  46.430 -47.930  1.00  0.00     0.166 A 
HETATM   18  N5  UNL     1      13.977  45.621 -46.972  1.00  0.00    -0.265 N 
HETATM   19  N6  UNL     1      14.362  46.094 -45.798  1.00  0.00    -0.002 NA
ATOM     20  H5  UNL     1      13.410  44.787 -47.125  1.00  0.00     0.186 HD
HETATM   21  N7  UNL     1      15.084  47.188 -45.970  1.00  0.00    -0.213 N 
HETATM   22  N8  UNL     1      15.143  47.388 -47.275  1.00  0.00    -0.267 N 
ATOM     23  H8  UNL     1      15.634  48.161 -47.723  1.00  0.00     0.190 HD
BRANCH  21  24
HETATM   24  C7  UNL     1      15.688  47.997 -44.913  1.00  0.00     0.194 C 
BRANCH  24  25
HETATM   25  C8  UNL     1      16.598  47.181 -44.078  1.00  0.00    -0.006 C 
BRANCH  25  26
HETATM   26  C9  UNL     1      17.730  46.699 -44.586  1.00  0.00    -0.004 C 
BRANCH  26  27
HETATM   27  C10 UNL     1      17.863  45.255 -44.919  1.00  0.00     0.191 C 
BRANCH  27  28
HETATM   28  O1  UNL     1      17.026  44.887 -45.960  1.00  0.00    -0.397 OA
ATOM     29  H1  UNL     1      16.857  43.952 -45.964  1.00  0.00     0.209 HD
ENDBRANCH  27  28
ENDBRANCH  26  27
ENDBRANCH  25  26
ENDBRANCH  24  25
ENDBRANCH  21  24
ENDBRANCH  11  17
BRANCH   1  30
HETATM   30  N1  UNL     1      14.714  45.853 -54.473  1.00  0.00    -0.383 N 
ATOM     31  H12 UNL     1      14.710  45.350 -55.361  1.00  0.00     0.157 HD
ATOM     32  H11 UNL     1      13.870  46.281 -54.093  1.00  0.00     0.157 HD
ENDBRANCH   1  30
TORSDOF 7
ENDMDL
MODEL 2
REMARK VINA RESULT: -7.326125053      2.707      3.364
REMARK  7 active torsions:
REMARK  status: ('A' for Active; 'I' for Inactive)
REMARK    1  A    between atoms: N1_1  and  C1_4 
REMARK    2  A    between atoms: C5_14  and  C6_15 
REMARK    3  A    between atoms: N7_19  and  C7_20 
REMARK    4  A    between atoms: C7_20  and  C8_21 
REMARK    5  A    between atoms: C8_21  and  C9_22 
REMARK    6  A    between atoms: C9_22  and  C10_23 
REMARK    7  A    between atoms: C10_23  and  O1_24 
ROOT
HETATM    1  C1  UNL     1      16.299  45.836 -53.930  1.00  0.00     0.132 A 
HETATM    2  N2  UNL     1      17.558  45.828 -54.403  1.00  0.00    -0.337 N 
ATOM      3  H2  UNL     1      17.723  45.652 -55.394  1.00  0.00     0.168 HD
HETATM    4  C2  UNL     1      18.604  46.050 -53.585  1.00  0.00     0.183 A 
HETATM    5  N3  UNL     1      18.366  46.282 -52.277  1.00  0.00    -0.336 N 
ATOM      6  H3  UNL     1      19.155  46.451 -51.652  1.00  0.00     0.168 HD
HETATM    7  C3  UNL     1      17.107  46.298 -51.766  1.00  0.00     0.140 A 
HETATM    8  N4  UNL     1      16.586  46.494 -50.550  1.00  0.00    -0.323 N 
ATOM      9  H4  UNL     1      17.136  46.688 -49.713  1.00  0.00     0.169 HD
HETATM   10  C4  UNL     1      15.243  46.403 -50.571  1.00  0.00     0.160 A 
HETATM   11  C5  UNL     1      14.067  46.466 -49.836  1.00  0.00     0.138 A 
HETATM   12  N9  UNL     1      13.063  46.241 -50.676  1.00  0.00    -0.277 N 
ATOM     13  H9  UNL     1      12.071  46.222 -50.437  1.00  0.00     0.184 HD
HETATM   14  N10 UNL     1      13.582  46.048 -51.881  1.00  0.00    -0.013 NA
HETATM   15  N11 UNL     1      14.900  46.138 -51.856  1.00  0.00    -0.214 N 
HETATM   16  C11 UNL     1      16.022  46.071 -52.592  1.00  0.00     0.144 A 
ENDROOT
BRANCH  11  17
HETATM   17  C6  UNL     1      13.999  46.734 -48.389  1.00  0.00     0.166 A 
HETATM   18  N5  UNL     1      14.711  46.139 -47.416  1.00  0.00    -0.265 N 
HETATM   19  N6  UNL     1      14.350  46.669 -46.258  1.00  0.00    -0.002 NA
ATOM     20  H5  UNL     1      15.408  45.407 -47.548  1.00  0.00     0.186 HD
HETATM   21  N7  UNL     1      13.423  47.591 -46.456  1.00  0.00    -0.213 N 
HETATM   22  N8  UNL     1      13.213  47.626 -47.760  1.00  0.00    -0.267 N 
ATOM     23  H8  UNL     1      12.549  48.244 -48.225  1.00  0.00     0.190 HD
BRANCH  21  24
HETATM   24  C7  UNL     1      12.776  48.397 -45.423  1.00  0.00     0.194 C 
BRANCH  24  25
HETATM   25  C8  UNL     1      11.577  49.079 -45.960  1.00  0.00    -0.006 C 
BRANCH  25  26
HETATM   26  C9  UNL     1      10.490  49.228 -45.207  1.00  0.00    -0.004 C 
BRANCH  26  27
HETATM   27  C10 UNL     1       9.232  48.502 -45.529  1.00  0.00     0.191 C 
BRANCH  27  28
HETATM   28  O1  UNL     1       9.470  47.175 -45.850  1.00  0.00    -0.397 OA
ATOM     29  H1  UNL     1       8.808  46.830 -46.438  1.00  0.00     0.209 HD
ENDBRANCH  27  28
ENDBRANCH  26  27
ENDBRANCH  25  26
ENDBRANCH  24  25
ENDBRANCH  21  24
ENDBRANCH  11  17
BRANCH   1  30
HETATM   30  N1  UNL     1      15.328  45.623 -54.730  1.00  0.00    -0.383 N 
ATOM     31  H12 UNL     1      15.520  45.557 -55.730  1.00  0.00     0.157 HD
ATOM     32  H11 UNL     1      14.384  45.522 -54.357  1.00  0.00     0.157 HD
ENDBRANCH   1  30
TORSDOF 7
ENDMDL
MODEL 3
REMARK VINA RESULT: -7.253477814      2.998      3.602
REMARK  7 active torsions:
REMARK  status: ('A' for Active; 'I' for Inactive)
REMARK    1  A    between atoms: N1_1  and  C1_4 
REMARK    2  A    between atoms: C5_14  and  C6_15 
REMARK    3  A    between atoms: N7_19  and  C7_20 
REMARK    4  A    between atoms: C7_20  and  C8_21 
REMARK    5  A    between atoms: C8_21  and  C9_22 
REMARK    6  A    between atoms: C9_22  and  C10_23 
REMARK    7  A    between atoms: C10_23  and  O1_24 
ROOT
HETATM    1  C1  UNL     1      15.759  46.727 -54.243  1.00  0.00     0.132 A 
HETATM    2  N2  UNL     1      16.467  47.611 -54.968  1.00  0.00    -0.337 N 
ATOM      3  H2  UNL     1      16.657  47.419 -55.951  1.00  0.00     0.168 HD
HETATM    4  C2  UNL     1      16.928  48.747 -54.411  1.00  0.00     0.183 A 
HETATM    5  N3  UNL     1      16.666  48.984 -53.108  1.00  0.00    -0.336 N 
ATOM      6  H3  UNL     1      17.013  49.843 -52.681  1.00  0.00     0.168 HD
HETATM    7  C3  UNL     1      15.953  48.113 -52.348  1.00  0.00     0.140 A 
HETATM    8  N4  UNL     1      15.552  48.084 -51.072  1.00  0.00    -0.323 N 
ATOM      9  H4  UNL     1      15.751  48.816 -50.390  1.00  0.00     0.169 HD
HETATM   10  C4  UNL     1      14.852  46.966 -50.802  1.00  0.00     0.160 A 
HETATM   11  C5  UNL     1      14.160  46.237 -49.845  1.00  0.00     0.138 A 
HETATM   12  N9  UNL     1      13.723  45.128 -50.431  1.00  0.00    -0.277 N 
ATOM     13  H9  UNL     1      13.180  44.386 -49.988  1.00  0.00     0.184 HD
HETATM   14  N10 UNL     1      14.121  45.158 -51.696  1.00  0.00    -0.013 NA
HETATM   15  N11 UNL     1      14.808  46.257 -51.956  1.00  0.00    -0.214 N 
HETATM   16  C11 UNL     1      15.472  46.941 -52.904  1.00  0.00     0.144 A 
ENDROOT
BRANCH  11  17
HETATM   17  C6  UNL     1      13.972  46.660 -48.446  1.00  0.00     0.166 A 
HETATM   18  N5  UNL     1      14.263  45.958 -47.337  1.00  0.00    -0.265 N 
HETATM   19  N6  UNL     1      13.944  46.696 -46.286  1.00  0.00    -0.002 NA
ATOM     20  H5  UNL     1      14.661  45.020 -47.311  1.00  0.00     0.186 HD
HETATM   21  N7  UNL     1      13.454  47.858 -46.685  1.00  0.00    -0.213 N 
HETATM   22  N8  UNL     1      13.474  47.829 -48.006  1.00  0.00    -0.267 N 
ATOM     23  H8  UNL     1      13.157  48.588 -48.608  1.00  0.00     0.190 HD
BRANCH  21  24
HETATM   24  C7  UNL     1      12.991  48.940 -45.820  1.00  0.00     0.194 C 
BRANCH  24  25
HETATM   25  C8  UNL     1      11.928  49.728 -46.484  1.00  0.00    -0.006 C 
BRANCH  25  26
HETATM   26  C9  UNL     1      10.802  50.022 -45.838  1.00  0.00    -0.004 C 
BRANCH  26  27
HETATM   27  C10 UNL     1       9.879  48.947 -45.385  1.00  0.00     0.191 C 
BRANCH  27  28
HETATM   28  O1  UNL     1       9.975  48.726 -44.021  1.00  0.00    -0.397 OA
ATOM     29  H1  UNL     1       9.221  49.063 -43.553  1.00  0.00     0.209 HD
ENDBRANCH  27  28
ENDBRANCH  26  27
ENDBRANCH  25  26
ENDBRANCH  24  25
ENDBRANCH  21  24
ENDBRANCH  11  17
BRANCH   1  30
HETATM   30  N1  UNL     1      15.334  45.659 -54.799  1.00  0.00    -0.383 N 
ATOM     31  H12 UNL     1      15.998  45.071 -55.304  1.00  0.00     0.157 HD
ATOM     32  H11 UNL     1      14.346  45.416 -54.727  1.00  0.00     0.157 HD
ENDBRANCH   1  30
TORSDOF 7
ENDMDL
MODEL 4
REMARK VINA RESULT: -7.135100040      6.006      8.575
REMARK  7 active torsions:
REMARK  status: ('A' for Active; 'I' for Inactive)
REMARK    1  A    between atoms: N1_1  and  C1_4 
REMARK    2  A    between atoms: C5_14  and  C6_15 
REMARK    3  A    between atoms: N7_19  and  C7_20 
REMARK    4  A    between atoms: C7_20  and  C8_21 
REMARK    5  A    between atoms: C8_21  and  C9_22 
REMARK    6  A    between atoms: C9_22  and  C10_23 
REMARK    7  A    between atoms: C10_23  and  O1_24 
ROOT
HETATM    1  C1  UNL     1      14.791  47.954 -44.702  1.00  0.00     0.132 A 
HETATM    2  N2  UNL     1      16.012  47.432 -44.488  1.00  0.00    -0.337 N 
ATOM      3  H2  UNL     1      16.196  46.920 -43.625  1.00  0.00     0.168 HD
HETATM    4  C2  UNL     1      16.994  47.577 -45.398  1.00  0.00     0.183 A 
HETATM    5  N3  UNL     1      16.731  48.257 -46.533  1.00  0.00    -0.336 N 
ATOM      6  H3  UNL     1      17.471  48.370 -47.226  1.00  0.00     0.168 HD
HETATM    7  C3  UNL     1      15.509  48.796 -46.782  1.00  0.00     0.140 A 
HETATM    8  N4  UNL     1      14.976  49.500 -47.787  1.00  0.00    -0.323 N 
ATOM      9  H4  UNL     1      15.481  49.770 -48.631  1.00  0.00     0.169 HD
HETATM   10  C4  UNL     1      13.688  49.806 -47.544  1.00  0.00     0.160 A 
HETATM   11  C5  UNL     1      12.540  50.433 -48.007  1.00  0.00     0.138 A 
HETATM   12  N9  UNL     1      11.598  50.269 -47.084  1.00  0.00    -0.277 N 
ATOM     13  H9  UNL     1      10.640  50.617 -47.133  1.00  0.00     0.184 HD
HETATM   14  N10 UNL     1      12.128  49.571 -46.089  1.00  0.00    -0.013 NA
HETATM   15  N11 UNL     1      13.393  49.273 -46.332  1.00  0.00    -0.214 N 
HETATM   16  C11 UNL     1      14.489  48.657 -45.858  1.00  0.00     0.144 A 
ENDROOT
BRANCH  11  17
HETATM   17  C6  UNL     1      12.436  51.140 -49.295  1.00  0.00     0.166 A 
HETATM   18  N5  UNL     1      12.269  50.594 -50.513  1.00  0.00    -0.265 N 
HETATM   19  N6  UNL     1      12.225  51.574 -51.402  1.00  0.00    -0.002 NA
ATOM     20  H5  UNL     1      12.190  49.598 -50.716  1.00  0.00     0.186 HD
HETATM   21  N7  UNL     1      12.359  52.740 -50.792  1.00  0.00    -0.213 N 
HETATM   22  N8  UNL     1      12.487  52.467 -49.505  1.00  0.00    -0.267 N 
ATOM     23  H8  UNL     1      12.608  53.167 -48.773  1.00  0.00     0.190 HD
BRANCH  21  24
HETATM   24  C7  UNL     1      12.361  54.052 -51.433  1.00  0.00     0.194 C 
BRANCH  24  25
HETATM   25  C8  UNL     1      12.817  55.099 -50.492  1.00  0.00    -0.006 C 
BRANCH  25  26
HETATM   26  C9  UNL     1      12.140  56.238 -50.369  1.00  0.00    -0.004 C 
BRANCH  26  27
HETATM   27  C10 UNL     1      10.770  56.377 -50.934  1.00  0.00     0.191 C 
BRANCH  27  28
HETATM   28  O1  UNL     1       9.794  56.220 -49.963  1.00  0.00    -0.397 OA
ATOM     29  H1  UNL     1       9.748  55.324 -49.651  1.00  0.00     0.209 HD
ENDBRANCH  27  28
ENDBRANCH  26  27
ENDBRANCH  25  26
ENDBRANCH  24  25
ENDBRANCH  21  24
ENDBRANCH  11  17
BRANCH   1  30
HETATM   30  N1  UNL     1      13.880  47.799 -43.821  1.00  0.00    -0.383 N 
ATOM     31  H12 UNL     1      14.107  47.980 -42.843  1.00  0.00     0.157 HD
ATOM     32  H11 UNL     1      12.949  47.501 -44.111  1.00  0.00     0.157 HD
ENDBRANCH   1  30
TORSDOF 7
ENDMDL
MODEL 5
REMARK VINA RESULT: -7.017645125      2.681      7.225
REMARK  7 active torsions:
REMARK  status: ('A' for Active; 'I' for Inactive)
REMARK    1  A    between atoms: N1_1  and  C1_4 
REMARK    2  A    between atoms: C5_14  and  C6_15 
REMARK    3  A    between atoms: N7_19  and  C7_20 
REMARK    4  A    between atoms: C7_20  and  C8_21 
REMARK    5  A    between atoms: C8_21  and  C9_22 
REMARK    6  A    between atoms: C9_22  and  C10_23 
REMARK    7  A    between atoms: C10_23  and  O1_24 
ROOT
HETATM    1  C1  UNL     1      15.529  47.586 -44.583  1.00  0.00     0.132 A 
HETATM    2  N2  UNL     1      16.547  47.229 -43.780  1.00  0.00    -0.337 N 
ATOM      3  H2  UNL     1      16.581  47.579 -42.823  1.00  0.00     0.168 HD
HETATM    4  C2  UNL     1      17.523  46.415 -44.224  1.00  0.00     0.183 A 
HETATM    5  N3  UNL     1      17.462  45.961 -45.493  1.00  0.00    -0.336 N 
ATOM      6  H3  UNL     1      18.199  45.344 -45.835  1.00  0.00     0.168 HD
HETATM    7  C3  UNL     1      16.448  46.301 -46.331  1.00  0.00     0.140 A 
HETATM    8  N4  UNL     1      16.136  46.013 -47.599  1.00  0.00    -0.323 N 
ATOM      9  H4  UNL     1      16.692  45.411 -48.206  1.00  0.00     0.169 HD
HETATM   10  C4  UNL     1      14.993  46.619 -47.974  1.00  0.00     0.160 A 
HETATM   11  C5  UNL     1      14.074  46.827 -48.993  1.00  0.00     0.138 A 
HETATM   12  N9  UNL     1      13.131  47.633 -48.516  1.00  0.00    -0.277 N 
ATOM     13  H9  UNL     1      12.315  47.972 -49.027  1.00  0.00     0.184 HD
HETATM   14  N10 UNL     1      13.442  47.917 -47.259  1.00  0.00    -0.013 NA
HETATM   15  N11 UNL     1      14.564  47.321 -46.896  1.00  0.00    -0.214 N 
HETATM   16  C11 UNL     1      15.438  47.137 -45.891  1.00  0.00     0.144 A 
ENDROOT
BRANCH  11  17
HETATM   17  C6  UNL     1      14.172  46.239 -50.339  1.00  0.00     0.166 A 
HETATM   18  N5  UNL     1      13.834  44.991 -50.710  1.00  0.00    -0.265 N 
HETATM   19  N6  UNL     1      14.076  44.865 -52.005  1.00  0.00    -0.002 NA
ATOM     20  H5  UNL     1      13.457  44.267 -50.099  1.00  0.00     0.186 HD
HETATM   21  N7  UNL     1      14.561  45.999 -52.483  1.00  0.00    -0.213 N 
HETATM   22  N8  UNL     1      14.616  46.834 -51.460  1.00  0.00    -0.267 N 
ATOM     23  H8  UNL     1      14.950  47.796 -51.513  1.00  0.00     0.190 HD
BRANCH  21  24
HETATM   24  C7  UNL     1      14.949  46.253 -53.868  1.00  0.00     0.194 C 
BRANCH  24  25
HETATM   25  C8  UNL     1      16.242  45.604 -54.182  1.00  0.00    -0.006 C 
BRANCH  25  26
HETATM   26  C9  UNL     1      17.390  46.202 -53.874  1.00  0.00    -0.004 C 
BRANCH  26  27
HETATM   27  C10 UNL     1      17.860  47.391 -54.635  1.00  0.00     0.191 C 
BRANCH  27  28
HETATM   28  O1  UNL     1      17.966  47.127 -55.991  1.00  0.00    -0.397 OA
ATOM     29  H1  UNL     1      17.870  47.915 -56.513  1.00  0.00     0.209 HD
ENDBRANCH  27  28
ENDBRANCH  26  27
ENDBRANCH  25  26
ENDBRANCH  24  25
ENDBRANCH  21  24
ENDBRANCH  11  17
BRANCH   1  30
HETATM   30  N1  UNL     1      14.618  48.359 -44.133  1.00  0.00    -0.383 N 
ATOM     31  H12 UNL     1      13.662  48.008 -44.070  1.00  0.00     0.157 HD
ATOM     32  H11 UNL     1      14.862  49.308 -43.847  1.00  0.00     0.157 HD
ENDBRANCH   1  30
TORSDOF 7
ENDMDL
