MODEL 1
REMARK VINA RESULT: -7.587943205      0.000      0.000
REMARK  5 active torsions:
REMARK  status: ('A' for Active; 'I' for Inactive)
REMARK    1  A    between atoms: N1_2  and  N2_3 
REMARK    2  A    between atoms: N1_2  and  C6_13 
REMARK    3  A    between atoms: C2_5  and  C3_6 
REMARK    4  A    between atoms: C7_18  and  N7_19 
REMARK    5  A    between atoms: C8_22  and  N9_23 
ROOT
HETATM    1  C6  UNL     1      15.279  48.976 -49.044  1.00  0.00     0.728 A 
HETATM    2  N5  UNL     1      15.169  49.602 -50.231  1.00  0.00    -0.115 N 
ATOM      3  H5  UNL     1      14.963  50.601 -50.260  1.00  0.00     0.206 HD
HETATM    4  N6  UNL     1      15.325  48.929 -51.363  1.00  0.00    -0.114 N 
ATOM      5  H6  UNL     1      15.235  49.430 -52.248  1.00  0.00     0.206 HD
HETATM    6  C7  UNL     1      15.597  47.612 -51.393  1.00  0.00     0.749 A 
HETATM    7  N12 UNL     1      15.708  46.980 -50.210  1.00  0.00    -0.114 N 
ATOM      8  H12 UNL     1      15.913  45.981 -50.182  1.00  0.00     0.206 HD
HETATM    9  N13 UNL     1      15.550  47.661 -49.079  1.00  0.00    -0.115 N 
ATOM     10  H13 UNL     1      15.638  47.160 -48.195  1.00  0.00     0.206 HD
ENDROOT
BRANCH   6  11
HETATM   11  N7  UNL     1      15.753  46.949 -52.648  1.00  0.00     0.107 N 
HETATM   12  N8  UNL     1      16.763  47.063 -53.492  1.00  0.00    -0.096 N 
HETATM   13  C8  UNL     1      16.593  46.297 -54.583  1.00  0.00     0.706 A 
ATOM     14  H8  UNL     1      17.575  47.660 -53.334  1.00  0.00     0.207 HD
HETATM   15  N10 UNL     1      15.417  45.678 -54.400  1.00  0.00    -0.019 N 
HETATM   16  C9  UNL     1      14.896  46.067 -53.226  1.00  0.00     0.727 A 
ATOM     17  H10 UNL     1      14.988  45.017 -55.049  1.00  0.00     0.203 HD
HETATM   18  N11 UNL     1      13.775  45.698 -52.685  1.00  0.00    -0.232 N 
ATOM     19 2H11 UNL     1      13.378  45.994 -51.792  1.00  0.00     0.174 HD
ATOM     20 1H11 UNL     1      13.131  45.036 -53.119  1.00  0.00     0.174 HD
BRANCH  13  21
HETATM   21  N9  UNL     1      17.425  46.219 -55.562  1.00  0.00    -0.233 N 
ATOM     22  H92 UNL     1      18.040  46.930 -55.958  1.00  0.00     0.174 HD
ATOM     23  H91 UNL     1      17.596  45.379 -56.115  1.00  0.00     0.174 HD
ENDBRANCH  13  21
ENDBRANCH   6  11
BRANCH   1  24
HETATM   24  N1  UNL     1      15.129  49.607 -47.804  1.00  0.00    -0.126 N 
HETATM   25  C1  UNL     1      15.838  50.818 -47.422  1.00  0.00     0.197 C 
BRANCH  24  26
HETATM   26  N2  UNL     1      14.265  49.082 -46.850  1.00  0.00    -0.295 N 
HETATM   27  C2  UNL     1      13.003  49.179 -46.954  1.00  0.00     0.122 C 
ATOM     28  H2  UNL     1      14.658  48.603 -46.039  1.00  0.00     0.186 HD
BRANCH  27  29
HETATM   29  C3  UNL     1      12.157  48.593 -45.896  1.00  0.00     0.015 A 
HETATM   30  C4  UNL     1      10.909  49.002 -45.518  1.00  0.00     0.121 A 
HETATM   31  N3  UNL     1      10.499  48.182 -44.508  1.00  0.00    -0.311 N 
HETATM   32  N4  UNL     1      11.441  47.302 -44.264  1.00  0.00    -0.311 N 
ATOM     33  H3  UNL     1       9.604  48.243 -44.021  1.00  0.00     0.186 HD
HETATM   34  C5  UNL     1      12.479  47.512 -45.090  1.00  0.00     0.121 A 
ATOM     35  H4  UNL     1      11.393  46.569 -43.556  1.00  0.00     0.186 HD
ENDBRANCH  27  29
ENDBRANCH  24  26
ENDBRANCH   1  24
TORSDOF 5
ENDMDL
MODEL 2
REMARK VINA RESULT: -7.428176534      2.116      8.332
REMARK  5 active torsions:
REMARK  status: ('A' for Active; 'I' for Inactive)
REMARK    1  A    between atoms: N1_2  and  N2_3 
REMARK    2  A    between atoms: N1_2  and  C6_13 
REMARK    3  A    between atoms: C2_5  and  C3_6 
REMARK    4  A    between atoms: C7_18  and  N7_19 
REMARK    5  A    between atoms: C8_22  and  N9_23 
ROOT
HETATM    1  C6  UNL     1      15.840  46.500 -49.099  1.00  0.00     0.728 A 
HETATM    2  N5  UNL     1      14.533  46.324 -49.374  1.00  0.00    -0.115 N 
ATOM      3  H5  UNL     1      14.255  45.732 -50.157  1.00  0.00     0.206 HD
HETATM    4  N6  UNL     1      13.605  46.916 -48.633  1.00  0.00    -0.114 N 
ATOM      5  H6  UNL     1      12.623  46.764 -48.865  1.00  0.00     0.206 HD
HETATM    6  C7  UNL     1      13.906  47.708 -47.588  1.00  0.00     0.749 A 
HETATM    7  N12 UNL     1      15.210  47.888 -47.310  1.00  0.00    -0.114 N 
ATOM      8  H12 UNL     1      15.488  48.480 -46.527  1.00  0.00     0.206 HD
HETATM    9  N13 UNL     1      16.135  47.293 -48.056  1.00  0.00    -0.115 N 
ATOM     10  H13 UNL     1      17.117  47.445 -47.825  1.00  0.00     0.206 HD
ENDROOT
BRANCH   6  11
HETATM   11  N7  UNL     1      12.857  48.314 -46.833  1.00  0.00     0.107 N 
HETATM   12  N8  UNL     1      12.146  47.760 -45.867  1.00  0.00    -0.096 N 
HETATM   13  C8  UNL     1      11.236  48.612 -45.365  1.00  0.00     0.706 A 
ATOM     14  H8  UNL     1      12.272  46.802 -45.541  1.00  0.00     0.207 HD
HETATM   15  N10 UNL     1      11.396  49.749 -46.057  1.00  0.00    -0.019 N 
HETATM   16  C9  UNL     1      12.380  49.580 -46.954  1.00  0.00     0.727 A 
ATOM     17  H10 UNL     1      10.858  50.605 -45.923  1.00  0.00     0.203 HD
HETATM   18  N11 UNL     1      12.841  50.440 -47.812  1.00  0.00    -0.232 N 
ATOM     19 2H11 UNL     1      13.589  50.311 -48.494  1.00  0.00     0.174 HD
ATOM     20 1H11 UNL     1      12.482  51.391 -47.903  1.00  0.00     0.174 HD
BRANCH  13  21
HETATM   21  N9  UNL     1      10.412  48.330 -44.416  1.00  0.00    -0.233 N 
ATOM     22  H92 UNL     1      10.589  48.138 -43.430  1.00  0.00     0.174 HD
ATOM     23  H91 UNL     1       9.401  48.253 -44.527  1.00  0.00     0.174 HD
ENDBRANCH  13  21
ENDBRANCH   6  11
BRANCH   1  24
HETATM   24  N1  UNL     1      16.883  45.916 -49.827  1.00  0.00    -0.126 N 
HETATM   25  C1  UNL     1      17.944  45.125 -49.226  1.00  0.00     0.197 C 
BRANCH  24  26
HETATM   26  N2  UNL     1      16.950  46.075 -51.207  1.00  0.00    -0.295 N 
HETATM   27  C2  UNL     1      18.051  46.255 -51.814  1.00  0.00     0.122 C 
ATOM     28  H2  UNL     1      16.087  46.047 -51.749  1.00  0.00     0.186 HD
BRANCH  27  29
HETATM   29  C3  UNL     1      18.034  46.415 -53.281  1.00  0.00     0.015 A 
HETATM   30  C4  UNL     1      18.797  47.268 -54.026  1.00  0.00     0.121 A 
HETATM   31  N3  UNL     1      18.458  47.085 -55.335  1.00  0.00    -0.311 N 
HETATM   32  N4  UNL     1      17.527  46.162 -55.408  1.00  0.00    -0.311 N 
ATOM     33  H3  UNL     1      18.861  47.585 -56.128  1.00  0.00     0.186 HD
HETATM   34  C5  UNL     1      17.234  45.720 -54.175  1.00  0.00     0.121 A 
ATOM     35  H4  UNL     1      17.094  45.831 -56.270  1.00  0.00     0.186 HD
ENDBRANCH  27  29
ENDBRANCH  24  26
ENDBRANCH   1  24
TORSDOF 5
ENDMDL
MODEL 3
REMARK VINA RESULT: -7.318218648      3.667      8.390
REMARK  5 active torsions:
REMARK  status: ('A' for Active; 'I' for Inactive)
REMARK    1  A    between atoms: N1_2  and  N2_3 
REMARK    2  A    between atoms: N1_2  and  C6_13 
REMARK    3  A    between atoms: C2_5  and  C3_6 
REMARK    4  A    between atoms: C7_18  and  N7_19 
REMARK    5  A    between atoms: C8_22  and  N9_23 
ROOT
HETATM    1  C6  UNL     1      15.326  46.899 -45.867  1.00  0.00     0.728 A 
HETATM    2  N5  UNL     1      14.332  46.599 -46.725  1.00  0.00    -0.115 N 
ATOM      3  H5  UNL     1      14.493  45.921 -47.470  1.00  0.00     0.206 HD
HETATM    4  N6  UNL     1      13.145  47.179 -46.607  1.00  0.00    -0.114 N 
ATOM      5  H6  UNL     1      12.411  46.932 -47.272  1.00  0.00     0.206 HD
HETATM    6  C7  UNL     1      12.869  48.080 -45.648  1.00  0.00     0.749 A 
HETATM    7  N12 UNL     1      13.858  48.385 -44.788  1.00  0.00    -0.114 N 
ATOM      8  H12 UNL     1      13.697  49.063 -44.044  1.00  0.00     0.206 HD
HETATM    9  N13 UNL     1      15.046  47.800 -44.912  1.00  0.00    -0.115 N 
ATOM     10  H13 UNL     1      15.780  48.048 -44.248  1.00  0.00     0.206 HD
ENDROOT
BRANCH   6  11
HETATM   11  N7  UNL     1      11.569  48.667 -45.579  1.00  0.00     0.107 N 
HETATM   12  N8  UNL     1      10.540  48.247 -44.863  1.00  0.00    -0.096 N 
HETATM   13  C8  UNL     1       9.462  49.032 -45.030  1.00  0.00     0.706 A 
ATOM     14  H8  UNL     1      10.562  47.427 -44.258  1.00  0.00     0.207 HD
HETATM   15  N10 UNL     1       9.848  49.985 -45.891  1.00  0.00    -0.019 N 
HETATM   16  C9  UNL     1      11.128  49.773 -46.233  1.00  0.00     0.727 A 
ATOM     17  H10 UNL     1       9.262  50.748 -46.231  1.00  0.00     0.203 HD
HETATM   18  N11 UNL     1      11.869  50.470 -47.041  1.00  0.00    -0.232 N 
ATOM     19 2H11 UNL     1      12.842  50.308 -47.302  1.00  0.00     0.174 HD
ATOM     20 1H11 UNL     1      11.538  51.300 -47.533  1.00  0.00     0.174 HD
BRANCH  13  21
HETATM   21  N9  UNL     1       8.326  48.851 -44.450  1.00  0.00    -0.233 N 
ATOM     22  H92 UNL     1       7.744  49.507 -43.931  1.00  0.00     0.174 HD
ATOM     23  H91 UNL     1       7.819  47.966 -44.429  1.00  0.00     0.174 HD
ENDBRANCH  13  21
ENDBRANCH   6  11
BRANCH   1  24
HETATM   24  N1  UNL     1      16.606  46.337 -45.918  1.00  0.00    -0.126 N 
HETATM   25  C1  UNL     1      17.265  45.723 -44.776  1.00  0.00     0.197 C 
BRANCH  24  26
HETATM   26  N2  UNL     1      17.328  46.342 -47.106  1.00  0.00    -0.295 N 
HETATM   27  C2  UNL     1      17.975  45.327 -47.509  1.00  0.00     0.122 C 
ATOM     28  H2  UNL     1      17.339  47.191 -47.673  1.00  0.00     0.186 HD
BRANCH  27  29
HETATM   29  C3  UNL     1      18.716  45.417 -48.783  1.00  0.00     0.015 A 
HETATM   30  C4  UNL     1      20.062  45.273 -48.965  1.00  0.00     0.121 A 
HETATM   31  N3  UNL     1      20.314  45.433 -50.297  1.00  0.00    -0.311 N 
HETATM   32  N4  UNL     1      19.182  45.665 -50.919  1.00  0.00    -0.311 N 
ATOM     33  H3  UNL     1      21.233  45.380 -50.737  1.00  0.00     0.186 HD
HETATM   34  C5  UNL     1      18.173  45.665 -50.033  1.00  0.00     0.121 A 
ATOM     35  H4  UNL     1      19.084  45.821 -51.922  1.00  0.00     0.186 HD
ENDBRANCH  27  29
ENDBRANCH  24  26
ENDBRANCH   1  24
TORSDOF 5
ENDMDL
MODEL 4
REMARK VINA RESULT: -7.273224039      1.313      8.050
REMARK  5 active torsions:
REMARK  status: ('A' for Active; 'I' for Inactive)
REMARK    1  A    between atoms: N1_2  and  N2_3 
REMARK    2  A    between atoms: N1_2  and  C6_13 
REMARK    3  A    between atoms: C2_5  and  C3_6 
REMARK    4  A    between atoms: C7_18  and  N7_19 
REMARK    5  A    between atoms: C8_22  and  N9_23 
ROOT
HETATM    1  C6  UNL     1      14.975  48.879 -49.143  1.00  0.00     0.728 A 
HETATM    2  N5  UNL     1      15.050  49.568 -47.989  1.00  0.00    -0.115 N 
ATOM      3  H5  UNL     1      15.729  50.323 -47.892  1.00  0.00     0.206 HD
HETATM    4  N6  UNL     1      14.247  49.270 -46.975  1.00  0.00    -0.114 N 
ATOM      5  H6  UNL     1      14.328  49.809 -46.112  1.00  0.00     0.206 HD
HETATM    6  C7  UNL     1      13.331  48.288 -47.039  1.00  0.00     0.749 A 
HETATM    7  N12 UNL     1      13.252  47.596 -48.190  1.00  0.00    -0.114 N 
ATOM      8  H12 UNL     1      12.573  46.840 -48.286  1.00  0.00     0.206 HD
HETATM    9  N13 UNL     1      14.060  47.898 -49.201  1.00  0.00    -0.115 N 
ATOM     10  H13 UNL     1      13.980  47.359 -50.064  1.00  0.00     0.206 HD
ENDROOT
BRANCH   6  11
HETATM   11  N7  UNL     1      12.499  48.020 -45.910  1.00  0.00     0.107 N 
HETATM   12  N8  UNL     1      12.676  47.088 -44.990  1.00  0.00    -0.096 N 
HETATM   13  C8  UNL     1      11.703  47.110 -44.063  1.00  0.00     0.706 A 
ATOM     14  H8  UNL     1      13.456  46.431 -44.985  1.00  0.00     0.207 HD
HETATM   15  N10 UNL     1      10.887  48.109 -44.430  1.00  0.00    -0.019 N 
HETATM   16  C9  UNL     1      11.360  48.670 -45.553  1.00  0.00     0.727 A 
ATOM     17  H10 UNL     1      10.042  48.395 -43.935  1.00  0.00     0.203 HD
HETATM   18  N11 UNL     1      10.863  49.664 -46.225  1.00  0.00    -0.232 N 
ATOM     19 2H11 UNL     1      11.222  50.091 -47.080  1.00  0.00     0.174 HD
ATOM     20 1H11 UNL     1      10.008  50.152 -45.958  1.00  0.00     0.174 HD
BRANCH  13  21
HETATM   21  N9  UNL     1      11.632  46.310 -43.056  1.00  0.00    -0.233 N 
ATOM     22  H92 UNL     1      12.371  45.815 -42.559  1.00  0.00     0.174 HD
ATOM     23  H91 UNL     1      10.766  46.043 -42.587  1.00  0.00     0.174 HD
ENDBRANCH  13  21
ENDBRANCH   6  11
BRANCH   1  24
HETATM   24  N1  UNL     1      15.781  49.125 -50.261  1.00  0.00    -0.126 N 
HETATM   25  C1  UNL     1      16.890  50.065 -50.266  1.00  0.00     0.197 C 
BRANCH  24  26
HETATM   26  N2  UNL     1      15.546  48.456 -51.456  1.00  0.00    -0.295 N 
HETATM   27  C2  UNL     1      16.392  47.655 -51.961  1.00  0.00     0.122 C 
ATOM     28  H2  UNL     1      14.663  48.613 -51.944  1.00  0.00     0.186 HD
BRANCH  27  29
HETATM   29  C3  UNL     1      16.062  46.985 -53.234  1.00  0.00     0.015 A 
HETATM   30  C4  UNL     1      16.609  47.233 -54.461  1.00  0.00     0.121 A 
HETATM   31  N3  UNL     1      16.015  46.387 -55.352  1.00  0.00    -0.311 N 
HETATM   32  N4  UNL     1      15.140  45.644 -54.716  1.00  0.00    -0.311 N 
ATOM     33  H3  UNL     1      16.219  46.339 -56.351  1.00  0.00     0.186 HD
HETATM   34  C5  UNL     1      15.133  45.973 -53.414  1.00  0.00     0.121 A 
ATOM     35  H4  UNL     1      14.556  44.926 -55.144  1.00  0.00     0.186 HD
ENDBRANCH  27  29
ENDBRANCH  24  26
ENDBRANCH   1  24
TORSDOF 5
ENDMDL
MODEL 5
REMARK VINA RESULT: -7.258228236      4.104      8.126
REMARK  5 active torsions:
REMARK  status: ('A' for Active; 'I' for Inactive)
REMARK    1  A    between atoms: N1_2  and  N2_3 
REMARK    2  A    between atoms: N1_2  and  C6_13 
REMARK    3  A    between atoms: C2_5  and  C3_6 
REMARK    4  A    between atoms: C7_18  and  N7_19 
REMARK    5  A    between atoms: C8_22  and  N9_23 
ROOT
HETATM    1  C6  UNL     1      15.437  48.227 -47.071  1.00  0.00     0.728 A 
HETATM    2  N5  UNL     1      14.437  47.455 -47.536  1.00  0.00    -0.115 N 
ATOM      3  H5  UNL     1      14.643  46.694 -48.184  1.00  0.00     0.206 HD
HETATM    4  N6  UNL     1      13.185  47.677 -47.158  1.00  0.00    -0.114 N 
ATOM      5  H6  UNL     1      12.448  47.076 -47.528  1.00  0.00     0.206 HD
HETATM    6  C7  UNL     1      12.848  48.663 -46.308  1.00  0.00     0.749 A 
HETATM    7  N12 UNL     1      13.842  49.438 -45.840  1.00  0.00    -0.114 N 
ATOM      8  H12 UNL     1      13.636  50.199 -45.193  1.00  0.00     0.206 HD
HETATM    9  N13 UNL     1      15.095  49.211 -46.223  1.00  0.00    -0.115 N 
ATOM     10  H13 UNL     1      15.832  49.812 -45.855  1.00  0.00     0.206 HD
ENDROOT
BRANCH   6  11
HETATM   11  N7  UNL     1      11.480  48.847 -45.943  1.00  0.00     0.107 N 
HETATM   12  N8  UNL     1      10.617  49.693 -46.478  1.00  0.00    -0.096 N 
HETATM   13  C8  UNL     1       9.408  49.608 -45.897  1.00  0.00     0.706 A 
ATOM     14  H8  UNL     1      10.841  50.332 -47.240  1.00  0.00     0.207 HD
HETATM   15  N10 UNL     1       9.533  48.660 -44.956  1.00  0.00    -0.019 N 
HETATM   16  C9  UNL     1      10.789  48.190 -44.974  1.00  0.00     0.727 A 
ATOM     17  H10 UNL     1       8.792  48.348 -44.328  1.00  0.00     0.203 HD
HETATM   18  N11 UNL     1      11.312  47.268 -44.223  1.00  0.00    -0.232 N 
ATOM     19 2H11 UNL     1      12.268  46.910 -44.236  1.00  0.00     0.174 HD
ATOM     20 1H11 UNL     1      10.794  46.775 -43.495  1.00  0.00     0.174 HD
BRANCH  13  21
HETATM   21  N9  UNL     1       8.385  50.318 -46.225  1.00  0.00    -0.233 N 
ATOM     22  H92 UNL     1       7.551  50.062 -46.753  1.00  0.00     0.174 HD
ATOM     23  H91 UNL     1       8.260  51.303 -45.987  1.00  0.00     0.174 HD
ENDBRANCH  13  21
ENDBRANCH   6  11
BRANCH   1  24
HETATM   24  N1  UNL     1      16.784  48.064 -47.417  1.00  0.00    -0.126 N 
HETATM   25  C1  UNL     1      17.298  46.917 -48.148  1.00  0.00     0.197 C 
BRANCH  24  26
HETATM   26  N2  UNL     1      17.720  49.028 -47.061  1.00  0.00    -0.295 N 
HETATM   27  C2  UNL     1      18.967  48.787 -47.049  1.00  0.00     0.122 C 
ATOM     28  H2  UNL     1      17.395  49.959 -46.802  1.00  0.00     0.186 HD
BRANCH  27  29
HETATM   29  C3  UNL     1      19.894  49.868 -46.659  1.00  0.00     0.015 A 
HETATM   30  C4  UNL     1      20.714  49.896 -45.567  1.00  0.00     0.121 A 
HETATM   31  N3  UNL     1      21.395  51.078 -45.596  1.00  0.00    -0.311 N 
HETATM   32  N4  UNL     1      21.021  51.758 -46.655  1.00  0.00    -0.311 N 
ATOM     33  H3  UNL     1      22.083  51.384 -44.908  1.00  0.00     0.186 HD
HETATM   34  C5  UNL     1      20.102  51.058 -47.339  1.00  0.00     0.121 A 
ATOM     35  H4  UNL     1      21.374  52.678 -46.918  1.00  0.00     0.186 HD
ENDBRANCH  27  29
ENDBRANCH  24  26
ENDBRANCH   1  24
TORSDOF 5
ENDMDL
