MODEL 1
REMARK VINA RESULT: -7.831816260      0.000      0.000
REMARK  8 active torsions:
REMARK  status: ('A' for Active; 'I' for Inactive)
REMARK    1  A    between atoms: C2_2  and  C3_3 
REMARK    2  A    between atoms: C3_3  and  N1_4 
REMARK    3  A    between atoms: N2_7  and  N3_9 
REMARK    4  A    between atoms: N3_9  and  C4_11 
REMARK    5  A    between atoms: C5_16  and  C6_17 
REMARK    6  A    between atoms: C6_17  and  O1_18 
REMARK    7  A    between atoms: C6_17  and  C7_20 
REMARK    8  A    between atoms: C8_21  and  O2_22 
ROOT
HETATM    1  C4  UNL     1      13.632  48.176 -48.716  1.00  0.00     0.726 A 
HETATM    2  N4  UNL     1      13.403  46.872 -48.764  1.00  0.00    -0.128 N 
ATOM      3  H4  UNL     1      12.944  46.429 -47.967  1.00  0.00     0.205 HD
HETATM    4  N5  UNL     1      13.741  46.118 -49.792  1.00  0.00    -0.268 N 
ATOM      5  H5  UNL     1      13.535  45.119 -49.766  1.00  0.00     0.189 HD
HETATM    6  C5  UNL     1      14.348  46.636 -50.874  1.00  0.00     0.172 A 
HETATM    7  N8  UNL     1      14.582  47.981 -50.818  1.00  0.00    -0.268 N 
ATOM      8  H8  UNL     1      15.042  48.426 -51.611  1.00  0.00     0.189 HD
HETATM    9  N9  UNL     1      14.244  48.726 -49.795  1.00  0.00    -0.128 N 
ATOM     10  H9  UNL     1      14.442  49.726 -49.810  1.00  0.00     0.205 HD
ENDROOT
BRANCH   6  11
HETATM   11  C6  UNL     1      14.741  45.867 -52.041  1.00  0.00     0.144 C 
BRANCH  11  12
HETATM   12  O1  UNL     1      13.773  45.097 -52.450  1.00  0.00    -0.355 OA
ATOM     13  H1  UNL     1      12.994  45.600 -52.654  1.00  0.00     0.218 HD
ENDBRANCH  11  12
BRANCH  11  14
HETATM   14  C7  UNL     1      15.992  45.878 -52.723  1.00  0.00     0.127 A 
HETATM   15  C8  UNL     1      16.115  45.622 -54.094  1.00  0.00     0.174 A 
HETATM   16  N6  UNL     1      17.394  45.727 -54.470  1.00  0.00    -0.287 N 
HETATM   17  C9  UNL     1      18.091  46.047 -53.361  1.00  0.00     0.328 A 
ATOM     18  H6  UNL     1      17.769  45.592 -55.410  1.00  0.00     0.172 HD
HETATM   19  O3  UNL     1      19.335  46.228 -53.331  1.00  0.00    -0.246 OA
HETATM   20  N7  UNL     1      17.214  46.134 -52.312  1.00  0.00    -0.298 N 
HETATM   21  C10 UNL     1      17.692  46.495 -51.006  1.00  0.00     0.161 C 
BRANCH  15  22
HETATM   22  O2  UNL     1      15.087  45.308 -54.943  1.00  0.00    -0.344 OA
ATOM     23  H2  UNL     1      14.461  44.604 -54.818  1.00  0.00     0.219 HD
ENDBRANCH  15  22
ENDBRANCH  11  14
ENDBRANCH   6  11
BRANCH   1  24
HETATM   24  N3  UNL     1      13.279  48.850 -47.689  1.00  0.00    -0.129 N 
ATOM     25  H3  UNL     1      13.504  49.841 -47.608  1.00  0.00     0.205 HD
BRANCH  24  26
HETATM   26  N2  UNL     1      12.573  48.185 -46.677  1.00  0.00    -0.290 N 
HETATM   27  C2  UNL     1      11.658  48.815 -46.054  1.00  0.00     0.037 C 
HETATM   28  C1  UNL     1      11.316  50.207 -46.356  1.00  0.00     0.071 C 
ATOM     29  H2  UNL     1      12.788  47.215 -46.443  1.00  0.00     0.187 HD
BRANCH  27  30
HETATM   30  C3  UNL     1      10.930  48.089 -44.991  1.00  0.00     0.106 C 
BRANCH  30  31
HETATM   31  N1  UNL     1      11.125  46.836 -44.824  1.00  0.00    -0.406 N 
ATOM     32  H12 UNL     1      11.959  46.407 -45.226  1.00  0.00     0.155 HD
ATOM     33  H11 UNL     1      10.452  46.281 -44.297  1.00  0.00     0.155 HD
ENDBRANCH  30  31
ENDBRANCH  27  30
ENDBRANCH  24  26
ENDBRANCH   1  24
TORSDOF 8
ENDMDL
MODEL 2
REMARK VINA RESULT: -7.819897293      1.387      2.070
REMARK  8 active torsions:
REMARK  status: ('A' for Active; 'I' for Inactive)
REMARK    1  A    between atoms: C2_2  and  C3_3 
REMARK    2  A    between atoms: C3_3  and  N1_4 
REMARK    3  A    between atoms: N2_7  and  N3_9 
REMARK    4  A    between atoms: N3_9  and  C4_11 
REMARK    5  A    between atoms: C5_16  and  C6_17 
REMARK    6  A    between atoms: C6_17  and  O1_18 
REMARK    7  A    between atoms: C6_17  and  C7_20 
REMARK    8  A    between atoms: C8_21  and  O2_22 
ROOT
HETATM    1  C4  UNL     1      13.935  48.291 -48.134  1.00  0.00     0.726 A 
HETATM    2  N4  UNL     1      15.078  48.719 -48.650  1.00  0.00    -0.128 N 
ATOM      3  H4  UNL     1      15.450  49.614 -48.333  1.00  0.00     0.205 HD
HETATM    4  N5  UNL     1      15.758  48.042 -49.555  1.00  0.00    -0.268 N 
ATOM      5  H5  UNL     1      16.632  48.427 -49.912  1.00  0.00     0.189 HD
HETATM    6  C5  UNL     1      15.325  46.855 -50.018  1.00  0.00     0.172 A 
HETATM    7  N8  UNL     1      14.146  46.422 -49.482  1.00  0.00    -0.268 N 
ATOM      8  H8  UNL     1      13.770  45.528 -49.798  1.00  0.00     0.189 HD
HETATM    9  N9  UNL     1      13.474  47.097 -48.583  1.00  0.00    -0.128 N 
ATOM     10  H9  UNL     1      12.599  46.722 -48.217  1.00  0.00     0.205 HD
ENDROOT
BRANCH   6  11
HETATM   11  C6  UNL     1      16.025  46.056 -51.007  1.00  0.00     0.144 C 
BRANCH  11  12
HETATM   12  O1  UNL     1      16.927  45.297 -50.452  1.00  0.00    -0.355 OA
ATOM     13  H1  UNL     1      17.429  44.824 -51.104  1.00  0.00     0.218 HD
ENDBRANCH  11  12
BRANCH  11  14
HETATM   14  C7  UNL     1      15.829  46.031 -52.418  1.00  0.00     0.127 A 
HETATM   15  C8  UNL     1      14.574  45.847 -53.010  1.00  0.00     0.174 A 
HETATM   16  N6  UNL     1      14.679  45.898 -54.342  1.00  0.00    -0.287 N 
HETATM   17  C9  UNL     1      15.983  46.112 -54.611  1.00  0.00     0.328 A 
ATOM     18  H6  UNL     1      13.924  45.795 -55.020  1.00  0.00     0.172 HD
HETATM   19  O3  UNL     1      16.461  46.216 -55.769  1.00  0.00    -0.246 OA
HETATM   20  N7  UNL     1      16.661  46.191 -53.423  1.00  0.00    -0.298 N 
HETATM   21  C10 UNL     1      18.075  46.447 -53.420  1.00  0.00     0.161 C 
BRANCH  15  22
HETATM   22  O2  UNL     1      13.397  45.645 -52.338  1.00  0.00    -0.344 OA
ATOM     23  H2  UNL     1      12.749  44.982 -52.546  1.00  0.00     0.219 HD
ENDBRANCH  15  22
ENDBRANCH  11  14
ENDBRANCH   6  11
BRANCH   1  24
HETATM   24  N3  UNL     1      13.326  48.996 -47.259  1.00  0.00    -0.129 N 
ATOM     25  H3  UNL     1      13.551  49.983 -47.129  1.00  0.00     0.205 HD
BRANCH  24  26
HETATM   26  N2  UNL     1      12.339  48.372 -46.483  1.00  0.00    -0.290 N 
HETATM   27  C2  UNL     1      11.373  49.076 -46.042  1.00  0.00     0.037 C 
HETATM   28  C1  UNL     1      11.255  50.510 -46.315  1.00  0.00     0.071 C 
ATOM     29  H2  UNL     1      12.393  47.375 -46.276  1.00  0.00     0.187 HD
BRANCH  27  30
HETATM   30  C3  UNL     1      10.347  48.392 -45.226  1.00  0.00     0.106 C 
BRANCH  30  31
HETATM   31  N1  UNL     1       9.845  47.285 -45.626  1.00  0.00    -0.406 N 
ATOM     32  H12 UNL     1       9.055  47.305 -46.271  1.00  0.00     0.155 HD
ATOM     33  H11 UNL     1      10.236  46.402 -45.301  1.00  0.00     0.155 HD
ENDBRANCH  30  31
ENDBRANCH  27  30
ENDBRANCH  24  26
ENDBRANCH   1  24
TORSDOF 8
ENDMDL
MODEL 3
REMARK VINA RESULT: -7.633318759      1.627      2.345
REMARK  8 active torsions:
REMARK  status: ('A' for Active; 'I' for Inactive)
REMARK    1  A    between atoms: C2_2  and  C3_3 
REMARK    2  A    between atoms: C3_3  and  N1_4 
REMARK    3  A    between atoms: N2_7  and  N3_9 
REMARK    4  A    between atoms: N3_9  and  C4_11 
REMARK    5  A    between atoms: C5_16  and  C6_17 
REMARK    6  A    between atoms: C6_17  and  O1_18 
REMARK    7  A    between atoms: C6_17  and  C7_20 
REMARK    8  A    between atoms: C8_21  and  O2_22 
ROOT
HETATM    1  C4  UNL     1      14.010  47.980 -48.050  1.00  0.00     0.726 A 
HETATM    2  N4  UNL     1      15.104  48.511 -48.576  1.00  0.00    -0.128 N 
ATOM      3  H4  UNL     1      15.419  49.418 -48.230  1.00  0.00     0.205 HD
HETATM    4  N5  UNL     1      15.806  47.924 -49.525  1.00  0.00    -0.268 N 
ATOM      5  H5  UNL     1      16.640  48.386 -49.886  1.00  0.00     0.189 HD
HETATM    6  C5  UNL     1      15.448  46.728 -50.027  1.00  0.00     0.172 A 
HETATM    7  N8  UNL     1      14.319  46.187 -49.481  1.00  0.00    -0.268 N 
ATOM      8  H8  UNL     1      14.001  45.282 -49.826  1.00  0.00     0.189 HD
HETATM    9  N9  UNL     1      13.625  46.774 -48.538  1.00  0.00    -0.128 N 
ATOM     10  H9  UNL     1      12.791  46.320 -48.167  1.00  0.00     0.205 HD
ENDROOT
BRANCH   6  11
HETATM   11  C6  UNL     1      16.178  46.024 -51.066  1.00  0.00     0.144 C 
BRANCH  11  12
HETATM   12  O1  UNL     1      17.166  45.337 -50.570  1.00  0.00    -0.355 OA
ATOM     13  H1  UNL     1      17.576  45.794 -49.846  1.00  0.00     0.218 HD
ENDBRANCH  11  12
BRANCH  11  14
HETATM   14  C7  UNL     1      15.927  46.020 -52.469  1.00  0.00     0.127 A 
HETATM   15  C8  UNL     1      14.654  45.813 -53.015  1.00  0.00     0.174 A 
HETATM   16  N6  UNL     1      14.707  45.891 -54.349  1.00  0.00    -0.287 N 
HETATM   17  C9  UNL     1      15.993  46.144 -54.665  1.00  0.00     0.328 A 
ATOM     18  H6  UNL     1      13.928  45.780 -54.999  1.00  0.00     0.172 HD
HETATM   19  O3  UNL     1      16.422  46.283 -55.838  1.00  0.00    -0.246 OA
HETATM   20  N7  UNL     1      16.714  46.220 -53.502  1.00  0.00    -0.298 N 
HETATM   21  C10 UNL     1      18.120  46.514 -53.549  1.00  0.00     0.161 C 
BRANCH  15  22
HETATM   22  O2  UNL     1      13.510  45.566 -52.303  1.00  0.00    -0.344 OA
ATOM     23  H2  UNL     1      12.972  44.786 -52.373  1.00  0.00     0.219 HD
ENDBRANCH  15  22
ENDBRANCH  11  14
ENDBRANCH   6  11
BRANCH   1  24
HETATM   24  N3  UNL     1      13.376  48.601 -47.131  1.00  0.00    -0.129 N 
ATOM     25  H3  UNL     1      13.538  49.594 -46.959  1.00  0.00     0.205 HD
BRANCH  24  26
HETATM   26  N2  UNL     1      12.449  47.878 -46.367  1.00  0.00    -0.290 N 
HETATM   27  C2  UNL     1      12.775  47.521 -45.189  1.00  0.00     0.037 C 
HETATM   28  C1  UNL     1      14.080  47.838 -44.603  1.00  0.00     0.071 C 
ATOM     29  H2  UNL     1      11.532  47.643 -46.747  1.00  0.00     0.187 HD
BRANCH  27  30
HETATM   30  C3  UNL     1      11.779  46.759 -44.405  1.00  0.00     0.106 C 
BRANCH  30  31
HETATM   31  N1  UNL     1      11.827  46.773 -43.126  1.00  0.00    -0.406 N 
ATOM     32  H12 UNL     1      12.031  47.649 -42.648  1.00  0.00     0.155 HD
ATOM     33  H11 UNL     1      11.660  45.914 -42.602  1.00  0.00     0.155 HD
ENDBRANCH  30  31
ENDBRANCH  27  30
ENDBRANCH  24  26
ENDBRANCH   1  24
TORSDOF 8
ENDMDL
MODEL 4
REMARK VINA RESULT: -7.514497956      2.010      2.217
REMARK  8 active torsions:
REMARK  status: ('A' for Active; 'I' for Inactive)
REMARK    1  A    between atoms: C2_2  and  C3_3 
REMARK    2  A    between atoms: C3_3  and  N1_4 
REMARK    3  A    between atoms: N2_7  and  N3_9 
REMARK    4  A    between atoms: N3_9  and  C4_11 
REMARK    5  A    between atoms: C5_16  and  C6_17 
REMARK    6  A    between atoms: C6_17  and  O1_18 
REMARK    7  A    between atoms: C6_17  and  C7_20 
REMARK    8  A    between atoms: C8_21  and  O2_22 
ROOT
HETATM    1  C4  UNL     1      14.704  46.409 -48.107  1.00  0.00     0.726 A 
HETATM    2  N4  UNL     1      15.815  46.381 -48.830  1.00  0.00    -0.128 N 
ATOM      3  H4  UNL     1      16.712  46.386 -48.343  1.00  0.00     0.205 HD
HETATM    4  N5  UNL     1      15.816  46.348 -50.148  1.00  0.00    -0.268 N 
ATOM      5  H5  UNL     1      16.707  46.327 -50.644  1.00  0.00     0.189 HD
HETATM    6  C5  UNL     1      14.671  46.339 -50.852  1.00  0.00     0.172 A 
HETATM    7  N8  UNL     1      13.530  46.368 -50.102  1.00  0.00    -0.268 N 
ATOM      8  H8  UNL     1      12.632  46.365 -50.584  1.00  0.00     0.189 HD
HETATM    9  N9  UNL     1      13.533  46.401 -48.792  1.00  0.00    -0.128 N 
ATOM     10  H9  UNL     1      12.649  46.420 -48.284  1.00  0.00     0.205 HD
ENDROOT
BRANCH   6  11
HETATM   11  C6  UNL     1      14.600  46.297 -52.302  1.00  0.00     0.144 C 
BRANCH  11  12
HETATM   12  O1  UNL     1      13.516  45.700 -52.707  1.00  0.00    -0.355 OA
ATOM     13  H1  UNL     1      12.740  46.195 -52.472  1.00  0.00     0.218 HD
ENDBRANCH  11  12
BRANCH  11  14
HETATM   14  C7  UNL     1      15.539  46.808 -53.244  1.00  0.00     0.127 A 
HETATM   15  C8  UNL     1      15.855  46.150 -54.439  1.00  0.00     0.174 A 
HETATM   16  N6  UNL     1      16.739  46.868 -55.141  1.00  0.00    -0.287 N 
HETATM   17  C9  UNL     1      16.993  47.974 -54.414  1.00  0.00     0.328 A 
ATOM     18  H6  UNL     1      17.141  46.626 -56.047  1.00  0.00     0.172 HD
HETATM   19  O3  UNL     1      17.784  48.887 -54.762  1.00  0.00    -0.246 OA
HETATM   20  N7  UNL     1      16.248  47.914 -53.265  1.00  0.00    -0.298 N 
HETATM   21  C10 UNL     1      16.306  48.992 -52.316  1.00  0.00     0.161 C 
BRANCH  15  22
HETATM   22  O2  UNL     1      15.343  44.947 -54.848  1.00  0.00    -0.344 OA
ATOM     23  H2  UNL     1      14.553  44.828 -55.362  1.00  0.00     0.219 HD
ENDBRANCH  15  22
ENDBRANCH  11  14
ENDBRANCH   6  11
BRANCH   1  24
HETATM   24  N3  UNL     1      14.772  46.440 -46.831  1.00  0.00    -0.129 N 
ATOM     25  H3  UNL     1      15.673  46.464 -46.353  1.00  0.00     0.205 HD
BRANCH  24  26
HETATM   26  N2  UNL     1      13.571  46.440 -46.109  1.00  0.00    -0.290 N 
HETATM   27  C2  UNL     1      13.516  47.089 -45.014  1.00  0.00     0.037 C 
HETATM   28  C1  UNL     1      14.660  47.836 -44.484  1.00  0.00     0.071 C 
ATOM     29  H2  UNL     1      12.756  45.930 -46.452  1.00  0.00     0.187 HD
BRANCH  27  30
HETATM   30  C3  UNL     1      12.237  47.072 -44.273  1.00  0.00     0.106 C 
BRANCH  30  31
HETATM   31  N1  UNL     1      11.164  46.691 -44.857  1.00  0.00    -0.406 N 
ATOM     32  H12 UNL     1      10.309  46.597 -44.310  1.00  0.00     0.155 HD
ATOM     33  H11 UNL     1      11.174  46.486 -45.856  1.00  0.00     0.155 HD
ENDBRANCH  30  31
ENDBRANCH  27  30
ENDBRANCH  24  26
ENDBRANCH   1  24
TORSDOF 8
ENDMDL
MODEL 5
REMARK VINA RESULT: -7.507045142      1.594      2.155
REMARK  8 active torsions:
REMARK  status: ('A' for Active; 'I' for Inactive)
REMARK    1  A    between atoms: C2_2  and  C3_3 
REMARK    2  A    between atoms: C3_3  and  N1_4 
REMARK    3  A    between atoms: N2_7  and  N3_9 
REMARK    4  A    between atoms: N3_9  and  C4_11 
REMARK    5  A    between atoms: C5_16  and  C6_17 
REMARK    6  A    between atoms: C6_17  and  O1_18 
REMARK    7  A    between atoms: C6_17  and  C7_20 
REMARK    8  A    between atoms: C8_21  and  O2_22 
ROOT
HETATM    1  C4  UNL     1      13.686  46.850 -49.727  1.00  0.00     0.726 A 
HETATM    2  N4  UNL     1      14.387  47.770 -50.374  1.00  0.00    -0.128 N 
ATOM      3  H4  UNL     1      14.478  48.696 -49.954  1.00  0.00     0.205 HD
HETATM    4  N5  UNL     1      14.972  47.547 -51.534  1.00  0.00    -0.268 N 
ATOM      5  H5  UNL     1      15.498  48.299 -51.979  1.00  0.00     0.189 HD
HETATM    6  C5  UNL     1      14.891  46.351 -52.144  1.00  0.00     0.172 A 
HETATM    7  N8  UNL     1      14.167  45.408 -51.473  1.00  0.00    -0.268 N 
ATOM      8  H8  UNL     1      14.072  44.483 -51.890  1.00  0.00     0.189 HD
HETATM    9  N9  UNL     1      13.588  45.633 -50.320  1.00  0.00    -0.128 N 
ATOM     10  H9  UNL     1      13.061  44.889 -49.864  1.00  0.00     0.205 HD
ENDROOT
BRANCH   6  11
HETATM   11  C6  UNL     1      15.515  46.036 -53.417  1.00  0.00     0.144 C 
BRANCH  11  12
HETATM   12  O1  UNL     1      14.699  45.391 -54.199  1.00  0.00    -0.355 OA
ATOM     13  H1  UNL     1      15.149  44.710 -54.684  1.00  0.00     0.218 HD
ENDBRANCH  11  12
BRANCH  11  14
HETATM   14  C7  UNL     1      16.837  46.345 -53.849  1.00  0.00     0.127 A 
HETATM   15  C8  UNL     1      17.145  46.699 -55.169  1.00  0.00     0.174 A 
HETATM   16  N6  UNL     1      18.451  46.963 -55.284  1.00  0.00    -0.287 N 
HETATM   17  C9  UNL     1      18.983  46.785 -54.058  1.00  0.00     0.328 A 
ATOM     18  H6  UNL     1      18.945  47.244 -56.131  1.00  0.00     0.172 HD
HETATM   19  O3  UNL     1      20.199  46.944 -53.782  1.00  0.00    -0.246 OA
HETATM   20  N7  UNL     1      17.980  46.411 -53.203  1.00  0.00    -0.298 N 
HETATM   21  C10 UNL     1      18.270  46.185 -51.814  1.00  0.00     0.161 C 
BRANCH  15  22
HETATM   22  O2  UNL     1      16.251  46.769 -56.205  1.00  0.00    -0.344 OA
ATOM     23  H2  UNL     1      15.579  46.126 -56.401  1.00  0.00     0.219 HD
ENDBRANCH  15  22
ENDBRANCH  11  14
ENDBRANCH   6  11
BRANCH   1  24
HETATM   24  N3  UNL     1      13.144  47.131 -48.605  1.00  0.00    -0.129 N 
ATOM     25  H3  UNL     1      12.185  47.475 -48.555  1.00  0.00     0.205 HD
BRANCH  24  26
HETATM   26  N2  UNL     1      13.908  46.952 -47.443  1.00  0.00    -0.290 N 
HETATM   27  C2  UNL     1      13.699  47.721 -46.450  1.00  0.00     0.037 C 
HETATM   28  C1  UNL     1      12.692  48.785 -46.476  1.00  0.00     0.071 C 
ATOM     29  H2  UNL     1      14.616  46.219 -47.393  1.00  0.00     0.187 HD
BRANCH  27  30
HETATM   30  C3  UNL     1      14.519  47.510 -45.237  1.00  0.00     0.106 C 
BRANCH  30  31
HETATM   31  N1  UNL     1      14.284  48.191 -44.180  1.00  0.00    -0.406 N 
ATOM     32  H12 UNL     1      13.979  49.160 -44.273  1.00  0.00     0.155 HD
ATOM     33  H11 UNL     1      14.400  47.763 -43.262  1.00  0.00     0.155 HD
ENDBRANCH  30  31
ENDBRANCH  27  30
ENDBRANCH  24  26
ENDBRANCH   1  24
TORSDOF 8
ENDMDL
