MODEL 1
REMARK VINA RESULT: -8.010744112      0.000      0.000
REMARK  8 active torsions:
REMARK  status: ('A' for Active; 'I' for Inactive)
REMARK    1  A    between atoms: O1_2  and  N1_3 
REMARK       I    between atoms: N1_3  and  C2_5 
REMARK       I    between atoms: C2_5  and  N2_7 
REMARK    2  A    between atoms: N3_9  and  C3_11 
REMARK    3  A    between atoms: C4_14  and  N5_15 
REMARK    4  A    between atoms: N5_15  and  O3_17 
REMARK    5  A    between atoms: O3_17  and  C5_18 
REMARK    6  A    between atoms: C5_18  and  N6_19 
REMARK    7  A    between atoms: C5_18  and  N7_23 
REMARK    8  A    between atoms: C7_31  and  N9_32 
ROOT
HETATM    1  C3  UNL     1      15.862  47.106 -54.801  1.00  0.00     0.174 A 
HETATM    2  N4  UNL     1      14.796  46.590 -54.179  1.00  0.00    -0.171 N 
ATOM      3  H4  UNL     1      13.893  46.628 -54.650  1.00  0.00     0.186 HD
HETATM    4  C4  UNL     1      14.859  46.026 -52.966  1.00  0.00     0.706 A 
HETATM    5  N8  UNL     1      16.057  45.976 -52.346  1.00  0.00    -0.152 N 
ATOM      6  H8  UNL     1      16.129  45.552 -51.421  1.00  0.00     0.187 HD
HETATM    7  C6  UNL     1      17.153  46.479 -52.929  1.00  0.00     0.296 A 
HETATM    8  O4  UNL     1      18.278  46.432 -52.345  1.00  0.00    -0.265 OA
HETATM    9  C7  UNL     1      17.100  47.066 -54.182  1.00  0.00     0.216 A 
ENDROOT
BRANCH   4  10
HETATM   10  N5  UNL     1      13.817  45.535 -52.377  1.00  0.00    -0.092 N 
ATOM     11  H5  UNL     1      13.698  44.523 -52.416  1.00  0.00     0.213 HD
BRANCH  10  12
HETATM   12  O3  UNL     1      12.871  46.239 -51.714  1.00  0.00    -0.205 OA
BRANCH  12  13
HETATM   13  C5  UNL     1      12.998  46.657 -50.367  1.00  0.00     0.543 C 
BRANCH  13  14
HETATM   14  N6  UNL     1      13.727  47.928 -50.401  1.00  0.00    -0.025 N 
ATOM     15  H63 UNL     1      14.502  47.969 -49.738  1.00  0.00     0.279 HD
ATOM     16  H62 UNL     1      14.280  48.056 -51.248  1.00  0.00     0.279 HD
ATOM     17  H61 UNL     1      13.031  48.659 -50.256  1.00  0.00     0.279 HD
ENDBRANCH  13  14
BRANCH  13  18
HETATM   18  N7  UNL     1      13.789  45.749 -49.582  1.00  0.00    -0.025 N 
ATOM     19  H73 UNL     1      14.749  45.710 -49.923  1.00  0.00     0.279 HD
ATOM     20  H72 UNL     1      13.961  46.124 -48.649  1.00  0.00     0.279 HD
ATOM     21  H71 UNL     1      13.378  44.816 -49.533  1.00  0.00     0.279 HD
ENDBRANCH  13  18
ENDBRANCH  12  13
ENDBRANCH  10  12
ENDBRANCH   4  10
BRANCH   1  22
HETATM   22  N3  UNL     1      15.838  47.713 -56.087  1.00  0.00    -0.279 N 
HETATM   23  N2  UNL     1      15.699  48.961 -56.244  1.00  0.00    -0.248 N 
HETATM   24  C2  UNL     1      15.669  49.612 -57.483  1.00  0.00     0.358 C 
ATOM     25  H2  UNL     1      15.600  49.534 -55.406  1.00  0.00     0.192 HD
HETATM   26  N1  UNL     1      14.964  49.169 -58.618  1.00  0.00    -0.216 N 
HETATM   27  O2  UNL     1      16.344  50.692 -57.565  1.00  0.00    -0.243 OA
ATOM     28  H1  UNL     1      14.419  48.308 -58.573  1.00  0.00     0.199 HD
ATOM     29  H3  UNL     1      15.937  47.121 -56.912  1.00  0.00     0.189 HD
BRANCH  26  30
HETATM   30  O1  UNL     1      15.007  49.872 -59.756  1.00  0.00    -0.281 OA
HETATM   31  C1  UNL     1      16.066  49.519 -60.570  1.00  0.00     0.237 C 
ENDBRANCH  26  30
ENDBRANCH   1  22
BRANCH   9  32
HETATM   32  N9  UNL     1      18.250  47.594 -54.795  1.00  0.00    -0.106 N 
HETATM   33  O5  UNL     1      18.583  47.193 -55.913  1.00  0.00    -0.531 OA
HETATM   34  O6  UNL     1      18.998  48.542 -54.169  1.00  0.00    -0.531 OA
ENDBRANCH   9  32
TORSDOF 8
ENDMDL
MODEL 2
REMARK VINA RESULT: -7.639253081      4.927      8.140
REMARK  8 active torsions:
REMARK  status: ('A' for Active; 'I' for Inactive)
REMARK    1  A    between atoms: O1_2  and  N1_3 
REMARK       I    between atoms: N1_3  and  C2_5 
REMARK       I    between atoms: C2_5  and  N2_7 
REMARK    2  A    between atoms: N3_9  and  C3_11 
REMARK    3  A    between atoms: C4_14  and  N5_15 
REMARK    4  A    between atoms: N5_15  and  O3_17 
REMARK    5  A    between atoms: O3_17  and  C5_18 
REMARK    6  A    between atoms: C5_18  and  N6_19 
REMARK    7  A    between atoms: C5_18  and  N7_23 
REMARK    8  A    between atoms: C7_31  and  N9_32 
ROOT
HETATM    1  C3  UNL     1      14.203  46.989 -46.837  1.00  0.00     0.174 A 
HETATM    2  N4  UNL     1      13.002  47.103 -46.258  1.00  0.00    -0.171 N 
ATOM      3  H4  UNL     1      12.171  47.022 -46.843  1.00  0.00     0.186 HD
HETATM    4  C4  UNL     1      12.840  47.319 -44.947  1.00  0.00     0.706 A 
HETATM    5  N8  UNL     1      13.944  47.425 -44.175  1.00  0.00    -0.152 N 
ATOM      6  H8  UNL     1      13.844  47.590 -43.174  1.00  0.00     0.187 HD
HETATM    7  C6  UNL     1      15.167  47.316 -44.709  1.00  0.00     0.296 A 
HETATM    8  O4  UNL     1      16.203  47.416 -43.983  1.00  0.00    -0.265 OA
HETATM    9  C7  UNL     1      15.347  47.094 -46.064  1.00  0.00     0.216 A 
ENDROOT
BRANCH   4  10
HETATM   10  N5  UNL     1      11.671  47.432 -44.404  1.00  0.00    -0.092 N 
ATOM     11  H5  UNL     1      11.597  47.194 -43.415  1.00  0.00     0.213 HD
BRANCH  10  12
HETATM   12  O3  UNL     1      10.540  47.836 -45.025  1.00  0.00    -0.205 OA
BRANCH  12  13
HETATM   13  C5  UNL     1      10.046  49.162 -44.980  1.00  0.00     0.543 C 
BRANCH  13  14
HETATM   14  N6  UNL     1       8.797  49.160 -45.746  1.00  0.00    -0.025 N 
ATOM     15  H63 UNL     1       8.898  49.538 -46.688  1.00  0.00     0.279 HD
ATOM     16  H62 UNL     1       8.490  48.227 -46.018  1.00  0.00     0.279 HD
ATOM     17  H61 UNL     1       8.114  49.663 -45.178  1.00  0.00     0.279 HD
ENDBRANCH  13  14
BRANCH  13  18
HETATM   18  N7  UNL     1      10.925  50.099 -45.626  1.00  0.00    -0.025 N 
ATOM     19  H73 UNL     1      11.901  49.891 -45.415  1.00  0.00     0.279 HD
ATOM     20  H72 UNL     1      10.940  49.952 -46.635  1.00  0.00     0.279 HD
ATOM     21  H71 UNL     1      10.698  51.067 -45.399  1.00  0.00     0.279 HD
ENDBRANCH  13  18
ENDBRANCH  12  13
ENDBRANCH  10  12
ENDBRANCH   4  10
BRANCH   1  22
HETATM   22  N3  UNL     1      14.419  46.759 -48.224  1.00  0.00    -0.279 N 
HETATM   23  N2  UNL     1      13.504  46.335 -48.990  1.00  0.00    -0.248 N 
HETATM   24  C2  UNL     1      13.657  46.091 -50.359  1.00  0.00     0.358 C 
ATOM     25  H2  UNL     1      12.588  46.157 -48.577  1.00  0.00     0.192 HD
HETATM   26  N1  UNL     1      14.757  45.441 -50.952  1.00  0.00    -0.216 N 
HETATM   27  O2  UNL     1      12.712  46.502 -51.111  1.00  0.00    -0.243 OA
ATOM     28  H1  UNL     1      15.523  45.106 -50.368  1.00  0.00     0.199 HD
ATOM     29  H3  UNL     1      15.342  46.941 -48.615  1.00  0.00     0.189 HD
BRANCH  26  30
HETATM   30  O1  UNL     1      14.800  45.262 -52.278  1.00  0.00    -0.281 OA
HETATM   31  C1  UNL     1      15.732  46.070 -52.901  1.00  0.00     0.237 C 
ENDBRANCH  26  30
ENDBRANCH   1  22
BRANCH   9  32
HETATM   32  N9  UNL     1      16.632  46.981 -46.625  1.00  0.00    -0.106 N 
HETATM   33  O5  UNL     1      17.217  47.995 -47.014  1.00  0.00    -0.531 OA
HETATM   34  O6  UNL     1      17.235  45.768 -46.743  1.00  0.00    -0.531 OA
ENDBRANCH   9  32
TORSDOF 8
ENDMDL
MODEL 3
REMARK VINA RESULT: -7.491829062      4.345      7.246
REMARK  8 active torsions:
REMARK  status: ('A' for Active; 'I' for Inactive)
REMARK    1  A    between atoms: O1_2  and  N1_3 
REMARK       I    between atoms: N1_3  and  C2_5 
REMARK       I    between atoms: C2_5  and  N2_7 
REMARK    2  A    between atoms: N3_9  and  C3_11 
REMARK    3  A    between atoms: C4_14  and  N5_15 
REMARK    4  A    between atoms: N5_15  and  O3_17 
REMARK    5  A    between atoms: O3_17  and  C5_18 
REMARK    6  A    between atoms: C5_18  and  N6_19 
REMARK    7  A    between atoms: C5_18  and  N7_23 
REMARK    8  A    between atoms: C7_31  and  N9_32 
ROOT
HETATM    1  C3  UNL     1      13.926  47.722 -48.218  1.00  0.00     0.174 A 
HETATM    2  N4  UNL     1      13.362  47.141 -47.153  1.00  0.00    -0.171 N 
ATOM      3  H4  UNL     1      12.879  46.252 -47.283  1.00  0.00     0.186 HD
HETATM    4  C4  UNL     1      13.401  47.671 -45.924  1.00  0.00     0.706 A 
HETATM    5  N8  UNL     1      14.042  48.847 -45.756  1.00  0.00    -0.152 N 
ATOM      6  H8  UNL     1      14.084  49.270 -44.828  1.00  0.00     0.187 HD
HETATM    7  C6  UNL     1      14.623  49.467 -46.791  1.00  0.00     0.296 A 
HETATM    8  O4  UNL     1      15.225  50.571 -46.631  1.00  0.00    -0.265 OA
HETATM    9  C7  UNL     1      14.588  48.928 -48.066  1.00  0.00     0.216 A 
ENDROOT
BRANCH   4  10
HETATM   10  N5  UNL     1      12.845  47.098 -44.906  1.00  0.00    -0.092 N 
ATOM     11  H5  UNL     1      13.452  46.546 -44.299  1.00  0.00     0.213 HD
BRANCH  10  12
HETATM   12  O3  UNL     1      11.536  47.161 -44.571  1.00  0.00    -0.205 OA
BRANCH  12  13
HETATM   13  C5  UNL     1      10.590  47.971 -45.244  1.00  0.00     0.543 C 
BRANCH  13  14
HETATM   14  N6  UNL     1      10.007  48.850 -44.226  1.00  0.00    -0.025 N 
ATOM     15  H63 UNL     1      10.540  48.873 -43.357  1.00  0.00     0.279 HD
ATOM     16  H62 UNL     1      10.091  49.841 -44.451  1.00  0.00     0.279 HD
ATOM     17  H61 UNL     1       9.042  48.543 -44.103  1.00  0.00     0.279 HD
ENDBRANCH  13  14
BRANCH  13  18
HETATM   18  N7  UNL     1       9.506  47.206 -45.798  1.00  0.00    -0.025 N 
ATOM     19  H73 UNL     1       9.201  47.596 -46.690  1.00  0.00     0.279 HD
ATOM     20  H72 UNL     1       9.827  46.292 -46.119  1.00  0.00     0.279 HD
ATOM     21  H71 UNL     1       8.723  47.113 -45.150  1.00  0.00     0.279 HD
ENDBRANCH  13  18
ENDBRANCH  12  13
ENDBRANCH  10  12
ENDBRANCH   4  10
BRANCH   1  22
HETATM   22  N3  UNL     1      13.909  47.193 -49.538  1.00  0.00    -0.279 N 
HETATM   23  N2  UNL     1      14.262  46.005 -49.795  1.00  0.00    -0.248 N 
HETATM   24  C2  UNL     1      14.264  45.430 -51.071  1.00  0.00     0.358 C 
ATOM     25  H2  UNL     1      14.568  45.423 -49.014  1.00  0.00     0.192 HD
HETATM   26  N1  UNL     1      14.730  46.055 -52.244  1.00  0.00    -0.216 N 
HETATM   27  O2  UNL     1      13.801  44.245 -51.154  1.00  0.00    -0.243 OA
ATOM     28  H1  UNL     1      15.104  47.003 -52.199  1.00  0.00     0.199 HD
ATOM     29  H3  UNL     1      13.601  47.791 -50.304  1.00  0.00     0.189 HD
BRANCH  26  30
HETATM   30  O1  UNL     1      14.684  45.411 -53.416  1.00  0.00    -0.281 OA
HETATM   31  C1  UNL     1      15.713  45.766 -54.268  1.00  0.00     0.237 C 
ENDBRANCH  26  30
ENDBRANCH   1  22
BRANCH   9  32
HETATM   32  N9  UNL     1      15.198  49.579 -49.154  1.00  0.00    -0.106 N 
HETATM   33  O5  UNL     1      16.375  49.330 -49.430  1.00  0.00    -0.531 OA
HETATM   34  O6  UNL     1      14.505  50.477 -49.905  1.00  0.00    -0.531 OA
ENDBRANCH   9  32
TORSDOF 8
ENDMDL
MODEL 4
REMARK VINA RESULT: -7.450069611      4.354      7.162
REMARK  8 active torsions:
REMARK  status: ('A' for Active; 'I' for Inactive)
REMARK    1  A    between atoms: O1_2  and  N1_3 
REMARK       I    between atoms: N1_3  and  C2_5 
REMARK       I    between atoms: C2_5  and  N2_7 
REMARK    2  A    between atoms: N3_9  and  C3_11 
REMARK    3  A    between atoms: C4_14  and  N5_15 
REMARK    4  A    between atoms: N5_15  and  O3_17 
REMARK    5  A    between atoms: O3_17  and  C5_18 
REMARK    6  A    between atoms: C5_18  and  N6_19 
REMARK    7  A    between atoms: C5_18  and  N7_23 
REMARK    8  A    between atoms: C7_31  and  N9_32 
ROOT
HETATM    1  C3  UNL     1      14.337  47.464 -48.098  1.00  0.00     0.174 A 
HETATM    2  N4  UNL     1      13.315  47.767 -47.288  1.00  0.00    -0.171 N 
ATOM      3  H4  UNL     1      12.366  47.690 -47.654  1.00  0.00     0.186 HD
HETATM    4  C4  UNL     1      13.480  48.167 -46.021  1.00  0.00     0.706 A 
HETATM    5  N8  UNL     1      14.738  48.267 -45.541  1.00  0.00    -0.152 N 
ATOM      6  H8  UNL     1      14.888  48.570 -44.579  1.00  0.00     0.187 HD
HETATM    7  C6  UNL     1      15.793  47.973 -46.312  1.00  0.00     0.296 A 
HETATM    8  O4  UNL     1      16.974  48.067 -45.860  1.00  0.00    -0.265 OA
HETATM    9  C7  UNL     1      15.634  47.560 -47.625  1.00  0.00     0.216 A 
ENDROOT
BRANCH   4  10
HETATM   10  N5  UNL     1      12.481  48.461 -45.253  1.00  0.00    -0.092 N 
ATOM     11  H5  UNL     1      12.546  48.169 -44.278  1.00  0.00     0.213 HD
BRANCH  10  12
HETATM   12  O3  UNL     1      11.358  49.118 -45.623  1.00  0.00    -0.205 OA
BRANCH  12  13
HETATM   13  C5  UNL     1      10.049  48.633 -45.391  1.00  0.00     0.543 C 
BRANCH  13  14
HETATM   14  N6  UNL     1       9.785  48.833 -43.963  1.00  0.00    -0.025 N 
ATOM     15  H63 UNL     1       9.162  48.132 -43.563  1.00  0.00     0.279 HD
ATOM     16  H62 UNL     1      10.591  48.637 -43.371  1.00  0.00     0.279 HD
ATOM     17  H61 UNL     1       9.435  49.787 -43.869  1.00  0.00     0.279 HD
ENDBRANCH  13  14
BRANCH  13  18
HETATM   18  N7  UNL     1       9.933  47.221 -45.637  1.00  0.00    -0.025 N 
ATOM     19  H73 UNL     1       9.195  46.809 -45.068  1.00  0.00     0.279 HD
ATOM     20  H72 UNL     1       9.546  47.040 -46.564  1.00  0.00     0.279 HD
ATOM     21  H71 UNL     1      10.817  46.729 -45.506  1.00  0.00     0.279 HD
ENDBRANCH  13  18
ENDBRANCH  12  13
ENDBRANCH  10  12
ENDBRANCH   4  10
BRANCH   1  22
HETATM   22  N3  UNL     1      14.205  47.035 -49.448  1.00  0.00    -0.279 N 
HETATM   23  N2  UNL     1      14.446  45.845 -49.806  1.00  0.00    -0.248 N 
HETATM   24  C2  UNL     1      14.332  45.367 -51.116  1.00  0.00     0.358 C 
ATOM     25  H2  UNL     1      14.744  45.187 -49.086  1.00  0.00     0.192 HD
HETATM   26  N1  UNL     1      14.784  46.038 -52.269  1.00  0.00    -0.216 N 
HETATM   27  O2  UNL     1      13.770  44.230 -51.252  1.00  0.00    -0.243 OA
ATOM     28  H1  UNL     1      15.236  46.948 -52.182  1.00  0.00     0.199 HD
ATOM     29  H3  UNL     1      13.906  47.710 -50.151  1.00  0.00     0.189 HD
BRANCH  26  30
HETATM   30  O1  UNL     1      14.623  45.485 -53.477  1.00  0.00    -0.281 OA
HETATM   31  C1  UNL     1      15.723  45.651 -54.297  1.00  0.00     0.237 C 
ENDBRANCH  26  30
ENDBRANCH   1  22
BRANCH   9  32
HETATM   32  N9  UNL     1      16.741  47.252 -48.436  1.00  0.00    -0.106 N 
HETATM   33  O5  UNL     1      17.282  48.147 -49.092  1.00  0.00    -0.531 OA
HETATM   34  O6  UNL     1      17.221  45.981 -48.505  1.00  0.00    -0.531 OA
ENDBRANCH   9  32
TORSDOF 8
ENDMDL
MODEL 5
REMARK VINA RESULT: -7.387914610      1.689      2.062
REMARK  8 active torsions:
REMARK  status: ('A' for Active; 'I' for Inactive)
REMARK    1  A    between atoms: O1_2  and  N1_3 
REMARK       I    between atoms: N1_3  and  C2_5 
REMARK       I    between atoms: C2_5  and  N2_7 
REMARK    2  A    between atoms: N3_9  and  C3_11 
REMARK    3  A    between atoms: C4_14  and  N5_15 
REMARK    4  A    between atoms: N5_15  and  O3_17 
REMARK    5  A    between atoms: O3_17  and  C5_18 
REMARK    6  A    between atoms: C5_18  and  N6_19 
REMARK    7  A    between atoms: C5_18  and  N7_23 
REMARK    8  A    between atoms: C7_31  and  N9_32 
ROOT
HETATM    1  C3  UNL     1      16.605  48.358 -53.541  1.00  0.00     0.174 A 
HETATM    2  N4  UNL     1      16.070  48.660 -52.352  1.00  0.00    -0.171 N 
ATOM      3  H4  UNL     1      15.392  49.420 -52.303  1.00  0.00     0.186 HD
HETATM    4  C4  UNL     1      16.384  48.011 -51.223  1.00  0.00     0.706 A 
HETATM    5  N8  UNL     1      17.282  47.005 -51.293  1.00  0.00    -0.152 N 
ATOM      6  H8  UNL     1      17.536  46.498 -50.446  1.00  0.00     0.187 HD
HETATM    7  C6  UNL     1      17.843  46.666 -52.460  1.00  0.00     0.296 A 
HETATM    8  O4  UNL     1      18.686  45.720 -52.524  1.00  0.00    -0.265 OA
HETATM    9  C7  UNL     1      17.527  47.330 -53.634  1.00  0.00     0.216 A 
ENDROOT
BRANCH   4  10
HETATM   10  N5  UNL     1      15.860  48.319 -50.081  1.00  0.00    -0.092 N 
ATOM     11  H5  UNL     1      16.415  48.912 -49.464  1.00  0.00     0.213 HD
BRANCH  10  12
HETATM   12  O3  UNL     1      14.647  47.929 -49.629  1.00  0.00    -0.205 OA
BRANCH  12  13
HETATM   13  C5  UNL     1      14.259  46.575 -49.484  1.00  0.00     0.543 C 
BRANCH  13  14
HETATM   14  N6  UNL     1      12.934  46.461 -50.099  1.00  0.00    -0.025 N 
ATOM     15  H63 UNL     1      12.229  46.069 -49.475  1.00  0.00     0.279 HD
ATOM     16  H62 UNL     1      12.479  47.361 -50.253  1.00  0.00     0.279 HD
ATOM     17  H61 UNL     1      13.063  45.921 -50.955  1.00  0.00     0.279 HD
ENDBRANCH  13  14
BRANCH  13  18
HETATM   18  N7  UNL     1      14.109  46.190 -48.107  1.00  0.00    -0.025 N 
ATOM     19  H73 UNL     1      14.775  46.683 -47.514  1.00  0.00     0.279 HD
ATOM     20  H72 UNL     1      13.240  46.555 -47.716  1.00  0.00     0.279 HD
ATOM     21  H71 UNL     1      14.175  45.181 -47.974  1.00  0.00     0.279 HD
ENDBRANCH  13  18
ENDBRANCH  12  13
ENDBRANCH  10  12
ENDBRANCH   4  10
BRANCH   1  22
HETATM   22  N3  UNL     1      16.299  49.021 -54.762  1.00  0.00    -0.279 N 
HETATM   23  N2  UNL     1      15.744  48.427 -55.733  1.00  0.00    -0.248 N 
HETATM   24  C2  UNL     1      15.419  49.027 -56.955  1.00  0.00     0.358 C 
ATOM     25  H2  UNL     1      15.518  47.440 -55.616  1.00  0.00     0.192 HD
HETATM   26  N1  UNL     1      16.252  49.900 -57.680  1.00  0.00    -0.216 N 
HETATM   27  O2  UNL     1      14.269  48.745 -57.430  1.00  0.00    -0.243 OA
ATOM     28  H1  UNL     1      17.175  50.139 -57.318  1.00  0.00     0.199 HD
ATOM     29  H3  UNL     1      16.534  50.008 -54.859  1.00  0.00     0.189 HD
BRANCH  26  30
HETATM   30  O1  UNL     1      15.837  50.418 -58.843  1.00  0.00    -0.281 OA
HETATM   31  C1  UNL     1      16.217  49.663 -59.936  1.00  0.00     0.237 C 
ENDBRANCH  26  30
ENDBRANCH   1  22
BRANCH   9  32
HETATM   32  N9  UNL     1      18.118  46.975 -54.860  1.00  0.00    -0.106 N 
HETATM   33  O5  UNL     1      19.192  47.486 -55.189  1.00  0.00    -0.531 OA
HETATM   34  O6  UNL     1      17.519  46.075 -55.685  1.00  0.00    -0.531 OA
ENDBRANCH   9  32
TORSDOF 8
ENDMDL
