MODEL 1
REMARK VINA RESULT: -7.832771514      0.000      0.000
REMARK  5 active torsions:
REMARK  status: ('A' for Active; 'I' for Inactive)
REMARK    1  A    between atoms: N3_7  and  C3_8 
REMARK    2  A    between atoms: C3_8  and  C4_9 
REMARK       I    between atoms: C4_9  and  N4_11 
REMARK    3  A    between atoms: N4_11  and  N5_13 
REMARK       I    between atoms: N5_13  and  C5_15 
REMARK       I    between atoms: C5_15  and  N6_17 
REMARK    4  A    between atoms: N6_17  and  C6_19 
REMARK    5  A    between atoms: C9_28  and  N10_29 
ROOT
HETATM    1  N5  UNL     1      13.548  46.146 -49.334  1.00  0.00    -0.249 N 
ATOM      2  H5  UNL     1      12.612  45.865 -49.040  1.00  0.00     0.192 HD
HETATM    3  C5  UNL     1      14.559  46.241 -48.348  1.00  0.00     0.340 C 
HETATM    4  O2  UNL     1      15.697  46.589 -48.712  1.00  0.00    -0.245 OA
HETATM    5  N6  UNL     1      14.328  45.951 -46.972  1.00  0.00    -0.289 N 
ATOM      6  H6  UNL     1      13.399  45.674 -46.655  1.00  0.00     0.172 HD
ENDROOT
BRANCH   1   7
HETATM    7  N4  UNL     1      13.758  46.415 -50.674  1.00  0.00    -0.265 N 
HETATM    8  C4  UNL     1      14.225  45.504 -51.649  1.00  0.00     0.257 C 
HETATM    9  O1  UNL     1      14.493  44.331 -51.343  1.00  0.00    -0.270 OA
ATOM     10  H4  UNL     1      13.558  47.364 -50.990  1.00  0.00     0.190 HD
BRANCH   8  11
HETATM   11  C3  UNL     1      14.389  45.960 -53.043  1.00  0.00     0.275 C 
BRANCH  11  12
HETATM   12  N3  UNL     1      15.801  45.935 -53.381  1.00  0.00    -0.209 N 
HETATM   13  N2  UNL     1      16.356  45.596 -54.511  1.00  0.00    -0.224 N 
HETATM   14  N1  UNL     1      17.672  45.671 -54.449  1.00  0.00    -0.272 N 
ATOM     15  H2  UNL     1      15.837  45.309 -55.341  1.00  0.00     0.210 HD
HETATM   16  C2  UNL     1      17.979  46.083 -53.208  1.00  0.00     0.109 A 
ATOM     17  H1  UNL     1      18.329  45.458 -55.200  1.00  0.00     0.190 HD
HETATM   18  C1  UNL     1      19.367  46.312 -52.654  1.00  0.00     0.092 C 
HETATM   19  N11 UNL     1      16.819  46.244 -52.557  1.00  0.00    -0.270 N 
ATOM     20  H11 UNL     1      16.723  46.551 -51.589  1.00  0.00     0.190 HD
ENDBRANCH  11  12
ENDBRANCH   8  11
ENDBRANCH   1   7
BRANCH   5  21
HETATM   21  C6  UNL     1      15.398  46.051 -46.049  1.00  0.00     0.168 A 
HETATM   22  N7  UNL     1      16.382  45.092 -46.041  1.00  0.00    -0.281 N 
HETATM   23  N8  UNL     1      17.359  45.172 -45.197  1.00  0.00    -0.288 N 
ATOM     24  H7  UNL     1      16.342  44.316 -46.702  1.00  0.00     0.188 HD
HETATM   25  C7  UNL     1      17.502  46.157 -44.284  1.00  0.00     0.093 A 
ATOM     26  H8  UNL     1      18.070  44.441 -45.223  1.00  0.00     0.188 HD
HETATM   27  C8  UNL     1      18.616  46.228 -43.319  1.00  0.00     0.090 C 
HETATM   28  N9  UNL     1      16.560  47.103 -44.268  1.00  0.00    -0.329 N 
HETATM   29  C9  UNL     1      15.501  47.068 -45.142  1.00  0.00     0.146 A 
ATOM     30  H9  UNL     1      16.628  47.866 -43.595  1.00  0.00     0.168 HD
BRANCH  29  31
HETATM   31  N10 UNL     1      14.621  48.012 -45.073  1.00  0.00    -0.382 N 
ATOM     32 2H10 UNL     1      14.863  48.926 -45.455  1.00  0.00     0.157 HD
ATOM     33 1H10 UNL     1      13.706  47.864 -44.647  1.00  0.00     0.157 HD
ENDBRANCH  29  31
ENDBRANCH   5  21
TORSDOF 5
ENDMDL
MODEL 2
REMARK VINA RESULT: -7.808214459      2.730      8.245
REMARK  5 active torsions:
REMARK  status: ('A' for Active; 'I' for Inactive)
REMARK    1  A    between atoms: N3_7  and  C3_8 
REMARK    2  A    between atoms: C3_8  and  C4_9 
REMARK       I    between atoms: C4_9  and  N4_11 
REMARK    3  A    between atoms: N4_11  and  N5_13 
REMARK       I    between atoms: N5_13  and  C5_15 
REMARK       I    between atoms: C5_15  and  N6_17 
REMARK    4  A    between atoms: N6_17  and  C6_19 
REMARK    5  A    between atoms: C9_28  and  N10_29 
ROOT
HETATM    1  N5  UNL     1      14.081  45.742 -48.409  1.00  0.00    -0.249 N 
ATOM      2  H5  UNL     1      14.006  44.738 -48.246  1.00  0.00     0.192 HD
HETATM    3  C5  UNL     1      14.490  46.184 -49.690  1.00  0.00     0.340 C 
HETATM    4  O2  UNL     1      14.583  47.410 -49.881  1.00  0.00    -0.245 OA
HETATM    5  N6  UNL     1      14.789  45.289 -50.758  1.00  0.00    -0.289 N 
ATOM      6  H6  UNL     1      14.727  44.281 -50.616  1.00  0.00     0.172 HD
ENDROOT
BRANCH   1   7
HETATM    7  N4  UNL     1      13.778  46.598 -47.366  1.00  0.00    -0.265 N 
HETATM    8  C4  UNL     1      14.416  46.642 -46.105  1.00  0.00     0.257 C 
HETATM    9  O1  UNL     1      15.345  45.864 -45.837  1.00  0.00    -0.270 OA
ATOM     10  H4  UNL     1      13.020  47.263 -47.521  1.00  0.00     0.190 HD
BRANCH   8  11
HETATM   11  C3  UNL     1      13.966  47.629 -45.103  1.00  0.00     0.275 C 
BRANCH  11  12
HETATM   12  N3  UNL     1      12.525  47.772 -45.200  1.00  0.00    -0.209 N 
HETATM   13  N2  UNL     1      11.610  46.852 -45.070  1.00  0.00    -0.224 N 
HETATM   14  N1  UNL     1      10.398  47.342 -45.248  1.00  0.00    -0.272 N 
ATOM     15  H2  UNL     1      11.808  45.874 -44.858  1.00  0.00     0.210 HD
HETATM   16  C2  UNL     1      10.543  48.653 -45.505  1.00  0.00     0.109 A 
ATOM     17  H1  UNL     1       9.520  46.825 -45.198  1.00  0.00     0.190 HD
HETATM   18  C1  UNL     1       9.434  49.642 -45.784  1.00  0.00     0.092 C 
HETATM   19  N11 UNL     1      11.858  48.909 -45.473  1.00  0.00    -0.270 N 
ATOM     20  H11 UNL     1      12.285  49.821 -45.631  1.00  0.00     0.190 HD
ENDBRANCH  11  12
ENDBRANCH   8  11
ENDBRANCH   1   7
BRANCH   5  21
HETATM   21  C6  UNL     1      15.173  45.810 -52.018  1.00  0.00     0.168 A 
HETATM   22  N7  UNL     1      14.286  45.777 -53.067  1.00  0.00    -0.281 N 
HETATM   23  N8  UNL     1      14.631  46.245 -54.223  1.00  0.00    -0.288 N 
ATOM     24  H7  UNL     1      13.355  45.384 -52.935  1.00  0.00     0.188 HD
HETATM   25  C7  UNL     1      15.838  46.786 -54.500  1.00  0.00     0.093 A 
ATOM     26  H8  UNL     1      13.945  46.203 -54.976  1.00  0.00     0.188 HD
HETATM   27  C8  UNL     1      16.221  47.304 -55.827  1.00  0.00     0.090 C 
HETATM   28  N9  UNL     1      16.720  46.831 -53.499  1.00  0.00    -0.329 N 
HETATM   29  C9  UNL     1      16.407  46.350 -52.252  1.00  0.00     0.146 A 
ATOM     30  H9  UNL     1      17.644  47.231 -53.663  1.00  0.00     0.168 HD
BRANCH  29  31
HETATM   31  N10 UNL     1      17.306  46.420 -51.326  1.00  0.00    -0.382 N 
ATOM     32 2H10 UNL     1      17.602  45.555 -50.874  1.00  0.00     0.157 HD
ATOM     33 1H10 UNL     1      17.716  47.309 -51.041  1.00  0.00     0.157 HD
ENDBRANCH  29  31
ENDBRANCH   5  21
TORSDOF 5
ENDMDL
MODEL 3
REMARK VINA RESULT: -7.791067265      2.566      7.800
REMARK  5 active torsions:
REMARK  status: ('A' for Active; 'I' for Inactive)
REMARK    1  A    between atoms: N3_7  and  C3_8 
REMARK    2  A    between atoms: C3_8  and  C4_9 
REMARK       I    between atoms: C4_9  and  N4_11 
REMARK    3  A    between atoms: N4_11  and  N5_13 
REMARK       I    between atoms: N5_13  and  C5_15 
REMARK       I    between atoms: C5_15  and  N6_17 
REMARK    4  A    between atoms: N6_17  and  C6_19 
REMARK    5  A    between atoms: C9_28  and  N10_29 
ROOT
HETATM    1  N5  UNL     1      14.089  46.053 -48.736  1.00  0.00    -0.249 N 
ATOM      2  H5  UNL     1      13.397  45.380 -49.066  1.00  0.00     0.192 HD
HETATM    3  C5  UNL     1      15.247  46.264 -49.523  1.00  0.00     0.340 C 
HETATM    4  O2  UNL     1      16.089  47.083 -49.113  1.00  0.00    -0.245 OA
HETATM    5  N6  UNL     1      15.479  45.586 -50.755  1.00  0.00    -0.289 N 
ATOM      6  H6  UNL     1      14.804  44.905 -51.101  1.00  0.00     0.172 HD
ENDROOT
BRANCH   1   7
HETATM    7  N4  UNL     1      13.845  46.709 -47.543  1.00  0.00    -0.265 N 
HETATM    8  C4  UNL     1      14.421  46.408 -46.288  1.00  0.00     0.257 C 
HETATM    9  O1  UNL     1      15.232  45.475 -46.169  1.00  0.00    -0.270 OA
ATOM     10  H4  UNL     1      13.186  47.487 -47.573  1.00  0.00     0.190 HD
BRANCH   8  11
HETATM   11  C3  UNL     1      14.051  47.219 -45.111  1.00  0.00     0.275 C 
BRANCH  11  12
HETATM   12  N3  UNL     1      12.634  47.529 -45.182  1.00  0.00    -0.209 N 
HETATM   13  N2  UNL     1      11.622  46.721 -45.037  1.00  0.00    -0.224 N 
HETATM   14  N1  UNL     1      10.471  47.349 -45.192  1.00  0.00    -0.272 N 
ATOM     15  H2  UNL     1      11.708  45.726 -44.829  1.00  0.00     0.210 HD
HETATM   16  C2  UNL     1      10.763  48.635 -45.452  1.00  0.00     0.109 A 
ATOM     17  H1  UNL     1       9.540  46.937 -45.128  1.00  0.00     0.190 HD
HETATM   18  C1  UNL     1       9.772  49.746 -45.710  1.00  0.00     0.092 C 
HETATM   19  N11 UNL     1      12.099  48.736 -45.443  1.00  0.00    -0.270 N 
ATOM     20  H11 UNL     1      12.626  49.593 -45.608  1.00  0.00     0.190 HD
ENDBRANCH  11  12
ENDBRANCH   8  11
ENDBRANCH   1   7
BRANCH   5  21
HETATM   21  C6  UNL     1      16.653  45.867 -51.494  1.00  0.00     0.168 A 
HETATM   22  N7  UNL     1      17.885  45.653 -50.924  1.00  0.00    -0.281 N 
HETATM   23  N8  UNL     1      18.963  45.913 -51.590  1.00  0.00    -0.288 N 
ATOM     24  H7  UNL     1      17.949  45.289 -49.974  1.00  0.00     0.188 HD
HETATM   25  C7  UNL     1      18.985  46.397 -52.851  1.00  0.00     0.093 A 
ATOM     26  H8  UNL     1      19.858  45.740 -51.133  1.00  0.00     0.188 HD
HETATM   27  C8  UNL     1      20.223  46.700 -53.594  1.00  0.00     0.090 C 
HETATM   28  N9  UNL     1      17.802  46.614 -53.431  1.00  0.00    -0.329 N 
HETATM   29  C9  UNL     1      16.626  46.356 -52.771  1.00  0.00     0.146 A 
ATOM     30  H9  UNL     1      17.771  46.980 -54.383  1.00  0.00     0.168 HD
BRANCH  29  31
HETATM   31  N10 UNL     1      15.515  46.591 -53.387  1.00  0.00    -0.382 N 
ATOM     32 2H10 UNL     1      14.898  45.804 -53.587  1.00  0.00     0.157 HD
ATOM     33 1H10 UNL     1      15.249  47.533 -53.675  1.00  0.00     0.157 HD
ENDBRANCH  29  31
ENDBRANCH   5  21
TORSDOF 5
ENDMDL
MODEL 4
REMARK VINA RESULT: -7.767835054      2.631      8.083
REMARK  5 active torsions:
REMARK  status: ('A' for Active; 'I' for Inactive)
REMARK    1  A    between atoms: N3_7  and  C3_8 
REMARK    2  A    between atoms: C3_8  and  C4_9 
REMARK       I    between atoms: C4_9  and  N4_11 
REMARK    3  A    between atoms: N4_11  and  N5_13 
REMARK       I    between atoms: N5_13  and  C5_15 
REMARK       I    between atoms: C5_15  and  N6_17 
REMARK    4  A    between atoms: N6_17  and  C6_19 
REMARK    5  A    between atoms: C9_28  and  N10_29 
ROOT
HETATM    1  N5  UNL     1      14.061  45.872 -48.447  1.00  0.00    -0.249 N 
ATOM      2  H5  UNL     1      13.711  44.913 -48.442  1.00  0.00     0.192 HD
HETATM    3  C5  UNL     1      14.834  46.296 -49.555  1.00  0.00     0.340 C 
HETATM    4  O2  UNL     1      15.261  47.465 -49.554  1.00  0.00    -0.245 OA
HETATM    5  N6  UNL     1      15.132  45.449 -50.661  1.00  0.00    -0.289 N 
ATOM      6  H6  UNL     1      14.799  44.485 -50.673  1.00  0.00     0.172 HD
ENDROOT
BRANCH   1   7
HETATM    7  N4  UNL     1      13.755  46.685 -47.372  1.00  0.00    -0.265 N 
HETATM    8  C4  UNL     1      14.375  46.664 -46.101  1.00  0.00     0.257 C 
HETATM    9  O1  UNL     1      15.289  45.862 -45.855  1.00  0.00    -0.270 OA
ATOM     10  H4  UNL     1      13.009  47.367 -47.509  1.00  0.00     0.190 HD
BRANCH   8  11
HETATM   11  C3  UNL     1      13.924  47.613 -45.063  1.00  0.00     0.275 C 
BRANCH  11  12
HETATM   12  N3  UNL     1      12.487  47.785 -45.177  1.00  0.00    -0.209 N 
HETATM   13  N2  UNL     1      11.553  46.885 -45.049  1.00  0.00    -0.224 N 
HETATM   14  N1  UNL     1      10.353  47.398 -45.243  1.00  0.00    -0.272 N 
ATOM     15  H2  UNL     1      11.727  45.906 -44.825  1.00  0.00     0.210 HD
HETATM   16  C2  UNL     1      10.527  48.703 -45.512  1.00  0.00     0.109 A 
ATOM     17  H1  UNL     1       9.464  46.900 -45.199  1.00  0.00     0.190 HD
HETATM   18  C1  UNL     1       9.443  49.713 -45.812  1.00  0.00     0.092 C 
HETATM   19  N11 UNL     1      11.847  48.932 -45.468  1.00  0.00    -0.270 N 
ATOM     20  H11 UNL     1      12.295  49.834 -45.630  1.00  0.00     0.190 HD
ENDBRANCH  11  12
ENDBRANCH   8  11
ENDBRANCH   1   7
BRANCH   5  21
HETATM   21  C6  UNL     1      15.896  45.954 -51.741  1.00  0.00     0.168 A 
HETATM   22  N7  UNL     1      17.211  46.299 -51.543  1.00  0.00    -0.281 N 
HETATM   23  N8  UNL     1      17.914  46.767 -52.522  1.00  0.00    -0.288 N 
ATOM     24  H7  UNL     1      17.634  46.185 -50.622  1.00  0.00     0.188 HD
HETATM   25  C7  UNL     1      17.448  46.956 -53.776  1.00  0.00     0.093 A 
ATOM     26  H8  UNL     1      18.887  47.010 -52.336  1.00  0.00     0.188 HD
HETATM   27  C8  UNL     1      18.259  47.504 -54.881  1.00  0.00     0.090 C 
HETATM   28  N9  UNL     1      16.172  46.630 -53.998  1.00  0.00    -0.329 N 
HETATM   29  C9  UNL     1      15.381  46.128 -52.995  1.00  0.00     0.146 A 
ATOM     30  H9  UNL     1      15.778  46.756 -54.930  1.00  0.00     0.168 HD
BRANCH  29  31
HETATM   31  N10 UNL     1      14.153  45.835 -53.274  1.00  0.00    -0.382 N 
ATOM     32 2H10 UNL     1      13.469  45.854 -52.518  1.00  0.00     0.157 HD
ATOM     33 1H10 UNL     1      13.862  45.585 -54.219  1.00  0.00     0.157 HD
ENDBRANCH  29  31
ENDBRANCH   5  21
TORSDOF 5
ENDMDL
MODEL 5
REMARK VINA RESULT: -7.704685777      7.644     12.918
REMARK  5 active torsions:
REMARK  status: ('A' for Active; 'I' for Inactive)
REMARK    1  A    between atoms: N3_7  and  C3_8 
REMARK    2  A    between atoms: C3_8  and  C4_9 
REMARK       I    between atoms: C4_9  and  N4_11 
REMARK    3  A    between atoms: N4_11  and  N5_13 
REMARK       I    between atoms: N5_13  and  C5_15 
REMARK       I    between atoms: C5_15  and  N6_17 
REMARK    4  A    between atoms: N6_17  and  C6_19 
REMARK    5  A    between atoms: C9_28  and  N10_29 
ROOT
HETATM    1  N5  UNL     1      15.261  49.451 -58.530  1.00  0.00    -0.249 N 
ATOM      2  H5  UNL     1      14.359  48.994 -58.669  1.00  0.00     0.192 HD
HETATM    3  C5  UNL     1      16.004  49.829 -59.674  1.00  0.00     0.340 C 
HETATM    4  O2  UNL     1      17.104  50.383 -59.498  1.00  0.00    -0.245 OA
HETATM    5  N6  UNL     1      15.542  49.609 -61.004  1.00  0.00    -0.289 N 
ATOM      6  H6  UNL     1      14.647  49.148 -61.167  1.00  0.00     0.172 HD
ENDROOT
BRANCH   1   7
HETATM    7  N4  UNL     1      15.691  49.667 -57.234  1.00  0.00    -0.265 N 
HETATM    8  C4  UNL     1      15.928  48.677 -56.253  1.00  0.00     0.257 C 
HETATM    9  O1  UNL     1      15.752  47.475 -56.510  1.00  0.00    -0.270 OA
ATOM     10  H4  UNL     1      15.853  50.635 -56.958  1.00  0.00     0.190 HD
BRANCH   8  11
HETATM   11  C3  UNL     1      16.392  49.085 -54.912  1.00  0.00     0.275 C 
BRANCH  11  12
HETATM   12  N3  UNL     1      17.421  48.161 -54.471  1.00  0.00    -0.209 N 
HETATM   13  N2  UNL     1      18.199  47.409 -55.198  1.00  0.00    -0.224 N 
HETATM   14  N1  UNL     1      19.002  46.674 -54.453  1.00  0.00    -0.272 N 
ATOM     15  H2  UNL     1      18.188  47.392 -56.218  1.00  0.00     0.210 HD
HETATM   16  C2  UNL     1      18.724  46.972 -53.172  1.00  0.00     0.109 A 
ATOM     17  H1  UNL     1      19.699  46.008 -54.785  1.00  0.00     0.190 HD
HETATM   18  C1  UNL     1      19.382  46.378 -51.948  1.00  0.00     0.092 C 
HETATM   19  N11 UNL     1      17.748  47.890 -53.193  1.00  0.00    -0.270 N 
ATOM     20  H11 UNL     1      17.321  48.317 -52.371  1.00  0.00     0.190 HD
ENDBRANCH  11  12
ENDBRANCH   8  11
ENDBRANCH   1   7
BRANCH   5  21
HETATM   21  C6  UNL     1      16.335  50.034 -62.097  1.00  0.00     0.168 A 
HETATM   22  N7  UNL     1      16.222  51.322 -62.561  1.00  0.00    -0.281 N 
HETATM   23  N8  UNL     1      16.938  51.717 -63.563  1.00  0.00    -0.288 N 
ATOM     24  H7  UNL     1      15.572  51.969 -62.115  1.00  0.00     0.188 HD
HETATM   25  C7  UNL     1      17.825  50.940 -64.223  1.00  0.00     0.093 A 
ATOM     26  H8  UNL     1      16.826  52.681 -63.878  1.00  0.00     0.188 HD
HETATM   27  C8  UNL     1      18.626  51.401 -65.373  1.00  0.00     0.090 C 
HETATM   28  N9  UNL     1      17.957  49.683 -63.794  1.00  0.00    -0.329 N 
HETATM   29  C9  UNL     1      17.222  49.211 -62.734  1.00  0.00     0.146 A 
ATOM     30  H9  UNL     1      18.615  49.060 -64.262  1.00  0.00     0.168 HD
BRANCH  29  31
HETATM   31  N10 UNL     1      17.394  47.983 -62.370  1.00  0.00    -0.382 N 
ATOM     32 2H10 UNL     1      16.986  47.680 -61.485  1.00  0.00     0.157 HD
ATOM     33 1H10 UNL     1      17.923  47.322 -62.939  1.00  0.00     0.157 HD
ENDBRANCH  29  31
ENDBRANCH   5  21
TORSDOF 5
ENDMDL
