MODEL 1
REMARK VINA RESULT: -7.205725062      0.000      0.000
REMARK  7 active torsions:
REMARK  status: ('A' for Active; 'I' for Inactive)
REMARK    1  A    between atoms: C5_14  and  S1_15 
REMARK    2  A    between atoms: S1_15  and  C6_16 
REMARK    3  A    between atoms: C6_16  and  C7_17 
REMARK    4  A    between atoms: C7_17  and  N6_18 
REMARK    5  A    between atoms: C7_17  and  C8_22 
REMARK    6  A    between atoms: C9_27  and  N8_28 
REMARK    7  A    between atoms: N8_28  and  N9_30 
ROOT
HETATM    1  N1  UNL     1       7.722  51.876 -48.770  1.00  0.00    -0.172 NA
HETATM    2  C1  UNL     1       8.697  51.445 -48.285  1.00  0.00     0.183 C 
HETATM    3  N2  UNL     1       9.862  50.917 -47.727  1.00  0.00    -0.278 N 
ATOM      4  H2  UNL     1       9.815  50.269 -46.941  1.00  0.00     0.179 HD
HETATM    5  C2  UNL     1      10.995  51.263 -48.220  1.00  0.00     0.133 A 
HETATM    6  N3  UNL     1      11.139  52.108 -49.251  1.00  0.00    -0.337 N 
ATOM      7  H3  UNL     1      10.303  52.507 -49.677  1.00  0.00     0.168 HD
HETATM    8  C3  UNL     1      12.345  52.451 -49.745  1.00  0.00     0.183 A 
HETATM    9  N4  UNL     1      13.481  51.959 -49.227  1.00  0.00    -0.338 N 
ATOM     10  H4  UNL     1      14.393  52.218 -49.602  1.00  0.00     0.168 HD
HETATM   11  C4  UNL     1      13.362  51.096 -48.177  1.00  0.00     0.126 A 
HETATM   12  N5  UNL     1      14.478  50.585 -47.633  1.00  0.00    -0.322 N 
ATOM     13  H5  UNL     1      15.381  50.857 -48.022  1.00  0.00     0.169 HD
HETATM   14  C5  UNL     1      14.455  49.732 -46.601  1.00  0.00     0.147 A 
HETATM   15  N7  UNL     1      13.231  49.385 -46.100  1.00  0.00    -0.321 N 
ATOM     16  H7  UNL     1      13.190  48.737 -45.313  1.00  0.00     0.169 HD
HETATM   17  C9  UNL     1      12.090  49.860 -46.598  1.00  0.00     0.139 A 
HETATM   18  C10 UNL     1      12.138  50.737 -47.660  1.00  0.00     0.098 A 
ENDROOT
BRANCH  17  19
HETATM   19  N8  UNL     1      10.944  49.511 -46.097  1.00  0.00    -0.291 N 
ATOM     20  H8  UNL     1      10.125  49.467 -46.705  1.00  0.00     0.188 HD
BRANCH  19  21
HETATM   21  N9  UNL     1      10.812  49.197 -44.760  1.00  0.00    -0.344 N 
ATOM     22  H92 UNL     1      10.666  49.957 -44.096  1.00  0.00     0.176 HD
ATOM     23  H91 UNL     1      10.858  48.231 -44.436  1.00  0.00     0.176 HD
ENDBRANCH  19  21
ENDBRANCH  17  19
BRANCH  14  24
HETATM   24  S1  UNL     1      15.930  49.063 -45.914  1.00  0.00    -0.091 SA
BRANCH  24  25
HETATM   25  C6  UNL     1      17.383  49.203 -46.920  1.00  0.00     0.126 C 
BRANCH  25  26
HETATM   26  C7  UNL     1      17.631  48.082 -47.888  1.00  0.00     0.293 C 
BRANCH  26  27
HETATM   27  N6  UNL     1      17.165  46.843 -47.266  1.00  0.00    -0.064 N 
ATOM     28  H63 UNL     1      16.220  46.588 -47.552  1.00  0.00     0.275 HD
ATOM     29  H62 UNL     1      17.643  46.017 -47.625  1.00  0.00     0.275 HD
ATOM     30  H61 UNL     1      17.259  46.946 -46.255  1.00  0.00     0.275 HD
ENDBRANCH  26  27
BRANCH  26  31
HETATM   31  C8  UNL     1      16.932  48.244 -49.165  1.00  0.00     0.205 C 
HETATM   32  O1  UNL     1      16.415  49.323 -49.556  1.00  0.00    -0.646 OA
HETATM   33  O2  UNL     1      16.818  47.161 -50.019  1.00  0.00    -0.646 OA
ENDBRANCH  26  31
ENDBRANCH  25  26
ENDBRANCH  24  25
ENDBRANCH  14  24
TORSDOF 7
ENDMDL
MODEL 2
REMARK VINA RESULT: -6.926900304      1.184      1.318
REMARK  7 active torsions:
REMARK  status: ('A' for Active; 'I' for Inactive)
REMARK    1  A    between atoms: C5_14  and  S1_15 
REMARK    2  A    between atoms: S1_15  and  C6_16 
REMARK    3  A    between atoms: C6_16  and  C7_17 
REMARK    4  A    between atoms: C7_17  and  N6_18 
REMARK    5  A    between atoms: C7_17  and  C8_22 
REMARK    6  A    between atoms: C9_27  and  N8_28 
REMARK    7  A    between atoms: N8_28  and  N9_30 
ROOT
HETATM    1  N1  UNL     1       7.723  51.897 -48.724  1.00  0.00    -0.172 NA
HETATM    2  C1  UNL     1       8.696  51.455 -48.247  1.00  0.00     0.183 C 
HETATM    3  N2  UNL     1       9.860  50.913 -47.698  1.00  0.00    -0.278 N 
ATOM      4  H2  UNL     1       9.810  50.256 -46.919  1.00  0.00     0.179 HD
HETATM    5  C2  UNL     1      10.993  51.257 -48.191  1.00  0.00     0.133 A 
HETATM    6  N3  UNL     1      11.140  52.113 -49.211  1.00  0.00    -0.337 N 
ATOM      7  H3  UNL     1      10.306  52.522 -49.631  1.00  0.00     0.168 HD
HETATM    8  C3  UNL     1      12.347  52.454 -49.705  1.00  0.00     0.183 A 
HETATM    9  N4  UNL     1      13.481  51.948 -49.196  1.00  0.00    -0.338 N 
ATOM     10  H4  UNL     1      14.394  52.206 -49.570  1.00  0.00     0.168 HD
HETATM   11  C4  UNL     1      13.359  51.075 -48.155  1.00  0.00     0.126 A 
HETATM   12  N5  UNL     1      14.474  50.550 -47.620  1.00  0.00    -0.322 N 
ATOM     13  H5  UNL     1      15.377  50.821 -48.008  1.00  0.00     0.169 HD
HETATM   14  C5  UNL     1      14.448  49.685 -46.598  1.00  0.00     0.147 A 
HETATM   15  N7  UNL     1      13.223  49.341 -46.097  1.00  0.00    -0.321 N 
ATOM     16  H7  UNL     1      13.180  48.684 -45.318  1.00  0.00     0.169 HD
HETATM   17  C9  UNL     1      12.084  49.829 -46.587  1.00  0.00     0.139 A 
HETATM   18  C10 UNL     1      12.134  50.718 -47.639  1.00  0.00     0.098 A 
ENDROOT
BRANCH  17  19
HETATM   19  N8  UNL     1      10.936  49.481 -46.088  1.00  0.00    -0.291 N 
ATOM     20  H8  UNL     1      10.125  49.406 -46.702  1.00  0.00     0.188 HD
BRANCH  19  21
HETATM   21  N9  UNL     1      10.793  49.212 -44.741  1.00  0.00    -0.344 N 
ATOM     22  H92 UNL     1      10.887  49.982 -44.080  1.00  0.00     0.176 HD
ATOM     23  H91 UNL     1      10.598  48.267 -44.409  1.00  0.00     0.176 HD
ENDBRANCH  19  21
ENDBRANCH  17  19
BRANCH  14  24
HETATM   24  S1  UNL     1      15.920  48.999 -45.923  1.00  0.00    -0.091 SA
BRANCH  24  25
HETATM   25  C6  UNL     1      17.295  48.874 -47.035  1.00  0.00     0.126 C 
BRANCH  25  26
HETATM   26  C7  UNL     1      17.560  47.512 -47.611  1.00  0.00     0.293 C 
BRANCH  26  27
HETATM   27  N6  UNL     1      16.703  47.348 -48.785  1.00  0.00    -0.064 N 
ATOM     28  H63 UNL     1      16.067  46.556 -48.701  1.00  0.00     0.275 HD
ATOM     29  H62 UNL     1      15.998  48.081 -48.865  1.00  0.00     0.275 HD
ATOM     30  H61 UNL     1      17.306  47.287 -49.606  1.00  0.00     0.275 HD
ENDBRANCH  26  27
BRANCH  26  31
HETATM   31  C8  UNL     1      18.950  47.311 -48.027  1.00  0.00     0.205 C 
HETATM   32  O1  UNL     1      19.457  47.809 -49.066  1.00  0.00    -0.646 OA
HETATM   33  O2  UNL     1      19.785  46.529 -47.248  1.00  0.00    -0.646 OA
ENDBRANCH  26  31
ENDBRANCH  25  26
ENDBRANCH  24  25
ENDBRANCH  14  24
TORSDOF 7
ENDMDL
MODEL 3
REMARK VINA RESULT: -6.924814464      1.365      1.588
REMARK  7 active torsions:
REMARK  status: ('A' for Active; 'I' for Inactive)
REMARK    1  A    between atoms: C5_14  and  S1_15 
REMARK    2  A    between atoms: S1_15  and  C6_16 
REMARK    3  A    between atoms: C6_16  and  C7_17 
REMARK    4  A    between atoms: C7_17  and  N6_18 
REMARK    5  A    between atoms: C7_17  and  C8_22 
REMARK    6  A    between atoms: C9_27  and  N8_28 
REMARK    7  A    between atoms: N8_28  and  N9_30 
ROOT
HETATM    1  N1  UNL     1       7.719  51.979 -48.752  1.00  0.00    -0.172 NA
HETATM    2  C1  UNL     1       8.687  51.522 -48.280  1.00  0.00     0.183 C 
HETATM    3  N2  UNL     1       9.845  50.963 -47.736  1.00  0.00    -0.278 N 
ATOM      4  H2  UNL     1       9.789  50.302 -46.961  1.00  0.00     0.179 HD
HETATM    5  C2  UNL     1      10.982  51.297 -48.228  1.00  0.00     0.133 A 
HETATM    6  N3  UNL     1      11.137  52.158 -49.244  1.00  0.00    -0.337 N 
ATOM      7  H3  UNL     1      10.307  52.579 -49.659  1.00  0.00     0.168 HD
HETATM    8  C3  UNL     1      12.347  52.487 -49.738  1.00  0.00     0.183 A 
HETATM    9  N4  UNL     1      13.476  51.965 -49.233  1.00  0.00    -0.338 N 
ATOM     10  H4  UNL     1      14.391  52.214 -49.607  1.00  0.00     0.168 HD
HETATM   11  C4  UNL     1      13.346  51.087 -48.197  1.00  0.00     0.126 A 
HETATM   12  N5  UNL     1      14.455  50.546 -47.668  1.00  0.00    -0.322 N 
ATOM     13  H5  UNL     1      15.361  50.808 -48.056  1.00  0.00     0.169 HD
HETATM   14  C5  UNL     1      14.421  49.675 -46.651  1.00  0.00     0.147 A 
HETATM   15  N7  UNL     1      13.192  49.342 -46.151  1.00  0.00    -0.321 N 
ATOM     16  H7  UNL     1      13.143  48.680 -45.376  1.00  0.00     0.169 HD
HETATM   17  C9  UNL     1      12.058  49.846 -46.635  1.00  0.00     0.139 A 
HETATM   18  C10 UNL     1      12.117  50.741 -47.682  1.00  0.00     0.098 A 
ENDROOT
BRANCH  17  19
HETATM   19  N8  UNL     1      10.908  49.509 -46.136  1.00  0.00    -0.291 N 
ATOM     20  H8  UNL     1      10.091  49.466 -46.746  1.00  0.00     0.188 HD
BRANCH  19  21
HETATM   21  N9  UNL     1      10.769  49.206 -44.796  1.00  0.00    -0.344 N 
ATOM     22  H92 UNL     1      10.592  48.236 -44.535  1.00  0.00     0.176 HD
ATOM     23  H91 UNL     1      10.841  49.929 -44.080  1.00  0.00     0.176 HD
ENDBRANCH  19  21
ENDBRANCH  17  19
BRANCH  14  24
HETATM   24  S1  UNL     1      15.886  48.967 -45.983  1.00  0.00    -0.091 SA
BRANCH  24  25
HETATM   25  C6  UNL     1      17.344  49.971 -46.084  1.00  0.00     0.126 C 
BRANCH  25  26
HETATM   26  C7  UNL     1      18.054  49.977 -47.407  1.00  0.00     0.293 C 
BRANCH  26  27
HETATM   27  N6  UNL     1      17.512  48.883 -48.211  1.00  0.00    -0.064 N 
ATOM     28  H63 UNL     1      16.674  48.469 -47.802  1.00  0.00     0.275 HD
ATOM     29  H62 UNL     1      17.092  49.205 -49.084  1.00  0.00     0.275 HD
ATOM     30  H61 UNL     1      18.258  48.203 -48.358  1.00  0.00     0.275 HD
ENDBRANCH  26  27
BRANCH  26  31
HETATM   31  C8  UNL     1      17.887  51.224 -48.157  1.00  0.00     0.205 C 
HETATM   32  O1  UNL     1      18.657  52.215 -48.062  1.00  0.00    -0.646 OA
HETATM   33  O2  UNL     1      16.824  51.352 -49.035  1.00  0.00    -0.646 OA
ENDBRANCH  26  31
ENDBRANCH  25  26
ENDBRANCH  24  25
ENDBRANCH  14  24
TORSDOF 7
ENDMDL
MODEL 4
REMARK VINA RESULT: -6.819169484      2.914      4.021
REMARK  7 active torsions:
REMARK  status: ('A' for Active; 'I' for Inactive)
REMARK    1  A    between atoms: C5_14  and  S1_15 
REMARK    2  A    between atoms: S1_15  and  C6_16 
REMARK    3  A    between atoms: C6_16  and  C7_17 
REMARK    4  A    between atoms: C7_17  and  N6_18 
REMARK    5  A    between atoms: C7_17  and  C8_22 
REMARK    6  A    between atoms: C9_27  and  N8_28 
REMARK    7  A    between atoms: N8_28  and  N9_30 
ROOT
HETATM    1  N1  UNL     1       9.078  50.916 -47.627  1.00  0.00    -0.172 NA
HETATM    2  C1  UNL     1      10.085  50.479 -48.033  1.00  0.00     0.183 C 
HETATM    3  N2  UNL     1      11.296  49.978 -48.514  1.00  0.00    -0.278 N 
ATOM      4  H2  UNL     1      11.424  49.791 -49.508  1.00  0.00     0.179 HD
HETATM    5  C2  UNL     1      12.247  49.758 -47.681  1.00  0.00     0.133 A 
HETATM    6  N3  UNL     1      12.157  49.978 -46.362  1.00  0.00    -0.337 N 
ATOM      7  H3  UNL     1      11.283  50.345 -45.985  1.00  0.00     0.168 HD
HETATM    8  C3  UNL     1      13.176  49.736 -45.514  1.00  0.00     0.183 A 
HETATM    9  N4  UNL     1      14.351  49.254 -45.949  1.00  0.00    -0.338 N 
ATOM     10  H4  UNL     1      15.121  49.072 -45.307  1.00  0.00     0.168 HD
HETATM   11  C4  UNL     1      14.469  49.021 -47.288  1.00  0.00     0.126 A 
HETATM   12  N5  UNL     1      15.630  48.538 -47.758  1.00  0.00    -0.322 N 
ATOM     13  H5  UNL     1      16.389  48.361 -47.100  1.00  0.00     0.169 HD
HETATM   14  C5  UNL     1      15.834  48.280 -49.056  1.00  0.00     0.147 A 
HETATM   15  N7  UNL     1      14.799  48.526 -49.915  1.00  0.00    -0.321 N 
ATOM     16  H7  UNL     1      14.932  48.336 -50.909  1.00  0.00     0.169 HD
HETATM   17  C9  UNL     1      13.624  49.004 -49.507  1.00  0.00     0.139 A 
HETATM   18  C10 UNL     1      13.437  49.263 -48.167  1.00  0.00     0.098 A 
ENDROOT
BRANCH  17  19
HETATM   19  N8  UNL     1      12.661  49.226 -50.350  1.00  0.00    -0.291 N 
ATOM     20  H8  UNL     1      11.876  49.814 -50.070  1.00  0.00     0.188 HD
BRANCH  19  21
HETATM   21  N9  UNL     1      12.680  48.682 -51.619  1.00  0.00    -0.344 N 
ATOM     22  H92 UNL     1      13.579  48.409 -52.015  1.00  0.00     0.176 HD
ATOM     23  H91 UNL     1      11.821  48.553 -52.152  1.00  0.00     0.176 HD
ENDBRANCH  19  21
ENDBRANCH  17  19
BRANCH  14  24
HETATM   24  S1  UNL     1      17.369  47.662 -49.652  1.00  0.00    -0.091 SA
BRANCH  24  25
HETATM   25  C6  UNL     1      17.380  47.119 -51.339  1.00  0.00     0.126 C 
BRANCH  25  26
HETATM   26  C7  UNL     1      17.700  48.163 -52.370  1.00  0.00     0.293 C 
BRANCH  26  27
HETATM   27  N6  UNL     1      18.749  47.629 -53.237  1.00  0.00    -0.064 N 
ATOM     28  H63 UNL     1      18.486  47.629 -54.223  1.00  0.00     0.275 HD
ATOM     29  H62 UNL     1      19.554  48.250 -53.312  1.00  0.00     0.275 HD
ATOM     30  H61 UNL     1      18.996  46.700 -52.894  1.00  0.00     0.275 HD
ENDBRANCH  26  27
BRANCH  26  31
HETATM   31  C8  UNL     1      16.556  48.530 -53.208  1.00  0.00     0.205 C 
HETATM   32  O1  UNL     1      16.460  48.259 -54.433  1.00  0.00    -0.646 OA
HETATM   33  O2  UNL     1      15.496  49.220 -52.645  1.00  0.00    -0.646 OA
ENDBRANCH  26  31
ENDBRANCH  25  26
ENDBRANCH  24  25
ENDBRANCH  14  24
TORSDOF 7
ENDMDL
MODEL 5
REMARK VINA RESULT: -6.813357912      4.988      5.818
REMARK  7 active torsions:
REMARK  status: ('A' for Active; 'I' for Inactive)
REMARK    1  A    between atoms: C5_14  and  S1_15 
REMARK    2  A    between atoms: S1_15  and  C6_16 
REMARK    3  A    between atoms: C6_16  and  C7_17 
REMARK    4  A    between atoms: C7_17  and  N6_18 
REMARK    5  A    between atoms: C7_17  and  C8_22 
REMARK    6  A    between atoms: C9_27  and  N8_28 
REMARK    7  A    between atoms: N8_28  and  N9_30 
ROOT
HETATM    1  N1  UNL     1      10.206  52.751 -48.050  1.00  0.00    -0.172 NA
HETATM    2  C1  UNL     1      10.939  52.070 -48.657  1.00  0.00     0.183 C 
HETATM    3  N2  UNL     1      11.798  51.258 -49.400  1.00  0.00    -0.278 N 
ATOM      4  H2  UNL     1      11.920  50.274 -49.161  1.00  0.00     0.179 HD
HETATM    5  C2  UNL     1      12.432  51.772 -50.390  1.00  0.00     0.133 A 
HETATM    6  N3  UNL     1      12.324  53.054 -50.766  1.00  0.00    -0.337 N 
ATOM      7  H3  UNL     1      11.703  53.668 -50.241  1.00  0.00     0.168 HD
HETATM    8  C3  UNL     1      13.005  53.563 -51.812  1.00  0.00     0.183 A 
HETATM    9  N4  UNL     1      13.837  52.805 -52.543  1.00  0.00    -0.338 N 
ATOM     10  H4  UNL     1      14.351  53.190 -53.335  1.00  0.00     0.168 HD
HETATM   11  C4  UNL     1      13.965  51.496 -52.181  1.00  0.00     0.126 A 
HETATM   12  N5  UNL     1      14.790  50.709 -52.889  1.00  0.00    -0.322 N 
ATOM     13  H5  UNL     1      15.296  51.113 -53.677  1.00  0.00     0.169 HD
HETATM   14  C5  UNL     1      14.976  49.414 -52.605  1.00  0.00     0.147 A 
HETATM   15  N7  UNL     1      14.285  48.898 -51.543  1.00  0.00    -0.321 N 
ATOM     16  H7  UNL     1      14.412  47.914 -51.308  1.00  0.00     0.169 HD
HETATM   17  C9  UNL     1      13.454  49.631 -50.803  1.00  0.00     0.139 A 
HETATM   18  C10 UNL     1      13.278  50.962 -51.114  1.00  0.00     0.098 A 
ENDROOT
BRANCH  17  19
HETATM   19  N8  UNL     1      12.813  49.110 -49.801  1.00  0.00    -0.291 N 
ATOM     20  H8  UNL     1      11.979  49.576 -49.443  1.00  0.00     0.188 HD
BRANCH  19  21
HETATM   21  N9  UNL     1      13.239  47.938 -49.209  1.00  0.00    -0.344 N 
ATOM     22  H92 UNL     1      12.579  47.165 -49.136  1.00  0.00     0.176 HD
ATOM     23  H91 UNL     1      14.189  47.840 -48.852  1.00  0.00     0.176 HD
ENDBRANCH  19  21
ENDBRANCH  17  19
BRANCH  14  24
HETATM   24  S1  UNL     1      16.051  48.397 -53.556  1.00  0.00    -0.091 SA
BRANCH  24  25
HETATM   25  C6  UNL     1      16.704  49.132 -55.032  1.00  0.00     0.126 C 
BRANCH  25  26
HETATM   26  C7  UNL     1      16.394  48.422 -56.318  1.00  0.00     0.293 C 
BRANCH  26  27
HETATM   27  N6  UNL     1      14.941  48.321 -56.436  1.00  0.00    -0.064 N 
ATOM     28  H63 UNL     1      14.449  48.820 -55.695  1.00  0.00     0.275 HD
ATOM     29  H62 UNL     1      14.570  48.850 -57.225  1.00  0.00     0.275 HD
ATOM     30  H61 UNL     1      14.698  47.331 -56.475  1.00  0.00     0.275 HD
ENDBRANCH  26  27
BRANCH  26  31
HETATM   31  C8  UNL     1      16.904  49.112 -57.506  1.00  0.00     0.205 C 
HETATM   32  O1  UNL     1      18.107  49.439 -57.672  1.00  0.00    -0.646 OA
HETATM   33  O2  UNL     1      16.030  49.438 -58.529  1.00  0.00    -0.646 OA
ENDBRANCH  26  31
ENDBRANCH  25  26
ENDBRANCH  24  25
ENDBRANCH  14  24
TORSDOF 7
ENDMDL
