MODEL 1
REMARK VINA RESULT: -8.540986031      0.000      0.000
REMARK  5 active torsions:
REMARK  status: ('A' for Active; 'I' for Inactive)
REMARK    1  A    between atoms: N1_1  and  C1_4 
REMARK    2  A    between atoms: C2_9  and  N4_10 
REMARK    3  A    between atoms: C4_14  and  C5_15 
REMARK    4  A    between atoms: C5_15  and  N5_16 
REMARK    5  A    between atoms: C6_20  and  C7_21 
REMARK       I    between atoms: C7_21  and  N8_23 
ROOT
HETATM    1  C5  UNL     1      15.250  50.992 -51.972  1.00  0.00     0.131 C 
ENDROOT
BRANCH   1   2
HETATM    2  C4  UNL     1      14.021  51.684 -51.645  1.00  0.00     0.030 A 
HETATM    3  C1  UNL     1      13.091  51.334 -50.702  1.00  0.00     0.125 A 
HETATM    4  N2  UNL     1      11.975  52.103 -50.521  1.00  0.00    -0.283 N 
HETATM    5  N3  UNL     1      11.743  53.181 -51.215  1.00  0.00    -0.279 N 
ATOM      6  H2  UNL     1      11.296  51.821 -49.814  1.00  0.00     0.188 HD
HETATM    7  C2  UNL     1      12.608  53.585 -52.156  1.00  0.00     0.189 A 
ATOM      8  H3  UNL     1      10.896  53.722 -51.042  1.00  0.00     0.189 HD
HETATM    9  C3  UNL     1      13.755  52.843 -52.379  1.00  0.00     0.073 A 
BRANCH   3  10
HETATM   10  N1  UNL     1      13.243  50.300 -49.983  1.00  0.00    -0.384 N 
ATOM     11  H12 UNL     1      12.477  49.934 -49.417  1.00  0.00     0.157 HD
ATOM     12  H11 UNL     1      14.149  49.833 -49.979  1.00  0.00     0.157 HD
ENDBRANCH   3  10
BRANCH   7  13
HETATM   13  N4  UNL     1      12.324  54.766 -52.895  1.00  0.00    -0.097 N 
HETATM   14  O1  UNL     1      11.610  54.707 -53.916  1.00  0.00    -0.530 OA
HETATM   15  O2  UNL     1      12.841  55.952 -52.467  1.00  0.00    -0.530 OA
ENDBRANCH   7  13
ENDBRANCH   1   2
BRANCH   1  16
HETATM   16  N5  UNL     1      15.223  49.903 -52.878  1.00  0.00    -0.234 N 
HETATM   17  N6  UNL     1      14.634  48.726 -52.731  1.00  0.00    -0.014 NA
HETATM   18  N7  UNL     1      14.857  47.963 -53.788  1.00  0.00    -0.276 N 
HETATM   19  C6  UNL     1      15.613  48.672 -54.641  1.00  0.00     0.157 A 
ATOM     20  H7  UNL     1      14.518  47.012 -53.928  1.00  0.00     0.184 HD
HETATM   21  C9  UNL     1      15.848  49.900 -54.070  1.00  0.00     0.169 A 
HETATM   22  N11 UNL     1      16.619  50.976 -54.648  1.00  0.00    -0.078 NA
BRANCH  19  23
HETATM   23  C7  UNL     1      16.127  48.278 -55.944  1.00  0.00     0.278 C 
HETATM   24  O3  UNL     1      16.937  47.341 -56.109  1.00  0.00    -0.265 OA
HETATM   25  N8  UNL     1      15.698  48.983 -57.101  1.00  0.00    -0.298 N 
HETATM   26  C8  UNL     1      16.594  49.538 -57.844  1.00  0.00     0.203 C 
ATOM     27  H8  UNL     1      14.708  49.048 -57.338  1.00  0.00     0.171 HD
HETATM   28  N9  UNL     1      16.115  50.235 -58.993  1.00  0.00    -0.066 NA
HETATM   29  N10 UNL     1      17.973  49.456 -57.526  1.00  0.00    -0.066 NA
ENDBRANCH  19  23
ENDBRANCH   1  16
TORSDOF 5
ENDMDL
MODEL 2
REMARK VINA RESULT: -8.231012938      1.592      2.123
REMARK  5 active torsions:
REMARK  status: ('A' for Active; 'I' for Inactive)
REMARK    1  A    between atoms: N1_1  and  C1_4 
REMARK    2  A    between atoms: C2_9  and  N4_10 
REMARK    3  A    between atoms: C4_14  and  C5_15 
REMARK    4  A    between atoms: C5_15  and  N5_16 
REMARK    5  A    between atoms: C6_20  and  C7_21 
REMARK       I    between atoms: C7_21  and  N8_23 
ROOT
HETATM    1  C5  UNL     1      14.832  48.369 -51.474  1.00  0.00     0.131 C 
ENDROOT
BRANCH   1   2
HETATM    2  C4  UNL     1      13.915  49.250 -50.784  1.00  0.00     0.030 A 
HETATM    3  C1  UNL     1      13.170  48.972 -49.667  1.00  0.00     0.125 A 
HETATM    4  N2  UNL     1      12.344  49.926 -49.140  1.00  0.00    -0.283 N 
HETATM    5  N3  UNL     1      12.225  51.117 -49.655  1.00  0.00    -0.279 N 
ATOM      6  H2  UNL     1      11.799  49.695 -48.309  1.00  0.00     0.188 HD
HETATM    7  C2  UNL     1      12.922  51.460 -50.747  1.00  0.00     0.189 A 
ATOM      8  H3  UNL     1      11.596  51.794 -49.223  1.00  0.00     0.189 HD
HETATM    9  C3  UNL     1      13.774  50.533 -51.321  1.00  0.00     0.073 A 
BRANCH   3  10
HETATM   10  N1  UNL     1      13.230  47.837 -49.105  1.00  0.00    -0.384 N 
ATOM     11  H12 UNL     1      13.975  47.615 -48.443  1.00  0.00     0.157 HD
ATOM     12  H11 UNL     1      12.517  47.142 -49.323  1.00  0.00     0.157 HD
ENDBRANCH   3  10
BRANCH   7  13
HETATM   13  N4  UNL     1      12.767  52.768 -51.282  1.00  0.00    -0.097 N 
HETATM   14  O1  UNL     1      13.621  53.646 -51.041  1.00  0.00    -0.530 OA
HETATM   15  O2  UNL     1      11.681  53.039 -52.057  1.00  0.00    -0.530 OA
ENDBRANCH   7  13
ENDBRANCH   1   2
BRANCH   1  16
HETATM   16  N5  UNL     1      14.760  48.244 -52.884  1.00  0.00    -0.234 N 
HETATM   17  N6  UNL     1      13.694  48.012 -53.635  1.00  0.00    -0.014 NA
HETATM   18  N7  UNL     1      14.036  47.938 -54.911  1.00  0.00    -0.276 N 
HETATM   19  C6  UNL     1      15.362  48.130 -54.982  1.00  0.00     0.157 A 
ATOM     20  H7  UNL     1      13.407  47.767 -55.695  1.00  0.00     0.184 HD
HETATM   21  C9  UNL     1      15.825  48.324 -53.702  1.00  0.00     0.169 A 
HETATM   22  N11 UNL     1      17.197  48.567 -53.320  1.00  0.00    -0.078 NA
BRANCH  19  23
HETATM   23  C7  UNL     1      16.218  48.142 -56.159  1.00  0.00     0.278 C 
HETATM   24  O3  UNL     1      17.326  47.567 -56.209  1.00  0.00    -0.265 OA
HETATM   25  N8  UNL     1      15.790  48.838 -57.321  1.00  0.00    -0.298 N 
HETATM   26  C8  UNL     1      16.548  49.770 -57.788  1.00  0.00     0.203 C 
ATOM     27  H8  UNL     1      14.906  48.606 -57.775  1.00  0.00     0.171 HD
HETATM   28  N9  UNL     1      16.076  50.440 -58.956  1.00  0.00    -0.066 NA
HETATM   29  N10 UNL     1      17.779  50.103 -57.168  1.00  0.00    -0.066 NA
ENDBRANCH  19  23
ENDBRANCH   1  16
TORSDOF 5
ENDMDL
MODEL 3
REMARK VINA RESULT: -8.110298660      1.167      1.790
REMARK  5 active torsions:
REMARK  status: ('A' for Active; 'I' for Inactive)
REMARK    1  A    between atoms: N1_1  and  C1_4 
REMARK    2  A    between atoms: C2_9  and  N4_10 
REMARK    3  A    between atoms: C4_14  and  C5_15 
REMARK    4  A    between atoms: C5_15  and  N5_16 
REMARK    5  A    between atoms: C6_20  and  C7_21 
REMARK       I    between atoms: C7_21  and  N8_23 
ROOT
HETATM    1  C5  UNL     1      13.666  48.903 -51.725  1.00  0.00     0.131 C 
ENDROOT
BRANCH   1   2
HETATM    2  C4  UNL     1      13.156  50.089 -51.070  1.00  0.00     0.030 A 
HETATM    3  C1  UNL     1      12.702  50.203 -49.782  1.00  0.00     0.125 A 
HETATM    4  N2  UNL     1      12.249  51.407 -49.319  1.00  0.00    -0.283 N 
HETATM    5  N3  UNL     1      12.224  52.481 -50.056  1.00  0.00    -0.279 N 
ATOM      6  H2  UNL     1      11.915  51.466 -48.356  1.00  0.00     0.188 HD
HETATM    7  C2  UNL     1      12.652  52.446 -51.325  1.00  0.00     0.189 A 
ATOM      8  H3  UNL     1      11.878  53.356 -49.663  1.00  0.00     0.189 HD
HETATM    9  C3  UNL     1      13.123  51.252 -51.845  1.00  0.00     0.073 A 
BRANCH   3  10
HETATM   10  N1  UNL     1      12.694  49.205 -48.999  1.00  0.00    -0.384 N 
ATOM     11  H12 UNL     1      13.484  48.560 -48.959  1.00  0.00     0.157 HD
ATOM     12  H11 UNL     1      11.880  49.054 -48.404  1.00  0.00     0.157 HD
ENDBRANCH   3  10
BRANCH   7  13
HETATM   13  N4  UNL     1      12.612  53.637 -52.101  1.00  0.00    -0.097 N 
HETATM   14  O1  UNL     1      13.359  54.594 -51.814  1.00  0.00    -0.530 OA
HETATM   15  O2  UNL     1      11.751  53.708 -53.154  1.00  0.00    -0.530 OA
ENDBRANCH   7  13
ENDBRANCH   1   2
BRANCH   1  16
HETATM   16  N5  UNL     1      14.737  49.015 -52.647  1.00  0.00    -0.234 N 
HETATM   17  N6  UNL     1      15.862  49.701 -52.520  1.00  0.00    -0.014 NA
HETATM   18  N7  UNL     1      16.603  49.578 -53.609  1.00  0.00    -0.276 N 
HETATM   19  C6  UNL     1      15.933  48.787 -54.462  1.00  0.00     0.157 A 
ATOM     20  H7  UNL     1      17.514  50.005 -53.771  1.00  0.00     0.184 HD
HETATM   21  C9  UNL     1      14.750  48.429 -53.858  1.00  0.00     0.169 A 
HETATM   22  N11 UNL     1      13.726  47.582 -54.425  1.00  0.00    -0.078 NA
BRANCH  19  23
HETATM   23  C7  UNL     1      16.321  48.350 -55.794  1.00  0.00     0.278 C 
HETATM   24  O3  UNL     1      17.102  47.397 -56.005  1.00  0.00    -0.265 OA
HETATM   25  N8  UNL     1      15.796  49.028 -56.928  1.00  0.00    -0.298 N 
HETATM   26  C8  UNL     1      16.626  49.550 -57.764  1.00  0.00     0.203 C 
ATOM     27  H8  UNL     1      14.789  49.099 -57.075  1.00  0.00     0.171 HD
HETATM   28  N9  UNL     1      16.052  50.220 -58.886  1.00  0.00    -0.066 NA
HETATM   29  N10 UNL     1      18.028  49.458 -57.572  1.00  0.00    -0.066 NA
ENDBRANCH  19  23
ENDBRANCH   1  16
TORSDOF 5
ENDMDL
MODEL 4
REMARK VINA RESULT: -8.107838645      4.675      6.804
REMARK  5 active torsions:
REMARK  status: ('A' for Active; 'I' for Inactive)
REMARK    1  A    between atoms: N1_1  and  C1_4 
REMARK    2  A    between atoms: C2_9  and  N4_10 
REMARK    3  A    between atoms: C4_14  and  C5_15 
REMARK    4  A    between atoms: C5_15  and  N5_16 
REMARK    5  A    between atoms: C6_20  and  C7_21 
REMARK       I    between atoms: C7_21  and  N8_23 
ROOT
HETATM    1  C5  UNL     1      17.624  48.327 -55.487  1.00  0.00     0.131 C 
ENDROOT
BRANCH   1   2
HETATM    2  C4  UNL     1      18.615  48.245 -54.436  1.00  0.00     0.030 A 
HETATM    3  C1  UNL     1      19.968  48.441 -54.546  1.00  0.00     0.125 A 
HETATM    4  N2  UNL     1      20.769  48.321 -53.444  1.00  0.00    -0.283 N 
HETATM    5  N3  UNL     1      20.304  48.023 -52.264  1.00  0.00    -0.279 N 
ATOM      6  H2  UNL     1      21.772  48.471 -53.551  1.00  0.00     0.188 HD
HETATM    7  C2  UNL     1      18.992  47.817 -52.081  1.00  0.00     0.189 A 
ATOM      8  H3  UNL     1      20.943  47.947 -51.473  1.00  0.00     0.189 HD
HETATM    9  C3  UNL     1      18.135  47.926 -53.162  1.00  0.00     0.073 A 
BRANCH   3  10
HETATM   10  N1  UNL     1      20.499  48.735 -55.659  1.00  0.00    -0.384 N 
ATOM     11  H12 UNL     1      21.500  48.922 -55.733  1.00  0.00     0.157 HD
ATOM     12  H11 UNL     1      19.908  48.783 -56.488  1.00  0.00     0.157 HD
ENDBRANCH   3  10
BRANCH   7  13
HETATM   13  N4  UNL     1      18.519  47.494 -50.779  1.00  0.00    -0.097 N 
HETATM   14  O1  UNL     1      19.221  47.747 -49.780  1.00  0.00    -0.530 OA
HETATM   15  O2  UNL     1      17.295  46.910 -50.650  1.00  0.00    -0.530 OA
ENDBRANCH   7  13
ENDBRANCH   1   2
BRANCH   1  16
HETATM   16  N5  UNL     1      17.100  49.590 -55.861  1.00  0.00    -0.234 N 
HETATM   17  N6  UNL     1      16.976  50.681 -55.121  1.00  0.00    -0.014 NA
HETATM   18  N7  UNL     1      16.416  51.653 -55.821  1.00  0.00    -0.276 N 
HETATM   19  C6  UNL     1      16.174  51.172 -57.051  1.00  0.00     0.157 A 
ATOM     20  H7  UNL     1      16.207  52.594 -55.489  1.00  0.00     0.184 HD
HETATM   21  C9  UNL     1      16.604  49.867 -57.081  1.00  0.00     0.169 A 
HETATM   22  N11 UNL     1      16.533  48.972 -58.213  1.00  0.00    -0.078 NA
BRANCH  19  23
HETATM   23  C7  UNL     1      15.569  51.848 -58.189  1.00  0.00     0.278 C 
HETATM   24  O3  UNL     1      14.401  52.292 -58.184  1.00  0.00    -0.265 OA
HETATM   25  N8  UNL     1      16.329  52.021 -59.377  1.00  0.00    -0.298 N 
HETATM   26  C8  UNL     1      15.860  51.538 -60.477  1.00  0.00     0.203 C 
ATOM     27  H8  UNL     1      17.222  52.513 -59.361  1.00  0.00     0.171 HD
HETATM   28  N9  UNL     1      16.658  51.736 -61.643  1.00  0.00    -0.066 NA
HETATM   29  N10 UNL     1      14.620  50.851 -60.514  1.00  0.00    -0.066 NA
ENDBRANCH  19  23
ENDBRANCH   1  16
TORSDOF 5
ENDMDL
MODEL 5
REMARK VINA RESULT: -8.091214197      3.808      5.070
REMARK  5 active torsions:
REMARK  status: ('A' for Active; 'I' for Inactive)
REMARK    1  A    between atoms: N1_1  and  C1_4 
REMARK    2  A    between atoms: C2_9  and  N4_10 
REMARK    3  A    between atoms: C4_14  and  C5_15 
REMARK    4  A    between atoms: C5_15  and  N5_16 
REMARK    5  A    between atoms: C6_20  and  C7_21 
REMARK       I    between atoms: C7_21  and  N8_23 
ROOT
HETATM    1  C5  UNL     1      15.236  49.646 -51.471  1.00  0.00     0.131 C 
ENDROOT
BRANCH   1   2
HETATM    2  C4  UNL     1      15.132  48.840 -50.274  1.00  0.00     0.030 A 
HETATM    3  C1  UNL     1      13.990  48.366 -49.683  1.00  0.00     0.125 A 
HETATM    4  N2  UNL     1      14.069  47.614 -48.543  1.00  0.00    -0.283 N 
HETATM    5  N3  UNL     1      15.203  47.316 -47.974  1.00  0.00    -0.279 N 
ATOM      6  H2  UNL     1      13.205  47.273 -48.121  1.00  0.00     0.188 HD
HETATM    7  C2  UNL     1      16.360  47.746 -48.494  1.00  0.00     0.189 A 
ATOM      8  H3  UNL     1      15.209  46.751 -47.124  1.00  0.00     0.189 HD
HETATM    9  C3  UNL     1      16.338  48.510 -49.648  1.00  0.00     0.073 A 
BRANCH   3  10
HETATM   10  N1  UNL     1      12.847  48.610 -50.175  1.00  0.00    -0.384 N 
ATOM     11  H12 UNL     1      12.614  49.536 -50.534  1.00  0.00     0.157 HD
ATOM     12  H11 UNL     1      12.156  47.860 -50.209  1.00  0.00     0.157 HD
ENDBRANCH   3  10
BRANCH   7  13
HETATM   13  N4  UNL     1      17.579  47.402 -47.847  1.00  0.00    -0.097 N 
HETATM   14  O1  UNL     1      18.670  47.702 -48.372  1.00  0.00    -0.530 OA
HETATM   15  O2  UNL     1      17.529  46.746 -46.654  1.00  0.00    -0.530 OA
ENDBRANCH   7  13
ENDBRANCH   1   2
BRANCH   1  16
HETATM   16  N5  UNL     1      15.038  49.047 -52.741  1.00  0.00    -0.234 N 
HETATM   17  N6  UNL     1      13.973  48.399 -53.186  1.00  0.00    -0.014 NA
HETATM   18  N7  UNL     1      14.181  47.963 -54.418  1.00  0.00    -0.276 N 
HETATM   19  C6  UNL     1      15.417  48.344 -54.775  1.00  0.00     0.157 A 
ATOM     20  H7  UNL     1      13.522  47.434 -54.990  1.00  0.00     0.184 HD
HETATM   21  C9  UNL     1      15.965  49.030 -53.716  1.00  0.00     0.169 A 
HETATM   22  N11 UNL     1      17.284  49.617 -53.672  1.00  0.00    -0.078 NA
BRANCH  19  23
HETATM   23  C7  UNL     1      16.115  48.108 -56.030  1.00  0.00     0.278 C 
HETATM   24  O3  UNL     1      17.055  47.294 -56.151  1.00  0.00    -0.265 OA
HETATM   25  N8  UNL     1      15.723  48.831 -57.189  1.00  0.00    -0.298 N 
HETATM   26  C8  UNL     1      16.611  49.544 -57.792  1.00  0.00     0.203 C 
ATOM     27  H8  UNL     1      14.764  48.787 -57.534  1.00  0.00     0.171 HD
HETATM   28  N9  UNL     1      16.169  50.251 -58.950  1.00  0.00    -0.066 NA
HETATM   29  N10 UNL     1      17.947  49.614 -57.324  1.00  0.00    -0.066 NA
ENDBRANCH  19  23
ENDBRANCH   1  16
TORSDOF 5
ENDMDL
