MODEL 1
REMARK VINA RESULT: -7.196743908      0.000      0.000
REMARK  7 active torsions:
REMARK  status: ('A' for Active; 'I' for Inactive)
REMARK    1  A    between atoms: N1_1  and  C1_4 
REMARK    2  A    between atoms: C1_4  and  C2_6 
REMARK    3  A    between atoms: C3_11  and  S1_12 
REMARK    4  A    between atoms: S1_12  and  N5_15 
REMARK    5  A    between atoms: N5_15  and  N6_17 
REMARK    6  A    between atoms: N6_17  and  C4_19 
REMARK    7  A    between atoms: N8_25  and  N9_26 
ROOT
HETATM    1  S1  UNL     1      13.419  47.751 -53.105  1.00  0.00     0.300 S 
HETATM    2  O1  UNL     1      12.144  48.540 -53.244  1.00  0.00    -0.197 OA
HETATM    3  O2  UNL     1      13.074  46.288 -53.146  1.00  0.00    -0.197 OA
ENDROOT
BRANCH   1   4
HETATM    4  C3  UNL     1      14.449  48.186 -54.462  1.00  0.00     0.209 A 
HETATM    5  N4  UNL     1      14.255  48.004 -55.762  1.00  0.00    -0.282 N 
HETATM    6  N3  UNL     1      15.122  48.390 -56.595  1.00  0.00    -0.289 N 
ATOM      7  H4  UNL     1      13.403  47.550 -56.090  1.00  0.00     0.188 HD
HETATM    8  C2  UNL     1      16.232  48.982 -56.170  1.00  0.00     0.132 A 
ATOM      9  H3  UNL     1      14.969  48.247 -57.594  1.00  0.00     0.188 HD
HETATM   10  S2  UNL     1      15.990  48.967 -54.480  1.00  0.00    -0.035 SA
BRANCH   8  11
HETATM   11  C1  UNL     1      17.323  49.483 -56.993  1.00  0.00     0.145 C 
HETATM   12  N2  UNL     1      17.015  49.993 -58.277  1.00  0.00    -0.080 NA
BRANCH  11  13
HETATM   13  N1  UNL     1      18.540  49.473 -56.589  1.00  0.00    -0.385 N 
ATOM     14  H12 UNL     1      19.208  50.191 -56.868  1.00  0.00     0.157 HD
ATOM     15  H11 UNL     1      18.860  48.728 -55.969  1.00  0.00     0.157 HD
ENDBRANCH  11  13
ENDBRANCH   8  11
ENDBRANCH   1   4
BRANCH   1  16
HETATM   16  N5  UNL     1      14.143  48.173 -51.608  1.00  0.00    -0.207 N 
ATOM     17  H5  UNL     1      15.151  48.246 -51.473  1.00  0.00     0.201 HD
BRANCH  16  18
HETATM   18  N6  UNL     1      13.217  48.405 -50.601  1.00  0.00    -0.121 N 
ATOM     19  H6  UNL     1      12.707  47.632 -50.173  1.00  0.00     0.206 HD
BRANCH  18  20
HETATM   20  C4  UNL     1      12.995  49.747 -50.178  1.00  0.00     0.709 C 
HETATM   21  N7  UNL     1      12.967  50.738 -51.004  1.00  0.00    -0.223 N 
HETATM   22  C5  UNL     1      12.736  52.057 -50.482  1.00  0.00     0.140 C 
ATOM     23  H7  UNL     1      13.104  50.589 -52.003  1.00  0.00     0.177 HD
HETATM   24  C6  UNL     1      13.434  52.321 -49.177  1.00  0.00     0.042 C 
HETATM   25  C7  UNL     1      13.192  51.253 -48.154  1.00  0.00     0.169 C 
HETATM   26  N8  UNL     1      12.800  49.989 -48.794  1.00  0.00    -0.129 N 
BRANCH  26  27
HETATM   27  N9  UNL     1      12.206  48.959 -48.040  1.00  0.00    -0.329 N 
ATOM     28  H92 UNL     1      12.719  48.513 -47.279  1.00  0.00     0.177 HD
ATOM     29  H91 UNL     1      11.255  48.689 -48.289  1.00  0.00     0.177 HD
ENDBRANCH  26  27
ENDBRANCH  18  20
ENDBRANCH  16  18
ENDBRANCH   1  16
TORSDOF 7
ENDMDL
MODEL 2
REMARK VINA RESULT: -7.159560703      4.104      7.969
REMARK  7 active torsions:
REMARK  status: ('A' for Active; 'I' for Inactive)
REMARK    1  A    between atoms: N1_1  and  C1_4 
REMARK    2  A    between atoms: C1_4  and  C2_6 
REMARK    3  A    between atoms: C3_11  and  S1_12 
REMARK    4  A    between atoms: S1_12  and  N5_15 
REMARK    5  A    between atoms: N5_15  and  N6_17 
REMARK    6  A    between atoms: N6_17  and  C4_19 
REMARK    7  A    between atoms: N8_25  and  N9_26 
ROOT
HETATM    1  S1  UNL     1      13.564  49.526 -48.038  1.00  0.00     0.300 S 
HETATM    2  O1  UNL     1      14.259  50.826 -48.350  1.00  0.00    -0.197 OA
HETATM    3  O2  UNL     1      14.105  49.004 -46.737  1.00  0.00    -0.197 OA
ENDROOT
BRANCH   1   4
HETATM    4  C3  UNL     1      11.846  49.876 -47.903  1.00  0.00     0.209 A 
HETATM    5  N4  UNL     1      10.871  49.138 -47.388  1.00  0.00    -0.282 N 
HETATM    6  N3  UNL     1       9.684  49.565 -47.382  1.00  0.00    -0.289 N 
ATOM      7  H4  UNL     1      11.082  48.220 -46.996  1.00  0.00     0.188 HD
HETATM    8  C2  UNL     1       9.407  50.760 -47.893  1.00  0.00     0.132 A 
ATOM      9  H3  UNL     1       8.937  48.994 -46.986  1.00  0.00     0.188 HD
HETATM   10  S2  UNL     1      10.955  51.270 -48.401  1.00  0.00    -0.035 SA
BRANCH   8  11
HETATM   11  C1  UNL     1       8.099  51.396 -47.964  1.00  0.00     0.145 C 
HETATM   12  N2  UNL     1       7.836  52.270 -49.045  1.00  0.00    -0.080 NA
BRANCH  11  13
HETATM   13  N1  UNL     1       7.193  51.187 -47.081  1.00  0.00    -0.385 N 
ATOM     14  H12 UNL     1       6.581  50.372 -47.118  1.00  0.00     0.157 HD
ATOM     15  H11 UNL     1       7.072  51.849 -46.315  1.00  0.00     0.157 HD
ENDBRANCH  11  13
ENDBRANCH   8  11
ENDBRANCH   1   4
BRANCH   1  16
HETATM   16  N5  UNL     1      13.882  48.434 -49.322  1.00  0.00    -0.207 N 
ATOM     17  H5  UNL     1      14.685  47.805 -49.338  1.00  0.00     0.201 HD
BRANCH  16  18
HETATM   18  N6  UNL     1      12.937  48.494 -50.336  1.00  0.00    -0.121 N 
ATOM     19  H6  UNL     1      11.940  48.487 -50.121  1.00  0.00     0.206 HD
BRANCH  18  20
HETATM   20  C4  UNL     1      13.391  48.567 -51.685  1.00  0.00     0.709 C 
HETATM   21  N7  UNL     1      13.238  47.596 -52.520  1.00  0.00    -0.223 N 
HETATM   22  C5  UNL     1      13.729  47.762 -53.860  1.00  0.00     0.140 C 
ATOM     23  H7  UNL     1      12.778  46.730 -52.236  1.00  0.00     0.177 HD
HETATM   24  C6  UNL     1      15.048  48.479 -53.936  1.00  0.00     0.042 C 
HETATM   25  C7  UNL     1      15.066  49.761 -53.159  1.00  0.00     0.169 C 
HETATM   26  N8  UNL     1      14.033  49.757 -52.112  1.00  0.00    -0.129 N 
BRANCH  26  27
HETATM   27  N9  UNL     1      13.643  50.957 -51.488  1.00  0.00    -0.329 N 
ATOM     28  H92 UNL     1      14.042  51.227 -50.589  1.00  0.00     0.177 HD
ATOM     29  H91 UNL     1      12.954  51.531 -51.975  1.00  0.00     0.177 HD
ENDBRANCH  26  27
ENDBRANCH  18  20
ENDBRANCH  16  18
ENDBRANCH   1  16
TORSDOF 7
ENDMDL
MODEL 3
REMARK VINA RESULT: -7.084617144      1.792      2.177
REMARK  7 active torsions:
REMARK  status: ('A' for Active; 'I' for Inactive)
REMARK    1  A    between atoms: N1_1  and  C1_4 
REMARK    2  A    between atoms: C1_4  and  C2_6 
REMARK    3  A    between atoms: C3_11  and  S1_12 
REMARK    4  A    between atoms: S1_12  and  N5_15 
REMARK    5  A    between atoms: N5_15  and  N6_17 
REMARK    6  A    between atoms: N6_17  and  C4_19 
REMARK    7  A    between atoms: N8_25  and  N9_26 
ROOT
HETATM    1  S1  UNL     1      13.004  48.924 -52.437  1.00  0.00     0.300 S 
HETATM    2  O1  UNL     1      13.167  50.344 -51.960  1.00  0.00    -0.197 OA
HETATM    3  O2  UNL     1      11.600  48.757 -52.945  1.00  0.00    -0.197 OA
ENDROOT
BRANCH   1   4
HETATM    4  C3  UNL     1      14.169  48.676 -53.731  1.00  0.00     0.209 A 
HETATM    5  N4  UNL     1      14.034  48.015 -54.874  1.00  0.00    -0.282 N 
HETATM    6  N3  UNL     1      14.997  47.946 -55.687  1.00  0.00    -0.289 N 
ATOM      7  H4  UNL     1      13.148  47.561 -55.096  1.00  0.00     0.188 HD
HETATM    8  C2  UNL     1      16.151  48.538 -55.399  1.00  0.00     0.132 A 
ATOM      9  H3  UNL     1      14.889  47.437 -56.564  1.00  0.00     0.188 HD
HETATM   10  S2  UNL     1      15.803  49.219 -53.873  1.00  0.00    -0.035 SA
BRANCH   8  11
HETATM   11  C1  UNL     1      17.352  48.554 -56.222  1.00  0.00     0.145 C 
HETATM   12  N2  UNL     1      17.204  48.704 -57.621  1.00  0.00    -0.080 NA
BRANCH  11  13
HETATM   13  N1  UNL     1      18.524  48.437 -55.716  1.00  0.00    -0.385 N 
ATOM     14  H12 UNL     1      19.306  48.054 -56.248  1.00  0.00     0.157 HD
ATOM     15  H11 UNL     1      18.691  48.732 -54.754  1.00  0.00     0.157 HD
ENDBRANCH  11  13
ENDBRANCH   8  11
ENDBRANCH   1   4
BRANCH   1  16
HETATM   16  N5  UNL     1      13.309  47.881 -51.110  1.00  0.00    -0.207 N 
ATOM     17  H5  UNL     1      12.892  46.955 -51.016  1.00  0.00     0.201 HD
BRANCH  16  18
HETATM   18  N6  UNL     1      14.182  48.425 -50.179  1.00  0.00    -0.121 N 
ATOM     19  H6  UNL     1      15.159  48.596 -50.417  1.00  0.00     0.206 HD
BRANCH  18  20
HETATM   20  C4  UNL     1      13.682  48.739 -48.882  1.00  0.00     0.709 C 
HETATM   21  N7  UNL     1      12.563  49.356 -48.702  1.00  0.00    -0.223 N 
HETATM   22  C5  UNL     1      12.142  49.629 -47.356  1.00  0.00     0.140 C 
ATOM     23  H7  UNL     1      11.990  49.641 -49.496  1.00  0.00     0.177 HD
HETATM   24  C6  UNL     1      13.262  50.044 -46.444  1.00  0.00     0.042 C 
HETATM   25  C7  UNL     1      14.437  49.113 -46.496  1.00  0.00     0.169 C 
HETATM   26  N8  UNL     1      14.454  48.356 -47.756  1.00  0.00    -0.129 N 
BRANCH  26  27
HETATM   27  N9  UNL     1      15.252  47.204 -47.886  1.00  0.00    -0.329 N 
ATOM     28  H92 UNL     1      14.823  46.292 -48.050  1.00  0.00     0.177 HD
ATOM     29  H91 UNL     1      16.262  47.326 -47.811  1.00  0.00     0.177 HD
ENDBRANCH  26  27
ENDBRANCH  18  20
ENDBRANCH  16  18
ENDBRANCH   1  16
TORSDOF 7
ENDMDL
MODEL 4
REMARK VINA RESULT: -7.075951066      1.413      1.810
REMARK  7 active torsions:
REMARK  status: ('A' for Active; 'I' for Inactive)
REMARK    1  A    between atoms: N1_1  and  C1_4 
REMARK    2  A    between atoms: C1_4  and  C2_6 
REMARK    3  A    between atoms: C3_11  and  S1_12 
REMARK    4  A    between atoms: S1_12  and  N5_15 
REMARK    5  A    between atoms: N5_15  and  N6_17 
REMARK    6  A    between atoms: N6_17  and  C4_19 
REMARK    7  A    between atoms: N8_25  and  N9_26 
ROOT
HETATM    1  S1  UNL     1      13.474  47.782 -53.085  1.00  0.00     0.300 S 
HETATM    2  O1  UNL     1      12.218  48.609 -53.171  1.00  0.00    -0.197 OA
HETATM    3  O2  UNL     1      13.086  46.331 -53.120  1.00  0.00    -0.197 OA
ENDROOT
BRANCH   1   4
HETATM    4  C3  UNL     1      14.463  48.196 -54.479  1.00  0.00     0.209 A 
HETATM    5  N4  UNL     1      14.230  47.997 -55.770  1.00  0.00    -0.282 N 
HETATM    6  N3  UNL     1      15.071  48.369 -56.634  1.00  0.00    -0.289 N 
ATOM      7  H4  UNL     1      13.366  47.541 -56.065  1.00  0.00     0.188 HD
HETATM    8  C2  UNL     1      16.196  48.964 -56.251  1.00  0.00     0.132 A 
ATOM      9  H3  UNL     1      14.888  48.213 -57.626  1.00  0.00     0.188 HD
HETATM   10  S2  UNL     1      16.005  48.972 -54.555  1.00  0.00    -0.035 SA
BRANCH   8  11
HETATM   11  C1  UNL     1      17.262  49.450 -57.114  1.00  0.00     0.145 C 
HETATM   12  N2  UNL     1      16.919  49.925 -58.402  1.00  0.00    -0.080 NA
BRANCH  11  13
HETATM   13  N1  UNL     1      18.489  49.458 -56.740  1.00  0.00    -0.385 N 
ATOM     14  H12 UNL     1      19.204  49.979 -57.246  1.00  0.00     0.157 HD
ATOM     15  H11 UNL     1      18.768  48.930 -55.913  1.00  0.00     0.157 HD
ENDBRANCH  11  13
ENDBRANCH   8  11
ENDBRANCH   1   4
BRANCH   1  16
HETATM   16  N5  UNL     1      14.267  48.174 -51.615  1.00  0.00    -0.207 N 
ATOM     17  H5  UNL     1      15.266  48.371 -51.551  1.00  0.00     0.201 HD
BRANCH  16  18
HETATM   18  N6  UNL     1      13.411  48.196 -50.523  1.00  0.00    -0.121 N 
ATOM     19  H6  UNL     1      12.464  47.824 -50.596  1.00  0.00     0.206 HD
BRANCH  18  20
HETATM   20  C4  UNL     1      13.886  48.749 -49.299  1.00  0.00     0.709 C 
HETATM   21  N7  UNL     1      15.112  48.629 -48.914  1.00  0.00    -0.223 N 
HETATM   22  C5  UNL     1      15.496  49.221 -47.663  1.00  0.00     0.140 C 
ATOM     23  H7  UNL     1      15.791  48.125 -49.484  1.00  0.00     0.177 HD
HETATM   24  C6  UNL     1      14.461  49.078 -46.582  1.00  0.00     0.042 C 
HETATM   25  C7  UNL     1      13.093  49.507 -47.019  1.00  0.00     0.169 C 
HETATM   26  N8  UNL     1      12.966  49.456 -48.483  1.00  0.00    -0.129 N 
BRANCH  26  27
HETATM   27  N9  UNL     1      11.909  50.119 -49.133  1.00  0.00    -0.329 N 
ATOM     28  H92 UNL     1      12.069  51.007 -49.609  1.00  0.00     0.177 HD
ATOM     29  H91 UNL     1      10.992  49.673 -49.104  1.00  0.00     0.177 HD
ENDBRANCH  26  27
ENDBRANCH  18  20
ENDBRANCH  16  18
ENDBRANCH   1  16
TORSDOF 7
ENDMDL
MODEL 5
REMARK VINA RESULT: -7.005402579      3.869      6.738
REMARK  7 active torsions:
REMARK  status: ('A' for Active; 'I' for Inactive)
REMARK    1  A    between atoms: N1_1  and  C1_4 
REMARK    2  A    between atoms: C1_4  and  C2_6 
REMARK    3  A    between atoms: C3_11  and  S1_12 
REMARK    4  A    between atoms: S1_12  and  N5_15 
REMARK    5  A    between atoms: N5_15  and  N6_17 
REMARK    6  A    between atoms: N6_17  and  C4_19 
REMARK    7  A    between atoms: N8_25  and  N9_26 
ROOT
HETATM    1  S1  UNL     1      17.333  49.717 -56.877  1.00  0.00     0.300 S 
HETATM    2  O1  UNL     1      17.207  48.608 -57.890  1.00  0.00    -0.197 OA
HETATM    3  O2  UNL     1      16.909  51.002 -57.531  1.00  0.00    -0.197 OA
ENDROOT
BRANCH   1   4
HETATM    4  C3  UNL     1      16.267  49.318 -55.537  1.00  0.00     0.209 A 
HETATM    5  N4  UNL     1      16.108  49.933 -54.372  1.00  0.00    -0.282 N 
HETATM    6  N3  UNL     1      15.283  49.490 -53.526  1.00  0.00    -0.289 N 
ATOM      7  H4  UNL     1      16.656  50.766 -54.159  1.00  0.00     0.188 HD
HETATM    8  C2  UNL     1      14.568  48.404 -53.802  1.00  0.00     0.132 A 
ATOM      9  H3  UNL     1      15.164  49.965 -52.631  1.00  0.00     0.188 HD
HETATM   10  S2  UNL     1      15.137  48.022 -55.365  1.00  0.00    -0.035 SA
BRANCH   8  11
HETATM   11  C1  UNL     1      13.581  47.768 -52.942  1.00  0.00     0.145 C 
HETATM   12  N2  UNL     1      13.141  46.465 -53.274  1.00  0.00    -0.080 NA
BRANCH  11  13
HETATM   13  N1  UNL     1      13.107  48.353 -51.904  1.00  0.00    -0.385 N 
ATOM     14  H12 UNL     1      12.487  47.875 -51.250  1.00  0.00     0.157 HD
ATOM     15  H11 UNL     1      13.351  49.326 -51.717  1.00  0.00     0.157 HD
ENDBRANCH  11  13
ENDBRANCH   8  11
ENDBRANCH   1   4
BRANCH   1  16
HETATM   16  N5  UNL     1      18.971  49.791 -56.374  1.00  0.00    -0.207 N 
ATOM     17  H5  UNL     1      19.633  50.487 -56.718  1.00  0.00     0.201 HD
BRANCH  16  18
HETATM   18  N6  UNL     1      19.304  48.808 -55.454  1.00  0.00    -0.121 N 
ATOM     19  H6  UNL     1      19.206  47.819 -55.687  1.00  0.00     0.206 HD
BRANCH  18  20
HETATM   20  C4  UNL     1      19.786  49.209 -54.175  1.00  0.00     0.709 C 
HETATM   21  N7  UNL     1      20.439  50.308 -53.994  1.00  0.00    -0.223 N 
HETATM   22  C5  UNL     1      20.885  50.628 -52.667  1.00  0.00     0.140 C 
ATOM     23  H7  UNL     1      20.633  50.934 -54.776  1.00  0.00     0.177 HD
HETATM   24  C6  UNL     1      21.390  49.441 -51.895  1.00  0.00     0.042 C 
HETATM   25  C7  UNL     1      20.440  48.281 -51.914  1.00  0.00     0.169 C 
HETATM   26  N8  UNL     1      19.532  48.362 -53.067  1.00  0.00    -0.129 N 
BRANCH  26  27
HETATM   27  N9  UNL     1      18.359  47.585 -53.108  1.00  0.00    -0.329 N 
ATOM     28  H92 UNL     1      18.263  46.827 -53.784  1.00  0.00     0.177 HD
ATOM     29  H91 UNL     1      17.624  47.815 -52.439  1.00  0.00     0.177 HD
ENDBRANCH  26  27
ENDBRANCH  18  20
ENDBRANCH  16  18
ENDBRANCH   1  16
TORSDOF 7
ENDMDL
