MODEL 1
REMARK VINA RESULT: -6.676582892      0.000      0.000
REMARK  7 active torsions:
REMARK  status: ('A' for Active; 'I' for Inactive)
REMARK    1  A    between atoms: S1_2  and  C2_3 
REMARK    2  A    between atoms: C3_5  and  N1_6 
REMARK    3  A    between atoms: N1_6  and  C4_8 
REMARK    4  A    between atoms: C4_8  and  O1_9 
REMARK    5  A    between atoms: C4_8  and  N2_11 
REMARK       I    between atoms: N2_11  and  C5_13 
REMARK    6  A    between atoms: N4_19  and  N5_20 
REMARK    7  A    between atoms: N5_20  and  N6_21 
ROOT
HETATM    1  N2  UNL     1      14.980  49.831 -57.482  1.00  0.00    -0.305 N 
ATOM      2  H2  UNL     1      14.116  49.693 -58.007  1.00  0.00     0.167 HD
HETATM    3  C5  UNL     1      15.818  50.937 -57.773  1.00  0.00     0.325 C 
HETATM    4  O2  UNL     1      16.874  51.094 -57.124  1.00  0.00    -0.256 OA
HETATM    5  C6  UNL     1      15.458  51.864 -58.801  1.00  0.00     0.162 C 
HETATM    6  N3  UNL     1      15.148  52.614 -59.639  1.00  0.00    -0.186 NA
ENDROOT
BRANCH   1   7
HETATM    7  C4  UNL     1      15.348  48.904 -56.448  1.00  0.00     0.330 C 
BRANCH   7   8
HETATM    8  N1  UNL     1      15.560  49.596 -55.197  1.00  0.00    -0.340 N 
ATOM      9  H1  UNL     1      15.052  50.459 -55.002  1.00  0.00     0.164 HD
BRANCH   8  10
HETATM   10  C3  UNL     1      16.473  49.081 -54.236  1.00  0.00     0.104 A 
HETATM   11  S2  UNL     1      16.080  48.422 -52.716  1.00  0.00    -0.061 SA
HETATM   12  C2  UNL     1      17.669  48.039 -52.169  1.00  0.00     0.075 A 
HETATM   13  C8  UNL     1      18.448  48.450 -53.218  1.00  0.00     0.126 A 
HETATM   14  C7  UNL     1      17.839  48.983 -54.275  1.00  0.00     0.099 A 
HETATM   15  N4  UNL     1      19.894  48.348 -53.260  1.00  0.00    -0.176 N 
HETATM   16  N8  UNL     1      18.640  49.426 -55.397  1.00  0.00    -0.347 N 
HETATM   17  C9  UNL     1      19.905  49.342 -55.448  1.00  0.00     0.199 A 
ATOM     18  H8  UNL     1      18.156  49.831 -56.198  1.00  0.00     0.167 HD
HETATM   19  N7  UNL     1      20.630  48.789 -54.368  1.00  0.00    -0.276 N 
ATOM     20  H7  UNL     1      21.647  48.713 -54.394  1.00  0.00     0.189 HD
BRANCH  12  21
HETATM   21  S1  UNL     1      18.142  47.286 -50.600  1.00  0.00    -0.125 SA
HETATM   22  C1  UNL     1      16.823  47.676 -49.416  1.00  0.00     0.096 C 
ENDBRANCH  12  21
BRANCH  15  23
HETATM   23  N5  UNL     1      20.617  47.810 -52.213  1.00  0.00    -0.006 NA
BRANCH  23  24
HETATM   24  N6  UNL     1      21.089  46.522 -52.473  1.00  0.00    -0.327 N 
ATOM     25  H62 UNL     1      20.494  45.696 -52.408  1.00  0.00     0.174 HD
ATOM     26  H61 UNL     1      22.077  46.500 -52.730  1.00  0.00     0.174 HD
ENDBRANCH  23  24
ENDBRANCH  15  23
ENDBRANCH   8  10
ENDBRANCH   7   8
BRANCH   7  27
HETATM   27  O1  UNL     1      16.462  48.113 -56.801  1.00  0.00    -0.359 OA
ATOM     28  H1  UNL     1      16.975  48.517 -57.490  1.00  0.00     0.214 HD
ENDBRANCH   7  27
ENDBRANCH   1   7
TORSDOF 7
ENDMDL
MODEL 2
REMARK VINA RESULT: -6.477670664      5.273      6.680
REMARK  7 active torsions:
REMARK  status: ('A' for Active; 'I' for Inactive)
REMARK    1  A    between atoms: S1_2  and  C2_3 
REMARK    2  A    between atoms: C3_5  and  N1_6 
REMARK    3  A    between atoms: N1_6  and  C4_8 
REMARK    4  A    between atoms: C4_8  and  O1_9 
REMARK    5  A    between atoms: C4_8  and  N2_11 
REMARK       I    between atoms: N2_11  and  C5_13 
REMARK    6  A    between atoms: N4_19  and  N5_20 
REMARK    7  A    between atoms: N5_20  and  N6_21 
ROOT
HETATM    1  N2  UNL     1      14.997  47.835 -54.175  1.00  0.00    -0.305 N 
ATOM      2  H2  UNL     1      15.789  47.629 -53.566  1.00  0.00     0.167 HD
HETATM    3  C5  UNL     1      15.199  48.001 -55.568  1.00  0.00     0.325 C 
HETATM    4  O2  UNL     1      14.221  48.255 -56.303  1.00  0.00    -0.256 OA
HETATM    5  C6  UNL     1      16.510  47.879 -56.127  1.00  0.00     0.162 C 
HETATM    6  N3  UNL     1      17.584  47.770 -56.569  1.00  0.00    -0.186 NA
ENDROOT
BRANCH   1   7
HETATM    7  C4  UNL     1      13.678  47.960 -53.620  1.00  0.00     0.330 C 
BRANCH   7   8
HETATM    8  N1  UNL     1      13.681  47.606 -52.218  1.00  0.00    -0.340 N 
ATOM      9  H1  UNL     1      13.816  46.635 -51.940  1.00  0.00     0.164 HD
BRANCH   8  10
HETATM   10  C3  UNL     1      13.497  48.607 -51.225  1.00  0.00     0.104 A 
HETATM   11  S2  UNL     1      12.803  50.146 -51.452  1.00  0.00    -0.061 SA
HETATM   12  C2  UNL     1      12.935  50.743 -49.841  1.00  0.00     0.075 A 
HETATM   13  C8  UNL     1      13.525  49.694 -49.187  1.00  0.00     0.126 A 
HETATM   14  C7  UNL     1      13.813  48.602 -49.891  1.00  0.00     0.099 A 
HETATM   15  N4  UNL     1      13.861  49.686 -47.775  1.00  0.00    -0.176 N 
HETATM   16  N8  UNL     1      14.438  47.479 -49.223  1.00  0.00    -0.347 N 
HETATM   17  C9  UNL     1      14.737  47.459 -47.990  1.00  0.00     0.199 A 
ATOM     18  H8  UNL     1      14.651  46.651 -49.780  1.00  0.00     0.167 HD
HETATM   19  N7  UNL     1      14.465  48.577 -47.169  1.00  0.00    -0.276 N 
ATOM     20  H7  UNL     1      14.698  48.575 -46.176  1.00  0.00     0.189 HD
BRANCH  12  21
HETATM   21  S1  UNL     1      12.413  52.351 -49.216  1.00  0.00    -0.125 SA
HETATM   22  C1  UNL     1      10.724  52.143 -48.584  1.00  0.00     0.096 C 
ENDBRANCH  12  21
BRANCH  15  23
HETATM   23  N5  UNL     1      13.602  50.771 -46.960  1.00  0.00    -0.006 NA
BRANCH  23  24
HETATM   24  N6  UNL     1      12.886  50.437 -45.809  1.00  0.00    -0.327 N 
ATOM     25  H62 UNL     1      11.940  50.056 -45.843  1.00  0.00     0.174 HD
ATOM     26  H61 UNL     1      13.404  50.612 -44.948  1.00  0.00     0.174 HD
ENDBRANCH  23  24
ENDBRANCH  15  23
ENDBRANCH   8  10
ENDBRANCH   7   8
BRANCH   7  27
HETATM   27  O1  UNL     1      12.715  47.222 -54.341  1.00  0.00    -0.359 OA
ATOM     28  H1  UNL     1      12.539  47.610 -55.190  1.00  0.00     0.214 HD
ENDBRANCH   7  27
ENDBRANCH   1   7
TORSDOF 7
ENDMDL
MODEL 3
REMARK VINA RESULT: -6.464987705      5.219      6.952
REMARK  7 active torsions:
REMARK  status: ('A' for Active; 'I' for Inactive)
REMARK    1  A    between atoms: S1_2  and  C2_3 
REMARK    2  A    between atoms: C3_5  and  N1_6 
REMARK    3  A    between atoms: N1_6  and  C4_8 
REMARK    4  A    between atoms: C4_8  and  O1_9 
REMARK    5  A    between atoms: C4_8  and  N2_11 
REMARK       I    between atoms: N2_11  and  C5_13 
REMARK    6  A    between atoms: N4_19  and  N5_20 
REMARK    7  A    between atoms: N5_20  and  N6_21 
ROOT
HETATM    1  N2  UNL     1      13.525  48.227 -54.476  1.00  0.00    -0.305 N 
ATOM      2  H2  UNL     1      12.810  48.707 -55.024  1.00  0.00     0.167 HD
HETATM    3  C5  UNL     1      14.824  48.044 -55.011  1.00  0.00     0.325 C 
HETATM    4  O2  UNL     1      15.690  47.454 -54.331  1.00  0.00    -0.256 OA
HETATM    5  C6  UNL     1      15.141  48.529 -56.319  1.00  0.00     0.162 C 
HETATM    6  N3  UNL     1      15.386  48.936 -57.385  1.00  0.00    -0.186 NA
ENDROOT
BRANCH   1   7
HETATM    7  C4  UNL     1      13.213  47.736 -53.162  1.00  0.00     0.330 C 
BRANCH   7   8
HETATM    8  N1  UNL     1      14.134  48.278 -52.187  1.00  0.00    -0.340 N 
ATOM      9  H1  UNL     1      15.139  48.219 -52.350  1.00  0.00     0.164 HD
BRANCH   8  10
HETATM   10  C3  UNL     1      13.644  48.893 -51.002  1.00  0.00     0.104 A 
HETATM   11  S2  UNL     1      13.697  48.246 -49.427  1.00  0.00    -0.061 SA
HETATM   12  C2  UNL     1      12.935  49.537 -48.578  1.00  0.00     0.075 A 
HETATM   13  C8  UNL     1      12.669  50.431 -49.582  1.00  0.00     0.126 A 
HETATM   14  C7  UNL     1      13.031  50.105 -50.820  1.00  0.00     0.099 A 
HETATM   15  N4  UNL     1      12.020  51.715 -49.391  1.00  0.00    -0.176 N 
HETATM   16  N8  UNL     1      12.761  51.033 -51.899  1.00  0.00    -0.347 N 
HETATM   17  C9  UNL     1      12.194  52.158 -51.747  1.00  0.00     0.199 A 
ATOM     18  H8  UNL     1      13.045  50.765 -52.841  1.00  0.00     0.167 HD
HETATM   19  N7  UNL     1      11.779  52.583 -50.464  1.00  0.00    -0.276 N 
ATOM     20  H7  UNL     1      11.323  53.485 -50.326  1.00  0.00     0.189 HD
BRANCH  12  21
HETATM   21  S1  UNL     1      12.593  49.643 -46.812  1.00  0.00    -0.125 SA
HETATM   22  C1  UNL     1      10.927  48.966 -46.562  1.00  0.00     0.096 C 
ENDBRANCH  12  21
BRANCH  15  23
HETATM   23  N5  UNL     1      11.608  52.144 -48.145  1.00  0.00    -0.006 NA
BRANCH  23  24
HETATM   24  N6  UNL     1      10.220  52.213 -48.016  1.00  0.00    -0.327 N 
ATOM     25  H62 UNL     1       9.761  52.436 -47.133  1.00  0.00     0.174 HD
ATOM     26  H61 UNL     1       9.724  52.020 -48.887  1.00  0.00     0.174 HD
ENDBRANCH  23  24
ENDBRANCH  15  23
ENDBRANCH   8  10
ENDBRANCH   7   8
BRANCH   7  27
HETATM   27  O1  UNL     1      13.165  46.327 -53.106  1.00  0.00    -0.359 OA
ATOM     28  H1  UNL     1      13.001  45.948 -53.962  1.00  0.00     0.214 HD
ENDBRANCH   7  27
ENDBRANCH   1   7
TORSDOF 7
ENDMDL
MODEL 4
REMARK VINA RESULT: -6.342575025      3.941      4.933
REMARK  7 active torsions:
REMARK  status: ('A' for Active; 'I' for Inactive)
REMARK    1  A    between atoms: S1_2  and  C2_3 
REMARK    2  A    between atoms: C3_5  and  N1_6 
REMARK    3  A    between atoms: N1_6  and  C4_8 
REMARK    4  A    between atoms: C4_8  and  O1_9 
REMARK    5  A    between atoms: C4_8  and  N2_11 
REMARK       I    between atoms: N2_11  and  C5_13 
REMARK    6  A    between atoms: N4_19  and  N5_20 
REMARK    7  A    between atoms: N5_20  and  N6_21 
ROOT
HETATM    1  N2  UNL     1      14.894  48.315 -55.321  1.00  0.00    -0.305 N 
ATOM      2  H2  UNL     1      14.399  48.413 -56.207  1.00  0.00     0.167 HD
HETATM    3  C5  UNL     1      16.309  48.237 -55.303  1.00  0.00     0.325 C 
HETATM    4  O2  UNL     1      16.903  48.116 -54.210  1.00  0.00    -0.256 OA
HETATM    5  C6  UNL     1      17.050  48.294 -56.525  1.00  0.00     0.162 C 
HETATM    6  N3  UNL     1      17.641  48.348 -57.529  1.00  0.00    -0.186 NA
ENDROOT
BRANCH   1   7
HETATM    7  C4  UNL     1      14.156  48.257 -54.089  1.00  0.00     0.330 C 
BRANCH   7   8
HETATM    8  N1  UNL     1      14.579  49.310 -53.193  1.00  0.00    -0.340 N 
ATOM      9  H1  UNL     1      14.921  50.192 -53.573  1.00  0.00     0.164 HD
BRANCH   8  10
HETATM   10  C3  UNL     1      14.519  49.122 -51.785  1.00  0.00     0.104 A 
HETATM   11  S2  UNL     1      13.292  49.672 -50.740  1.00  0.00    -0.061 SA
HETATM   12  C2  UNL     1      13.918  49.073 -49.250  1.00  0.00     0.075 A 
HETATM   13  C8  UNL     1      15.078  48.460 -49.644  1.00  0.00     0.126 A 
HETATM   14  C7  UNL     1      15.387  48.483 -50.938  1.00  0.00     0.099 A 
HETATM   15  N4  UNL     1      15.998  47.783 -48.749  1.00  0.00    -0.176 N 
HETATM   16  N8  UNL     1      16.608  47.842 -51.380  1.00  0.00    -0.347 N 
HETATM   17  C9  UNL     1      17.421  47.247 -50.609  1.00  0.00     0.199 A 
ATOM     18  H8  UNL     1      16.828  47.870 -52.376  1.00  0.00     0.167 HD
HETATM   19  N7  UNL     1      17.168  47.175 -49.220  1.00  0.00    -0.276 N 
ATOM     20  H7  UNL     1      17.812  46.699 -48.588  1.00  0.00     0.189 HD
BRANCH  12  21
HETATM   21  S1  UNL     1      13.194  49.236 -47.606  1.00  0.00    -0.125 SA
HETATM   22  C1  UNL     1      11.744  50.314 -47.780  1.00  0.00     0.096 C 
ENDBRANCH  12  21
BRANCH  15  23
HETATM   23  N5  UNL     1      15.765  47.705 -47.390  1.00  0.00    -0.006 NA
BRANCH  23  24
HETATM   24  N6  UNL     1      16.737  46.973 -46.705  1.00  0.00    -0.327 N 
ATOM     25  H62 UNL     1      16.672  46.773 -45.707  1.00  0.00     0.174 HD
ATOM     26  H61 UNL     1      17.505  46.665 -47.303  1.00  0.00     0.174 HD
ENDBRANCH  23  24
ENDBRANCH  15  23
ENDBRANCH   8  10
ENDBRANCH   7   8
BRANCH   7  27
HETATM   27  O1  UNL     1      14.228  46.989 -53.474  1.00  0.00    -0.359 OA
ATOM     28  H1  UNL     1      15.056  46.864 -53.026  1.00  0.00     0.214 HD
ENDBRANCH   7  27
ENDBRANCH   1   7
TORSDOF 7
ENDMDL
MODEL 5
REMARK VINA RESULT: -6.321091680      5.586      7.184
REMARK  7 active torsions:
REMARK  status: ('A' for Active; 'I' for Inactive)
REMARK    1  A    between atoms: S1_2  and  C2_3 
REMARK    2  A    between atoms: C3_5  and  N1_6 
REMARK    3  A    between atoms: N1_6  and  C4_8 
REMARK    4  A    between atoms: C4_8  and  O1_9 
REMARK    5  A    between atoms: C4_8  and  N2_11 
REMARK       I    between atoms: N2_11  and  C5_13 
REMARK    6  A    between atoms: N4_19  and  N5_20 
REMARK    7  A    between atoms: N5_20  and  N6_21 
ROOT
HETATM    1  N2  UNL     1      14.003  49.095 -53.462  1.00  0.00    -0.305 N 
ATOM      2  H2  UNL     1      14.552  49.900 -53.763  1.00  0.00     0.167 HD
HETATM    3  C5  UNL     1      13.823  47.993 -54.334  1.00  0.00     0.325 C 
HETATM    4  O2  UNL     1      13.148  47.012 -53.953  1.00  0.00    -0.256 OA
HETATM    5  C6  UNL     1      14.408  48.002 -55.640  1.00  0.00     0.162 C 
HETATM    6  N3  UNL     1      14.896  48.023 -56.699  1.00  0.00    -0.186 NA
ENDROOT
BRANCH   1   7
HETATM    7  C4  UNL     1      13.413  49.078 -52.152  1.00  0.00     0.330 C 
BRANCH   7   8
HETATM    8  N1  UNL     1      14.129  48.171 -51.283  1.00  0.00    -0.340 N 
ATOM      9  H1  UNL     1      14.520  47.308 -51.662  1.00  0.00     0.164 HD
BRANCH   8  10
HETATM   10  C3  UNL     1      14.293  48.476 -49.904  1.00  0.00     0.104 A 
HETATM   11  S2  UNL     1      15.535  47.917 -48.882  1.00  0.00    -0.061 SA
HETATM   12  C2  UNL     1      15.054  48.695 -47.421  1.00  0.00     0.075 A 
HETATM   13  C8  UNL     1      13.925  49.368 -47.806  1.00  0.00     0.126 A 
HETATM   14  C7  UNL     1      13.534  49.258 -49.073  1.00  0.00     0.099 A 
HETATM   15  N4  UNL     1      13.120  50.197 -46.928  1.00  0.00    -0.176 N 
HETATM   16  N8  UNL     1      12.343  49.961 -49.505  1.00  0.00    -0.347 N 
HETATM   17  C9  UNL     1      11.630  50.688 -48.748  1.00  0.00     0.199 A 
ATOM     18  H8  UNL     1      12.059  49.864 -50.480  1.00  0.00     0.167 HD
HETATM   19  N7  UNL     1      11.975  50.860 -47.388  1.00  0.00    -0.276 N 
ATOM     20  H7  UNL     1      11.413  51.442 -46.767  1.00  0.00     0.189 HD
BRANCH  12  21
HETATM   21  S1  UNL     1      15.864  48.615 -45.813  1.00  0.00    -0.125 SA
HETATM   22  C1  UNL     1      17.299  47.520 -46.005  1.00  0.00     0.096 C 
ENDBRANCH  12  21
BRANCH  15  23
HETATM   23  N5  UNL     1      13.443  50.374 -45.597  1.00  0.00    -0.006 NA
BRANCH  23  24
HETATM   24  N6  UNL     1      12.448  49.932 -44.724  1.00  0.00    -0.327 N 
ATOM     25  H62 UNL     1      11.483  49.783 -45.022  1.00  0.00     0.174 HD
ATOM     26  H61 UNL     1      12.785  49.776 -43.774  1.00  0.00     0.174 HD
ENDBRANCH  23  24
ENDBRANCH  15  23
ENDBRANCH   8  10
ENDBRANCH   7   8
BRANCH   7  27
HETATM   27  O1  UNL     1      12.032  48.787 -52.183  1.00  0.00    -0.359 OA
ATOM     28  H1  UNL     1      11.849  47.921 -51.841  1.00  0.00     0.214 HD
ENDBRANCH   7  27
ENDBRANCH   1   7
TORSDOF 7
ENDMDL
