MODEL 1
REMARK VINA RESULT: -9.359344943      0.000      0.000
REMARK  8 active torsions:
REMARK  status: ('A' for Active; 'I' for Inactive)
REMARK    1  A    between atoms: C1_2  and  C2_3 
REMARK       I    between atoms: C1_2  and  N4_24 
REMARK    2  A    between atoms: C2_3  and  S1_4 
REMARK    3  A    between atoms: S1_4  and  C3_5 
REMARK    4  A    between atoms: C4_10  and  C5_11 
REMARK    5  A    between atoms: C10_21  and  O4_22 
REMARK    6  A    between atoms: N4_24  and  N5_25 
REMARK    7  A    between atoms: N5_25  and  C11_27 
REMARK    8  A    between atoms: C11_27  and  O5_28 
ROOT
HETATM    1  C3  UNL     1      37.317  56.148  17.194  1.00  0.00     0.118 A 
HETATM    2  N1  UNL     1      37.571  56.932  16.097  1.00  0.00    -0.291 N 
ATOM      3  H1  UNL     1      37.457  57.944  16.158  1.00  0.00     0.187 HD
HETATM    4  N2  UNL     1      37.957  56.387  14.974  1.00  0.00    -0.300 N 
ATOM      5  H2  UNL     1      38.133  56.966  14.153  1.00  0.00     0.187 HD
HETATM    6  C4  UNL     1      38.124  55.009  14.909  1.00  0.00     0.052 A 
HETATM    7  C9  UNL     1      37.878  54.237  16.023  1.00  0.00     0.070 A 
HETATM    8  C10 UNL     1      37.446  54.836  17.228  1.00  0.00     0.102 A 
ENDROOT
BRANCH   1   9
HETATM    9  S1  UNL     1      36.301  57.040  18.433  1.00  0.00    -0.098 SA
BRANCH   9  10
HETATM   10  C2  UNL     1      37.134  58.670  18.478  1.00  0.00     0.202 C 
BRANCH  10  11
HETATM   11  C1  UNL     1      37.988  58.684  19.803  1.00  0.00     0.322 C 
HETATM   12  O1  UNL     1      37.624  57.953  20.740  1.00  0.00    -0.254 OA
HETATM   13  N4  UNL     1      38.989  59.539  19.695  1.00  0.00    -0.284 NA
BRANCH  13  14
HETATM   14  N5  UNL     1      40.038  60.424  19.610  1.00  0.00    -0.206 N 
ATOM     15  H5  UNL     1      40.075  61.241  19.000  1.00  0.00     0.204 HD
BRANCH  14  16
HETATM   16  C11 UNL     1      41.044  60.027  20.494  1.00  0.00     0.213 C 
HETATM   17  C12 UNL     1      42.253  59.532  20.904  1.00  0.00     0.188 A 
HETATM   18  N6  UNL     1      42.623  59.646  22.300  1.00  0.00    -0.263 N 
HETATM   19  N9  UNL     1      43.296  58.938  20.509  1.00  0.00    -0.268 N 
HETATM   20  N7  UNL     1      43.836  59.085  22.474  1.00  0.00    -0.005 NA
ATOM     21  H6  UNL     1      42.059  60.079  23.031  1.00  0.00     0.186 HD
HETATM   22  N8  UNL     1      44.235  58.599  21.134  1.00  0.00    -0.225 N 
ATOM     23  H8  UNL     1      45.080  58.110  20.838  1.00  0.00     0.205 HD
ATOM     24  H9  UNL     1      43.330  58.722  19.513  1.00  0.00     0.190 HD
BRANCH  16  25
HETATM   25  O5  UNL     1      40.312  60.320  21.771  1.00  0.00    -0.342 OA
ATOM     26  H5  UNL     1      40.782  61.111  22.006  1.00  0.00     0.219 HD
ENDBRANCH  16  25
ENDBRANCH  14  16
ENDBRANCH  13  14
ENDBRANCH  10  11
ENDBRANCH   9  10
ENDBRANCH   1   9
BRANCH   8  27
HETATM   27  O4  UNL     1      37.192  54.036  18.314  1.00  0.00    -0.358 OA
ATOM     28  H4  UNL     1      37.551  54.157  19.186  1.00  0.00     0.217 HD
ENDBRANCH   8  27
BRANCH   6  29
HETATM   29  C5  UNL     1      38.074  54.388  13.606  1.00  0.00     0.055 C 
HETATM   30  C6  UNL     1      38.407  53.257  13.159  1.00  0.00     0.080 C 
HETATM   31  S2  UNL     1      38.092  52.938  11.302  1.00  0.00    -0.024 SA
HETATM   32  C8  UNL     1      39.018  52.019  13.488  1.00  0.00     0.266 C 
HETATM   33  C7  UNL     1      37.513  51.210  11.815  1.00  0.00     0.291 C 
HETATM   34  O2  UNL     1      36.497  50.746  11.379  1.00  0.00    -0.260 OA
HETATM   35  N3  UNL     1      38.505  50.888  12.720  1.00  0.00    -0.283 N 
ATOM     36  H3  UNL     1      38.853  49.937  12.841  1.00  0.00     0.172 HD
HETATM   37  O3  UNL     1      39.936  51.877  14.346  1.00  0.00    -0.267 OA
ENDBRANCH   6  29
TORSDOF 8
ENDMDL
MODEL 2
REMARK VINA RESULT: -9.347755471      4.347     10.400
REMARK  8 active torsions:
REMARK  status: ('A' for Active; 'I' for Inactive)
REMARK    1  A    between atoms: C1_2  and  C2_3 
REMARK       I    between atoms: C1_2  and  N4_24 
REMARK    2  A    between atoms: C2_3  and  S1_4 
REMARK    3  A    between atoms: S1_4  and  C3_5 
REMARK    4  A    between atoms: C4_10  and  C5_11 
REMARK    5  A    between atoms: C10_21  and  O4_22 
REMARK    6  A    between atoms: N4_24  and  N5_25 
REMARK    7  A    between atoms: N5_25  and  C11_27 
REMARK    8  A    between atoms: C11_27  and  O5_28 
ROOT
HETATM    1  C3  UNL     1      36.553  56.282  17.154  1.00  0.00     0.118 A 
HETATM    2  N1  UNL     1      37.307  57.225  17.804  1.00  0.00    -0.291 N 
ATOM      3  H1  UNL     1      38.204  57.516  17.414  1.00  0.00     0.187 HD
HETATM    4  N2  UNL     1      36.881  57.753  18.921  1.00  0.00    -0.300 N 
ATOM      5  H2  UNL     1      37.446  58.445  19.413  1.00  0.00     0.187 HD
HETATM    6  C4  UNL     1      35.650  57.361  19.431  1.00  0.00     0.052 A 
HETATM    7  C9  UNL     1      34.899  56.423  18.760  1.00  0.00     0.070 A 
HETATM    8  C10 UNL     1      35.376  55.847  17.561  1.00  0.00     0.102 A 
ENDROOT
BRANCH   1   9
HETATM    9  S1  UNL     1      37.563  55.325  15.958  1.00  0.00    -0.098 SA
BRANCH   9  10
HETATM   10  C2  UNL     1      37.882  53.789  16.902  1.00  0.00     0.202 C 
BRANCH  10  11
HETATM   11  C1  UNL     1      37.236  52.622  16.062  1.00  0.00     0.322 C 
HETATM   12  O1  UNL     1      36.038  52.354  16.260  1.00  0.00    -0.254 OA
HETATM   13  N4  UNL     1      38.136  52.078  15.263  1.00  0.00    -0.284 NA
BRANCH  13  14
HETATM   14  N5  UNL     1      39.054  51.492  14.423  1.00  0.00    -0.206 N 
ATOM     15  H5  UNL     1      39.967  51.133  14.703  1.00  0.00     0.204 HD
BRANCH  14  16
HETATM   16  C11 UNL     1      38.537  51.467  13.127  1.00  0.00     0.213 C 
HETATM   17  C12 UNL     1      37.983  50.942  11.989  1.00  0.00     0.188 A 
HETATM   18  N6  UNL     1      37.521  51.843  10.953  1.00  0.00    -0.263 N 
HETATM   19  N9  UNL     1      37.685  49.861  11.407  1.00  0.00    -0.268 N 
HETATM   20  N7  UNL     1      37.031  51.113   9.932  1.00  0.00    -0.005 NA
ATOM     21  H6  UNL     1      37.560  52.861  10.989  1.00  0.00     0.186 HD
HETATM   22  N8  UNL     1      37.198  49.703  10.347  1.00  0.00    -0.225 N 
ATOM     23  H8  UNL     1      36.960  48.841   9.855  1.00  0.00     0.205 HD
ATOM     24  H9  UNL     1      37.896  49.009  11.926  1.00  0.00     0.190 HD
BRANCH  16  25
HETATM   25  O5  UNL     1      38.747  52.917  12.801  1.00  0.00    -0.342 OA
ATOM     26  H5  UNL     1      38.710  52.839  11.855  1.00  0.00     0.219 HD
ENDBRANCH  16  25
ENDBRANCH  14  16
ENDBRANCH  13  14
ENDBRANCH  10  11
ENDBRANCH   9  10
ENDBRANCH   1   9
BRANCH   8  27
HETATM   27  O4  UNL     1      34.611  54.900  16.927  1.00  0.00    -0.358 OA
ATOM     28  H4  UNL     1      34.299  54.091  17.315  1.00  0.00     0.217 HD
ENDBRANCH   8  27
BRANCH   6  29
HETATM   29  C5  UNL     1      35.414  57.563  20.842  1.00  0.00     0.055 C 
HETATM   30  C6  UNL     1      34.431  57.968  21.519  1.00  0.00     0.080 C 
HETATM   31  S2  UNL     1      34.654  58.023  23.416  1.00  0.00    -0.024 SA
HETATM   32  C8  UNL     1      33.114  58.492  21.444  1.00  0.00     0.266 C 
HETATM   33  C7  UNL     1      32.892  57.338  23.527  1.00  0.00     0.291 C 
HETATM   34  O2  UNL     1      32.631  56.425  24.257  1.00  0.00    -0.260 OA
HETATM   35  N3  UNL     1      32.272  58.130  22.581  1.00  0.00    -0.283 N 
ATOM     36  H3  UNL     1      31.304  58.439  22.669  1.00  0.00     0.172 HD
HETATM   37  O3  UNL     1      32.684  59.222  20.504  1.00  0.00    -0.267 OA
ENDBRANCH   6  29
TORSDOF 8
ENDMDL
MODEL 3
REMARK VINA RESULT: -9.314011101      2.465     10.131
REMARK  8 active torsions:
REMARK  status: ('A' for Active; 'I' for Inactive)
REMARK    1  A    between atoms: C1_2  and  C2_3 
REMARK       I    between atoms: C1_2  and  N4_24 
REMARK    2  A    between atoms: C2_3  and  S1_4 
REMARK    3  A    between atoms: S1_4  and  C3_5 
REMARK    4  A    between atoms: C4_10  and  C5_11 
REMARK    5  A    between atoms: C10_21  and  O4_22 
REMARK    6  A    between atoms: N4_24  and  N5_25 
REMARK    7  A    between atoms: N5_25  and  C11_27 
REMARK    8  A    between atoms: C11_27  and  O5_28 
ROOT
HETATM    1  C3  UNL     1      37.676  57.310  17.344  1.00  0.00     0.118 A 
HETATM    2  N1  UNL     1      39.029  57.088  17.385  1.00  0.00    -0.291 N 
ATOM      3  H1  UNL     1      39.436  56.326  16.841  1.00  0.00     0.187 HD
HETATM    4  N2  UNL     1      39.799  57.846  18.119  1.00  0.00    -0.300 N 
ATOM      5  H2  UNL     1      40.803  57.674  18.162  1.00  0.00     0.187 HD
HETATM    6  C4  UNL     1      39.234  58.890  18.842  1.00  0.00     0.052 A 
HETATM    7  C9  UNL     1      37.876  59.109  18.780  1.00  0.00     0.070 A 
HETATM    8  C10 UNL     1      37.051  58.273  17.995  1.00  0.00     0.102 A 
ENDROOT
BRANCH   1   9
HETATM    9  S1  UNL     1      36.775  55.843  16.714  1.00  0.00    -0.098 SA
BRANCH   9  10
HETATM   10  C2  UNL     1      38.156  54.689  16.374  1.00  0.00     0.202 C 
BRANCH  10  11
HETATM   11  C1  UNL     1      37.488  53.322  15.962  1.00  0.00     0.322 C 
HETATM   12  O1  UNL     1      36.331  53.095  16.357  1.00  0.00    -0.254 OA
HETATM   13  N4  UNL     1      38.330  52.596  15.249  1.00  0.00    -0.284 NA
BRANCH  13  14
HETATM   14  N5  UNL     1      39.187  51.819  14.505  1.00  0.00    -0.206 N 
ATOM     15  H5  UNL     1      40.046  51.390  14.850  1.00  0.00     0.204 HD
BRANCH  14  16
HETATM   16  C11 UNL     1      38.693  51.710  13.204  1.00  0.00     0.213 C 
HETATM   17  C12 UNL     1      38.155  51.115  12.094  1.00  0.00     0.188 A 
HETATM   18  N6  UNL     1      37.721  51.947  10.990  1.00  0.00    -0.263 N 
HETATM   19  N9  UNL     1      37.858  49.999  11.580  1.00  0.00    -0.268 N 
HETATM   20  N7  UNL     1      37.243  51.154  10.011  1.00  0.00    -0.005 NA
ATOM     21  H6  UNL     1      37.770  52.966  10.959  1.00  0.00     0.186 HD
HETATM   22  N8  UNL     1      37.389  49.774  10.524  1.00  0.00    -0.225 N 
ATOM     23  H8  UNL     1      37.151  48.883  10.087  1.00  0.00     0.205 HD
ATOM     24  H9  UNL     1      38.050  49.183  12.160  1.00  0.00     0.190 HD
BRANCH  16  25
HETATM   25  O5  UNL     1      38.924  53.133  12.785  1.00  0.00    -0.342 OA
ATOM     26  H5  UNL     1      39.637  52.971  12.178  1.00  0.00     0.219 HD
ENDBRANCH  16  25
ENDBRANCH  14  16
ENDBRANCH  13  14
ENDBRANCH  10  11
ENDBRANCH   9  10
ENDBRANCH   1   9
BRANCH   8  27
HETATM   27  O4  UNL     1      35.699  58.507  17.969  1.00  0.00    -0.358 OA
ATOM     28  H4  UNL     1      35.246  59.186  18.456  1.00  0.00     0.217 HD
ENDBRANCH   8  27
BRANCH   6  29
HETATM   29  C5  UNL     1      39.970  59.394  19.979  1.00  0.00     0.055 C 
HETATM   30  C6  UNL     1      41.156  59.264  20.384  1.00  0.00     0.080 C 
HETATM   31  S2  UNL     1      41.626  60.193  21.986  1.00  0.00    -0.024 SA
HETATM   32  C8  UNL     1      42.395  58.615  20.142  1.00  0.00     0.266 C 
HETATM   33  C7  UNL     1      43.258  60.617  21.124  1.00  0.00     0.291 C 
HETATM   34  O2  UNL     1      43.694  61.733  21.146  1.00  0.00    -0.260 OA
HETATM   35  N3  UNL     1      43.558  59.389  20.570  1.00  0.00    -0.283 N 
ATOM     36  H3  UNL     1      44.514  59.049  20.467  1.00  0.00     0.172 HD
HETATM   37  O3  UNL     1      42.515  57.466  19.626  1.00  0.00    -0.267 OA
ENDBRANCH   6  29
TORSDOF 8
ENDMDL
MODEL 4
REMARK VINA RESULT: -9.306581452      4.982      6.713
REMARK  8 active torsions:
REMARK  status: ('A' for Active; 'I' for Inactive)
REMARK    1  A    between atoms: C1_2  and  C2_3 
REMARK       I    between atoms: C1_2  and  N4_24 
REMARK    2  A    between atoms: C2_3  and  S1_4 
REMARK    3  A    between atoms: S1_4  and  C3_5 
REMARK    4  A    between atoms: C4_10  and  C5_11 
REMARK    5  A    between atoms: C10_21  and  O4_22 
REMARK    6  A    between atoms: N4_24  and  N5_25 
REMARK    7  A    between atoms: N5_25  and  C11_27 
REMARK    8  A    between atoms: C11_27  and  O5_28 
ROOT
HETATM    1  C3  UNL     1      37.261  56.146  17.264  1.00  0.00     0.118 A 
HETATM    2  N1  UNL     1      37.457  56.957  16.175  1.00  0.00    -0.291 N 
ATOM      3  H1  UNL     1      37.288  57.961  16.252  1.00  0.00     0.187 HD
HETATM    4  N2  UNL     1      37.859  56.450  15.040  1.00  0.00    -0.300 N 
ATOM      5  H2  UNL     1      37.993  57.049  14.226  1.00  0.00     0.187 HD
HETATM    6  C4  UNL     1      38.102  55.085  14.954  1.00  0.00     0.052 A 
HETATM    7  C9  UNL     1      37.914  54.286  16.060  1.00  0.00     0.070 A 
HETATM    8  C10 UNL     1      37.464  54.842  17.278  1.00  0.00     0.102 A 
ENDROOT
BRANCH   1   9
HETATM    9  S1  UNL     1      36.212  56.963  18.527  1.00  0.00    -0.098 SA
BRANCH   9  10
HETATM   10  C2  UNL     1      34.568  56.254  18.146  1.00  0.00     0.202 C 
BRANCH  10  11
HETATM   11  C1  UNL     1      33.529  57.090  18.987  1.00  0.00     0.322 C 
HETATM   12  O1  UNL     1      32.796  57.890  18.380  1.00  0.00    -0.254 OA
HETATM   13  N4  UNL     1      33.639  56.800  20.271  1.00  0.00    -0.284 NA
BRANCH  13  14
HETATM   14  N5  UNL     1      33.733  56.519  21.614  1.00  0.00    -0.206 N 
ATOM     15  H5  UNL     1      34.602  56.444  22.142  1.00  0.00     0.204 HD
BRANCH  14  16
HETATM   16  C11 UNL     1      32.450  56.354  22.138  1.00  0.00     0.213 C 
HETATM   17  C12 UNL     1      31.339  55.697  22.598  1.00  0.00     0.188 A 
HETATM   18  N6  UNL     1      30.289  56.458  23.243  1.00  0.00    -0.263 N 
HETATM   19  N9  UNL     1      30.794  54.561  22.689  1.00  0.00    -0.268 N 
HETATM   20  N7  UNL     1      29.300  55.615  23.599  1.00  0.00    -0.005 NA
ATOM     21  H6  UNL     1      30.297  57.465  23.403  1.00  0.00     0.186 HD
HETATM   22  N8  UNL     1      29.749  54.278  23.154  1.00  0.00    -0.225 N 
ATOM     23  H8  UNL     1      29.287  53.372  23.228  1.00  0.00     0.205 HD
ATOM     24  H9  UNL     1      31.331  53.783  22.308  1.00  0.00     0.190 HD
BRANCH  16  25
HETATM   25  O5  UNL     1      32.080  57.806  22.219  1.00  0.00    -0.342 OA
ATOM     26  H5  UNL     1      32.139  57.897  23.163  1.00  0.00     0.219 HD
ENDBRANCH  16  25
ENDBRANCH  14  16
ENDBRANCH  13  14
ENDBRANCH  10  11
ENDBRANCH   9  10
ENDBRANCH   1   9
BRANCH   8  27
HETATM   27  O4  UNL     1      37.268  54.015  18.356  1.00  0.00    -0.358 OA
ATOM     28  H4  UNL     1      37.861  53.329  18.641  1.00  0.00     0.217 HD
ENDBRANCH   8  27
BRANCH   6  29
HETATM   29  C5  UNL     1      38.071  54.479  13.643  1.00  0.00     0.055 C 
HETATM   30  C6  UNL     1      38.424  53.360  13.185  1.00  0.00     0.080 C 
HETATM   31  S2  UNL     1      38.128  53.059  11.321  1.00  0.00    -0.024 SA
HETATM   32  C8  UNL     1      39.053  52.128  13.502  1.00  0.00     0.266 C 
HETATM   33  C7  UNL     1      37.572  51.316  11.809  1.00  0.00     0.291 C 
HETATM   34  O2  UNL     1      36.567  50.842  11.360  1.00  0.00    -0.260 OA
HETATM   35  N3  UNL     1      38.563  50.998  12.716  1.00  0.00    -0.283 N 
ATOM     36  H3  UNL     1      38.925  50.052  12.828  1.00  0.00     0.172 HD
HETATM   37  O3  UNL     1      39.968  51.990  14.365  1.00  0.00    -0.267 OA
ENDBRANCH   6  29
TORSDOF 8
ENDMDL
MODEL 5
REMARK VINA RESULT: -9.295983046      4.434      6.106
REMARK  8 active torsions:
REMARK  status: ('A' for Active; 'I' for Inactive)
REMARK    1  A    between atoms: C1_2  and  C2_3 
REMARK       I    between atoms: C1_2  and  N4_24 
REMARK    2  A    between atoms: C2_3  and  S1_4 
REMARK    3  A    between atoms: S1_4  and  C3_5 
REMARK    4  A    between atoms: C4_10  and  C5_11 
REMARK    5  A    between atoms: C10_21  and  O4_22 
REMARK    6  A    between atoms: N4_24  and  N5_25 
REMARK    7  A    between atoms: N5_25  and  C11_27 
REMARK    8  A    between atoms: C11_27  and  O5_28 
ROOT
HETATM    1  C3  UNL     1      37.189  56.190  17.283  1.00  0.00     0.118 A 
HETATM    2  N1  UNL     1      37.428  57.000  16.202  1.00  0.00    -0.291 N 
ATOM      3  H1  UNL     1      37.275  58.006  16.278  1.00  0.00     0.187 HD
HETATM    4  N2  UNL     1      37.851  56.489  15.077  1.00  0.00    -0.300 N 
ATOM      5  H2  UNL     1      38.016  57.087  14.268  1.00  0.00     0.187 HD
HETATM    6  C4  UNL     1      38.072  55.120  14.994  1.00  0.00     0.052 A 
HETATM    7  C9  UNL     1      37.840  54.321  16.091  1.00  0.00     0.070 A 
HETATM    8  C10 UNL     1      37.369  54.883  17.299  1.00  0.00     0.102 A 
ENDROOT
BRANCH   1   9
HETATM    9  S1  UNL     1      36.122  57.022  18.521  1.00  0.00    -0.098 SA
BRANCH   9  10
HETATM   10  C2  UNL     1      34.466  56.400  18.047  1.00  0.00     0.202 C 
BRANCH  10  11
HETATM   11  C1  UNL     1      33.461  56.987  19.111  1.00  0.00     0.322 C 
HETATM   12  O1  UNL     1      32.979  58.113  18.899  1.00  0.00    -0.254 OA
HETATM   13  N4  UNL     1      33.315  56.145  20.117  1.00  0.00    -0.284 NA
BRANCH  13  14
HETATM   14  N5  UNL     1      33.146  55.287  21.179  1.00  0.00    -0.206 N 
ATOM     15  H5  UNL     1      33.295  54.278  21.154  1.00  0.00     0.204 HD
BRANCH  14  16
HETATM   16  C11 UNL     1      32.737  56.017  22.296  1.00  0.00     0.213 C 
HETATM   17  C12 UNL     1      32.337  57.104  23.029  1.00  0.00     0.188 A 
HETATM   18  N6  UNL     1      31.856  56.902  24.380  1.00  0.00    -0.263 N 
HETATM   19  N9  UNL     1      32.213  58.361  23.000  1.00  0.00    -0.268 N 
HETATM   20  N7  UNL     1      31.534  58.099  24.908  1.00  0.00    -0.005 NA
ATOM     21  H6  UNL     1      31.774  56.003  24.854  1.00  0.00     0.186 HD
HETATM   22  N8  UNL     1      31.831  59.085  23.846  1.00  0.00    -0.225 N 
ATOM     23  H8  UNL     1      31.733  60.100  23.847  1.00  0.00     0.205 HD
ATOM     24  H9  UNL     1      32.480  58.809  22.124  1.00  0.00     0.190 HD
BRANCH  16  25
HETATM   25  O5  UNL     1      32.802  54.901  23.297  1.00  0.00    -0.342 OA
ATOM     26  H5  UNL     1      32.070  55.175  23.838  1.00  0.00     0.219 HD
ENDBRANCH  16  25
ENDBRANCH  14  16
ENDBRANCH  13  14
ENDBRANCH  10  11
ENDBRANCH   9  10
ENDBRANCH   1   9
BRANCH   8  27
HETATM   27  O4  UNL     1      37.130  54.056  18.369  1.00  0.00    -0.358 OA
ATOM     28  H4  UNL     1      36.296  53.954  18.812  1.00  0.00     0.217 HD
ENDBRANCH   8  27
BRANCH   6  29
HETATM   29  C5  UNL     1      38.065  54.518  13.680  1.00  0.00     0.055 C 
HETATM   30  C6  UNL     1      38.432  53.402  13.224  1.00  0.00     0.080 C 
HETATM   31  S2  UNL     1      38.166  53.105  11.355  1.00  0.00    -0.024 SA
HETATM   32  C8  UNL     1      39.064  52.173  13.547  1.00  0.00     0.266 C 
HETATM   33  C7  UNL     1      37.614  51.357  11.829  1.00  0.00     0.291 C 
HETATM   34  O2  UNL     1      36.620  50.878  11.363  1.00  0.00    -0.260 OA
HETATM   35  N3  UNL     1      38.594  51.043  12.750  1.00  0.00    -0.283 N 
ATOM     36  H3  UNL     1      38.960  50.098  12.865  1.00  0.00     0.172 HD
HETATM   37  O3  UNL     1      39.966  52.038  14.423  1.00  0.00    -0.267 OA
ENDBRANCH   6  29
TORSDOF 8
ENDMDL
