MODEL 1
REMARK VINA RESULT: -8.705919426      0.000      0.000
REMARK  9 active torsions:
REMARK  status: ('A' for Active; 'I' for Inactive)
REMARK    1  A    between atoms: C1_4  and  N2_5 
REMARK    2  A    between atoms: C1_4  and  C6_19 
REMARK    3  A    between atoms: N2_5  and  C2_7 
REMARK    4  A    between atoms: C2_7  and  O1_8 
REMARK    5  A    between atoms: C2_7  and  C3_10 
REMARK    6  A    between atoms: C11_24  and  N5_25 
REMARK    7  A    between atoms: C13_27  and  C14_28 
REMARK    8  A    between atoms: C15_29  and  N6_30 
REMARK    9  A    between atoms: N6_30  and  O2_32 
ROOT
HETATM    1  C6  UNL     1      37.964  59.598  19.886  1.00  0.00     0.036 A 
HETATM    2  C7  UNL     1      38.461  60.443  20.897  1.00  0.00     0.017 A 
HETATM    3  C8  UNL     1      39.780  60.788  21.018  1.00  0.00     0.001 A 
HETATM    4  C9  UNL     1      40.639  60.258  20.080  1.00  0.00     0.002 A 
HETATM    5  C10 UNL     1      40.235  59.433  19.072  1.00  0.00     0.032 A 
HETATM    6  C11 UNL     1      38.867  59.104  18.985  1.00  0.00     0.071 A 
ENDROOT
BRANCH   6   7
HETATM    7  N5  UNL     1      38.440  58.246  17.939  1.00  0.00    -0.250 N 
HETATM    8  C12 UNL     1      38.704  56.940  17.810  1.00  0.00     0.150 A 
HETATM    9  C13 UNL     1      38.065  56.449  16.661  1.00  0.00     0.086 A 
HETATM   10  N9  UNL     1      37.433  57.527  16.148  1.00  0.00    -0.283 N 
HETATM   11  N10 UNL     1      37.672  58.568  16.922  1.00  0.00    -0.236 N 
ATOM     12  H9  UNL     1      36.864  57.534  15.301  1.00  0.00     0.188 HD
ATOM     13  H10 UNL     1      37.307  59.506  16.752  1.00  0.00     0.209 HD
BRANCH   9  14
HETATM   14  C14 UNL     1      38.087  55.104  16.157  1.00  0.00     0.107 A 
HETATM   15  C15 UNL     1      37.083  54.208  16.441  1.00  0.00     0.147 A 
HETATM   16  N7  UNL     1      37.174  52.969  15.933  1.00  0.00    -0.292 N 
HETATM   17  C16 UNL     1      38.205  52.572  15.162  1.00  0.00     0.328 A 
ATOM     18  H7  UNL     1      36.431  52.300  16.141  1.00  0.00     0.172 HD
HETATM   19  O3  UNL     1      38.212  51.376  14.722  1.00  0.00    -0.247 OA
HETATM   20  N8  UNL     1      39.191  53.422  14.872  1.00  0.00    -0.275 N 
HETATM   21  C17 UNL     1      39.127  54.671  15.366  1.00  0.00     0.265 A 
ATOM     22  H8  UNL     1      39.975  53.131  14.289  1.00  0.00     0.173 HD
HETATM   23  O4  UNL     1      40.090  55.438  15.060  1.00  0.00    -0.267 OA
BRANCH  15  24
HETATM   24  N6  UNL     1      35.966  54.533  17.238  1.00  0.00    -0.252 N 
ATOM     25  H6  UNL     1      36.069  54.495  18.253  1.00  0.00     0.196 HD
BRANCH  24  26
HETATM   26  O2  UNL     1      34.856  54.866  16.767  1.00  0.00    -0.288 OA
ATOM     27  H2  UNL     1      34.439  55.700  16.947  1.00  0.00     0.244 HD
ENDBRANCH  24  26
ENDBRANCH  15  24
ENDBRANCH   9  14
ENDBRANCH   6   7
BRANCH   1  28
HETATM   28  C1  UNL     1      36.549  59.308  19.863  1.00  0.00     0.109 C 
HETATM   29  N1  UNL     1      35.638  60.036  19.386  1.00  0.00    -0.385 N 
ATOM     30  H12 UNL     1      34.639  59.831  19.370  1.00  0.00     0.157 HD
ATOM     31  H11 UNL     1      35.957  60.916  18.980  1.00  0.00     0.157 HD
BRANCH  28  32
HETATM   32  N2  UNL     1      36.097  58.061  20.438  1.00  0.00    -0.347 N 
ATOM     33  H2  UNL     1      36.431  57.790  21.363  1.00  0.00     0.163 HD
BRANCH  32  34
HETATM   34  C2  UNL     1      35.189  57.196  19.740  1.00  0.00     0.278 C 
BRANCH  34  35
HETATM   35  O1  UNL     1      35.341  57.439  18.376  1.00  0.00    -0.373 OA
ATOM     36  H1  UNL     1      34.545  57.152  17.944  1.00  0.00     0.212 HD
ENDBRANCH  34  35
BRANCH  34  37
HETATM   37  C3  UNL     1      33.737  57.456  20.092  1.00  0.00     0.430 C 
HETATM   38  N3  UNL     1      33.562  57.963  21.422  1.00  0.00    -0.040 N 
HETATM   39  C4  UNL     1      33.080  56.895  22.253  1.00  0.00     0.262 C 
ATOM     40  H32 UNL     1      34.408  58.396  21.792  1.00  0.00     0.279 HD
ATOM     41  H31 UNL     1      32.961  58.786  21.452  1.00  0.00     0.279 HD
HETATM   42  C5  UNL     1      33.123  55.678  21.385  1.00  0.00     0.262 C 
HETATM   43  N4  UNL     1      33.043  56.187  20.029  1.00  0.00    -0.040 N 
ATOM     44  H42 UNL     1      32.095  56.245  19.657  1.00  0.00     0.279 HD
ATOM     45  H41 UNL     1      33.400  55.548  19.319  1.00  0.00     0.279 HD
ENDBRANCH  34  37
ENDBRANCH  32  34
ENDBRANCH  28  32
ENDBRANCH   1  28
TORSDOF 9
ENDMDL
MODEL 2
REMARK VINA RESULT: -8.491305080      2.996      5.009
REMARK  9 active torsions:
REMARK  status: ('A' for Active; 'I' for Inactive)
REMARK    1  A    between atoms: C1_4  and  N2_5 
REMARK    2  A    between atoms: C1_4  and  C6_19 
REMARK    3  A    between atoms: N2_5  and  C2_7 
REMARK    4  A    between atoms: C2_7  and  O1_8 
REMARK    5  A    between atoms: C2_7  and  C3_10 
REMARK    6  A    between atoms: C11_24  and  N5_25 
REMARK    7  A    between atoms: C13_27  and  C14_28 
REMARK    8  A    between atoms: C15_29  and  N6_30 
REMARK    9  A    between atoms: N6_30  and  O2_32 
ROOT
HETATM    1  C6  UNL     1      36.528  56.365  17.764  1.00  0.00     0.036 A 
HETATM    2  C7  UNL     1      36.026  57.225  18.760  1.00  0.00     0.017 A 
HETATM    3  C8  UNL     1      36.666  58.361  19.176  1.00  0.00     0.001 A 
HETATM    4  C9  UNL     1      37.867  58.645  18.563  1.00  0.00     0.002 A 
HETATM    5  C10 UNL     1      38.419  57.863  17.592  1.00  0.00     0.032 A 
HETATM    6  C11 UNL     1      37.725  56.702  17.193  1.00  0.00     0.071 A 
ENDROOT
BRANCH   6   7
HETATM    7  N5  UNL     1      38.294  55.884  16.184  1.00  0.00    -0.250 N 
HETATM    8  C12 UNL     1      37.922  55.810  14.900  1.00  0.00     0.150 A 
HETATM    9  C13 UNL     1      38.763  54.914  14.224  1.00  0.00     0.086 A 
HETATM   10  N9  UNL     1      39.623  54.486  15.173  1.00  0.00    -0.283 N 
HETATM   11  N10 UNL     1      39.322  55.075  16.315  1.00  0.00    -0.236 N 
ATOM     12  H9  UNL     1      40.380  53.818  15.031  1.00  0.00     0.188 HD
ATOM     13  H10 UNL     1      39.823  54.920  17.190  1.00  0.00     0.209 HD
BRANCH   9  14
HETATM   14  C14 UNL     1      38.711  54.545  12.836  1.00  0.00     0.107 A 
HETATM   15  C15 UNL     1      38.043  53.422  12.410  1.00  0.00     0.147 A 
HETATM   16  N7  UNL     1      38.039  53.144  11.097  1.00  0.00    -0.292 N 
HETATM   17  C16 UNL     1      38.661  53.918  10.186  1.00  0.00     0.328 A 
ATOM     18  H7  UNL     1      37.543  52.311  10.776  1.00  0.00     0.172 HD
HETATM   19  O3  UNL     1      38.607  53.579   8.959  1.00  0.00    -0.247 OA
HETATM   20  N8  UNL     1      39.317  55.013  10.574  1.00  0.00    -0.275 N 
HETATM   21  C17 UNL     1      39.338  55.318  11.884  1.00  0.00     0.265 A 
ATOM     22  H8  UNL     1      39.791  55.605   9.893  1.00  0.00     0.173 HD
HETATM   23  O4  UNL     1      39.975  56.369  12.198  1.00  0.00    -0.267 OA
BRANCH  15  24
HETATM   24  N6  UNL     1      37.363  52.553  13.289  1.00  0.00    -0.252 N 
ATOM     25  H6  UNL     1      36.413  52.797  13.570  1.00  0.00     0.196 HD
BRANCH  24  26
HETATM   26  O2  UNL     1      37.864  51.500  13.742  1.00  0.00    -0.288 OA
ATOM     27  H2  UNL     1      37.371  50.698  13.868  1.00  0.00     0.244 HD
ENDBRANCH  24  26
ENDBRANCH  15  24
ENDBRANCH   9  14
ENDBRANCH   6   7
BRANCH   1  28
HETATM   28  C1  UNL     1      35.759  55.195  17.410  1.00  0.00     0.109 C 
HETATM   29  N1  UNL     1      34.619  55.176  16.873  1.00  0.00    -0.385 N 
ATOM     30  H12 UNL     1      34.076  54.350  16.623  1.00  0.00     0.157 HD
ATOM     31  H11 UNL     1      34.219  56.094  16.678  1.00  0.00     0.157 HD
BRANCH  28  32
HETATM   32  N2  UNL     1      36.326  53.894  17.686  1.00  0.00    -0.347 N 
ATOM     33  H2  UNL     1      36.772  53.728  18.588  1.00  0.00     0.163 HD
BRANCH  32  34
HETATM   34  C2  UNL     1      36.276  52.831  16.723  1.00  0.00     0.278 C 
BRANCH  34  35
HETATM   35  O1  UNL     1      34.985  52.306  16.743  1.00  0.00    -0.373 OA
ATOM     36  H1  UNL     1      34.791  51.992  15.867  1.00  0.00     0.212 HD
ENDBRANCH  34  35
BRANCH  34  37
HETATM   37  C3  UNL     1      37.235  51.701  17.042  1.00  0.00     0.430 C 
HETATM   38  N3  UNL     1      36.637  50.657  17.822  1.00  0.00    -0.040 N 
HETATM   39  C4  UNL     1      37.089  50.792  19.179  1.00  0.00     0.262 C 
ATOM     40  H32 UNL     1      35.620  50.645  17.747  1.00  0.00     0.279 HD
ATOM     41  H31 UNL     1      36.815  49.730  17.438  1.00  0.00     0.279 HD
HETATM   42  C5  UNL     1      37.869  52.067  19.204  1.00  0.00     0.262 C 
HETATM   43  N4  UNL     1      38.310  52.258  17.835  1.00  0.00    -0.040 N 
ATOM     44  H42 UNL     1      39.230  51.865  17.632  1.00  0.00     0.279 HD
ATOM     45  H41 UNL     1      38.549  53.222  17.602  1.00  0.00     0.279 HD
ENDBRANCH  34  37
ENDBRANCH  32  34
ENDBRANCH  28  32
ENDBRANCH   1  28
TORSDOF 9
ENDMDL
MODEL 3
REMARK VINA RESULT: -8.369328396      3.091      5.255
REMARK  9 active torsions:
REMARK  status: ('A' for Active; 'I' for Inactive)
REMARK    1  A    between atoms: C1_4  and  N2_5 
REMARK    2  A    between atoms: C1_4  and  C6_19 
REMARK    3  A    between atoms: N2_5  and  C2_7 
REMARK    4  A    between atoms: C2_7  and  O1_8 
REMARK    5  A    between atoms: C2_7  and  C3_10 
REMARK    6  A    between atoms: C11_24  and  N5_25 
REMARK    7  A    between atoms: C13_27  and  C14_28 
REMARK    8  A    between atoms: C15_29  and  N6_30 
REMARK    9  A    between atoms: N6_30  and  O2_32 
ROOT
HETATM    1  C6  UNL     1      36.673  56.286  17.632  1.00  0.00     0.036 A 
HETATM    2  C7  UNL     1      36.276  57.215  18.612  1.00  0.00     0.017 A 
HETATM    3  C8  UNL     1      37.010  58.317  18.957  1.00  0.00     0.001 A 
HETATM    4  C9  UNL     1      38.200  58.493  18.286  1.00  0.00     0.002 A 
HETATM    5  C10 UNL     1      38.654  57.639  17.324  1.00  0.00     0.032 A 
HETATM    6  C11 UNL     1      37.865  56.516  17.000  1.00  0.00     0.071 A 
ENDROOT
BRANCH   6   7
HETATM    7  N5  UNL     1      38.332  55.624  16.002  1.00  0.00    -0.250 N 
HETATM    8  C12 UNL     1      37.817  55.438  14.781  1.00  0.00     0.150 A 
HETATM    9  C13 UNL     1      38.594  54.499  14.086  1.00  0.00     0.086 A 
HETATM   10  N9  UNL     1      39.565  54.161  14.962  1.00  0.00    -0.283 N 
HETATM   11  N10 UNL     1      39.385  54.839  16.079  1.00  0.00    -0.236 N 
ATOM     12  H9  UNL     1      40.315  53.492  14.788  1.00  0.00     0.188 HD
ATOM     13  H10 UNL     1      39.986  54.764  16.900  1.00  0.00     0.209 HD
BRANCH   9  14
HETATM   14  C14 UNL     1      38.392  54.015  12.748  1.00  0.00     0.107 A 
HETATM   15  C15 UNL     1      39.000  54.605  11.666  1.00  0.00     0.147 A 
HETATM   16  N7  UNL     1      38.762  54.096  10.447  1.00  0.00    -0.292 N 
HETATM   17  C16 UNL     1      37.953  53.037  10.245  1.00  0.00     0.328 A 
ATOM     18  H7  UNL     1      39.211  54.529   9.640  1.00  0.00     0.172 HD
HETATM   19  O3  UNL     1      37.782  52.618   9.054  1.00  0.00    -0.247 OA
HETATM   20  N8  UNL     1      37.352  52.447  11.279  1.00  0.00    -0.275 N 
HETATM   21  C17 UNL     1      37.572  52.935  12.513  1.00  0.00     0.265 A 
ATOM     22  H8  UNL     1      36.738  51.645  11.138  1.00  0.00     0.173 HD
HETATM   23  O4  UNL     1      36.975  52.337  13.460  1.00  0.00    -0.267 OA
BRANCH  15  24
HETATM   24  N6  UNL     1      39.861  55.716  11.779  1.00  0.00    -0.252 N 
ATOM     25  H6  UNL     1      40.780  55.662  11.341  1.00  0.00     0.196 HD
BRANCH  24  26
HETATM   26  O2  UNL     1      39.556  56.766  12.389  1.00  0.00    -0.288 OA
ATOM     27  H2  UNL     1      40.152  57.495  12.506  1.00  0.00     0.244 HD
ENDBRANCH  24  26
ENDBRANCH  15  24
ENDBRANCH   9  14
ENDBRANCH   6   7
BRANCH   1  28
HETATM   28  C1  UNL     1      35.810  55.161  17.356  1.00  0.00     0.109 C 
HETATM   29  N1  UNL     1      34.656  55.202  16.852  1.00  0.00    -0.385 N 
ATOM     30  H12 UNL     1      34.046  54.408  16.657  1.00  0.00     0.157 HD
ATOM     31  H11 UNL     1      34.317  56.138  16.625  1.00  0.00     0.157 HD
BRANCH  28  32
HETATM   32  N2  UNL     1      36.289  53.836  17.678  1.00  0.00    -0.347 N 
ATOM     33  H2  UNL     1      36.672  53.657  18.606  1.00  0.00     0.163 HD
BRANCH  32  34
HETATM   34  C2  UNL     1      36.240  52.765  16.723  1.00  0.00     0.278 C 
BRANCH  34  35
HETATM   35  O1  UNL     1      34.953  52.233  16.754  1.00  0.00    -0.373 OA
ATOM     36  H1  UNL     1      34.411  52.763  16.181  1.00  0.00     0.212 HD
ENDBRANCH  34  35
BRANCH  34  37
HETATM   37  C3  UNL     1      37.208  51.643  17.045  1.00  0.00     0.430 C 
HETATM   38  N3  UNL     1      36.622  50.605  17.841  1.00  0.00    -0.040 N 
HETATM   39  C4  UNL     1      37.085  50.756  19.193  1.00  0.00     0.262 C 
ATOM     40  H32 UNL     1      35.604  50.586  17.775  1.00  0.00     0.279 HD
ATOM     41  H31 UNL     1      36.802  49.674  17.466  1.00  0.00     0.279 HD
HETATM   42  C5  UNL     1      37.859  52.035  19.198  1.00  0.00     0.262 C 
HETATM   43  N4  UNL     1      38.287  52.214  17.823  1.00  0.00    -0.040 N 
ATOM     44  H42 UNL     1      39.207  51.823  17.616  1.00  0.00     0.279 HD
ATOM     45  H41 UNL     1      38.519  53.176  17.577  1.00  0.00     0.279 HD
ENDBRANCH  34  37
ENDBRANCH  32  34
ENDBRANCH  28  32
ENDBRANCH   1  28
TORSDOF 9
ENDMDL
MODEL 4
REMARK VINA RESULT: -8.149635349      0.682      1.818
REMARK  9 active torsions:
REMARK  status: ('A' for Active; 'I' for Inactive)
REMARK    1  A    between atoms: C1_4  and  N2_5 
REMARK    2  A    between atoms: C1_4  and  C6_19 
REMARK    3  A    between atoms: N2_5  and  C2_7 
REMARK    4  A    between atoms: C2_7  and  O1_8 
REMARK    5  A    between atoms: C2_7  and  C3_10 
REMARK    6  A    between atoms: C11_24  and  N5_25 
REMARK    7  A    between atoms: C13_27  and  C14_28 
REMARK    8  A    between atoms: C15_29  and  N6_30 
REMARK    9  A    between atoms: N6_30  and  O2_32 
ROOT
HETATM    1  C6  UNL     1      37.933  59.774  19.871  1.00  0.00     0.036 A 
HETATM    2  C7  UNL     1      38.411  60.675  20.842  1.00  0.00     0.017 A 
HETATM    3  C8  UNL     1      39.717  61.074  20.932  1.00  0.00     0.001 A 
HETATM    4  C9  UNL     1      40.584  60.541  20.002  1.00  0.00     0.002 A 
HETATM    5  C10 UNL     1      40.199  59.663  19.032  1.00  0.00     0.032 A 
HETATM    6  C11 UNL     1      38.843  59.280  18.976  1.00  0.00     0.071 A 
ENDROOT
BRANCH   6   7
HETATM    7  N5  UNL     1      38.437  58.367  17.970  1.00  0.00    -0.250 N 
HETATM    8  C12 UNL     1      38.732  57.063  17.897  1.00  0.00     0.150 A 
HETATM    9  C13 UNL     1      38.104  56.508  16.772  1.00  0.00     0.086 A 
HETATM   10  N9  UNL     1      37.446  57.546  16.213  1.00  0.00    -0.283 N 
HETATM   11  N10 UNL     1      37.660  58.626  16.941  1.00  0.00    -0.236 N 
ATOM     12  H9  UNL     1      36.876  57.503  15.369  1.00  0.00     0.188 HD
ATOM     13  H10 UNL     1      37.273  59.546  16.731  1.00  0.00     0.209 HD
BRANCH   9  14
HETATM   14  C14 UNL     1      38.158  55.142  16.327  1.00  0.00     0.107 A 
HETATM   15  C15 UNL     1      38.995  54.745  15.312  1.00  0.00     0.147 A 
HETATM   16  N7  UNL     1      38.989  53.451  14.952  1.00  0.00    -0.292 N 
HETATM   17  C16 UNL     1      38.198  52.534  15.544  1.00  0.00     0.328 A 
ATOM     18  H7  UNL     1      39.610  53.150  14.200  1.00  0.00     0.172 HD
HETATM   19  O3  UNL     1      38.256  51.328  15.140  1.00  0.00    -0.247 OA
HETATM   20  N8  UNL     1      37.377  52.895  16.531  1.00  0.00    -0.275 N 
HETATM   21  C17 UNL     1      37.361  54.185  16.914  1.00  0.00     0.265 A 
ATOM     22  H8  UNL     1      36.775  52.209  16.986  1.00  0.00     0.173 HD
HETATM   23  O4  UNL     1      36.563  54.473  17.856  1.00  0.00    -0.267 OA
BRANCH  15  24
HETATM   24  N6  UNL     1      39.858  55.632  14.635  1.00  0.00    -0.252 N 
ATOM     25  H6  UNL     1      40.681  55.976  15.129  1.00  0.00     0.196 HD
BRANCH  24  26
HETATM   26  O2  UNL     1      39.665  56.019  13.461  1.00  0.00    -0.288 OA
ATOM     27  H2  UNL     1      40.332  55.992  12.785  1.00  0.00     0.244 HD
ENDBRANCH  24  26
ENDBRANCH  15  24
ENDBRANCH   9  14
ENDBRANCH   6   7
BRANCH   1  28
HETATM   28  C1  UNL     1      36.530  59.430  19.878  1.00  0.00     0.109 C 
HETATM   29  N1  UNL     1      35.586  60.107  19.391  1.00  0.00    -0.385 N 
ATOM     30  H12 UNL     1      34.595  59.864  19.396  1.00  0.00     0.157 HD
ATOM     31  H11 UNL     1      35.866  60.984  18.951  1.00  0.00     0.157 HD
BRANCH  28  32
HETATM   32  N2  UNL     1      36.134  58.188  20.501  1.00  0.00    -0.347 N 
ATOM     33  H2  UNL     1      36.499  57.955  21.424  1.00  0.00     0.163 HD
BRANCH  32  34
HETATM   34  C2  UNL     1      35.239  57.272  19.852  1.00  0.00     0.278 C 
BRANCH  34  35
HETATM   35  O1  UNL     1      35.365  57.465  18.477  1.00  0.00    -0.373 OA
ATOM     36  H1  UNL     1      35.392  56.607  18.070  1.00  0.00     0.212 HD
ENDBRANCH  34  35
BRANCH  34  37
HETATM   37  C3  UNL     1      33.786  57.510  20.216  1.00  0.00     0.430 C 
HETATM   38  N3  UNL     1      33.607  57.928  21.575  1.00  0.00    -0.040 N 
HETATM   39  C4  UNL     1      33.122  56.807  22.333  1.00  0.00     0.262 C 
ATOM     40  H32 UNL     1      34.452  58.335  21.975  1.00  0.00     0.279 HD
ATOM     41  H31 UNL     1      33.006  58.747  21.658  1.00  0.00     0.279 HD
HETATM   42  C5  UNL     1      33.167  55.650  21.387  1.00  0.00     0.262 C 
HETATM   43  N4  UNL     1      33.092  56.248  20.067  1.00  0.00    -0.040 N 
ATOM     44  H42 UNL     1      32.145  56.330  19.697  1.00  0.00     0.279 HD
ATOM     45  H41 UNL     1      33.451  55.657  19.318  1.00  0.00     0.279 HD
ENDBRANCH  34  37
ENDBRANCH  32  34
ENDBRANCH  28  32
ENDBRANCH   1  28
TORSDOF 9
ENDMDL
MODEL 5
REMARK VINA RESULT: -8.025803342      2.544      5.120
REMARK  9 active torsions:
REMARK  status: ('A' for Active; 'I' for Inactive)
REMARK    1  A    between atoms: C1_4  and  N2_5 
REMARK    2  A    between atoms: C1_4  and  C6_19 
REMARK    3  A    between atoms: N2_5  and  C2_7 
REMARK    4  A    between atoms: C2_7  and  O1_8 
REMARK    5  A    between atoms: C2_7  and  C3_10 
REMARK    6  A    between atoms: C11_24  and  N5_25 
REMARK    7  A    between atoms: C13_27  and  C14_28 
REMARK    8  A    between atoms: C15_29  and  N6_30 
REMARK    9  A    between atoms: N6_30  and  O2_32 
ROOT
HETATM    1  C6  UNL     1      38.264  59.916  19.900  1.00  0.00     0.036 A 
HETATM    2  C7  UNL     1      38.034  60.830  20.947  1.00  0.00     0.017 A 
HETATM    3  C8  UNL     1      36.789  61.240  21.338  1.00  0.00     0.001 A 
HETATM    4  C9  UNL     1      35.724  60.708  20.643  1.00  0.00     0.002 A 
HETATM    5  C10 UNL     1      35.864  59.818  19.618  1.00  0.00     0.032 A 
HETATM    6  C11 UNL     1      37.166  59.422  19.250  1.00  0.00     0.071 A 
ENDROOT
BRANCH   6   7
HETATM    7  N5  UNL     1      37.319  58.499  18.185  1.00  0.00    -0.250 N 
HETATM    8  C12 UNL     1      37.406  57.166  18.279  1.00  0.00     0.150 A 
HETATM    9  C13 UNL     1      37.507  56.616  16.992  1.00  0.00     0.086 A 
HETATM   10  N9  UNL     1      37.475  57.687  16.170  1.00  0.00    -0.283 N 
HETATM   11  N10 UNL     1      37.363  58.780  16.901  1.00  0.00    -0.236 N 
ATOM     12  H9  UNL     1      37.527  57.656  15.152  1.00  0.00     0.188 HD
ATOM     13  H10 UNL     1      37.317  59.724  16.518  1.00  0.00     0.209 HD
BRANCH   9  14
HETATM   14  C14 UNL     1      37.620  55.226  16.643  1.00  0.00     0.107 A 
HETATM   15  C15 UNL     1      36.585  54.344  16.844  1.00  0.00     0.147 A 
HETATM   16  N7  UNL     1      36.765  53.061  16.492  1.00  0.00    -0.292 N 
HETATM   17  C16 UNL     1      37.915  52.608  15.954  1.00  0.00     0.328 A 
ATOM     18  H7  UNL     1      36.000  52.402  16.638  1.00  0.00     0.172 HD
HETATM   19  O3  UNL     1      38.001  51.374  15.650  1.00  0.00    -0.247 OA
HETATM   20  N8  UNL     1      38.933  53.445  15.749  1.00  0.00    -0.275 N 
HETATM   21  C17 UNL     1      38.782  54.737  16.092  1.00  0.00     0.265 A 
ATOM     22  H8  UNL     1      39.808  53.112  15.343  1.00  0.00     0.173 HD
HETATM   23  O4  UNL     1      39.781  55.488  15.876  1.00  0.00    -0.267 OA
BRANCH  15  24
HETATM   24  N6  UNL     1      35.346  54.726  17.400  1.00  0.00    -0.252 N 
ATOM     25  H6  UNL     1      35.248  54.713  18.416  1.00  0.00     0.196 HD
BRANCH  24  26
HETATM   26  O2  UNL     1      34.362  55.080  16.713  1.00  0.00    -0.288 OA
ATOM     27  H2  UNL     1      34.435  55.613  15.931  1.00  0.00     0.244 HD
ENDBRANCH  24  26
ENDBRANCH  15  24
ENDBRANCH   9  14
ENDBRANCH   6   7
BRANCH   1  28
HETATM   28  C1  UNL     1      39.627  59.559  19.582  1.00  0.00     0.109 C 
HETATM   29  N1  UNL     1      40.156  59.547  18.438  1.00  0.00    -0.385 N 
ATOM     30  H12 UNL     1      41.118  59.296  18.213  1.00  0.00     0.157 HD
ATOM     31  H11 UNL     1      39.537  59.820  17.674  1.00  0.00     0.157 HD
BRANCH  28  32
HETATM   32  N2  UNL     1      40.504  59.173  20.664  1.00  0.00    -0.347 N 
ATOM     33  H2  UNL     1      40.097  58.867  21.548  1.00  0.00     0.163 HD
BRANCH  32  34
HETATM   34  C2  UNL     1      41.932  59.207  20.525  1.00  0.00     0.278 C 
BRANCH  34  35
HETATM   35  O1  UNL     1      42.351  57.926  20.172  1.00  0.00    -0.373 OA
ATOM     36  H1  UNL     1      43.252  57.831  20.457  1.00  0.00     0.212 HD
ENDBRANCH  34  35
BRANCH  34  37
HETATM   37  C3  UNL     1      42.641  59.582  21.811  1.00  0.00     0.430 C 
HETATM   38  N3  UNL     1      42.289  60.888  22.289  1.00  0.00    -0.040 N 
HETATM   39  C4  UNL     1      43.369  61.786  21.987  1.00  0.00     0.262 C 
ATOM     40  H32 UNL     1      41.395  61.212  21.922  1.00  0.00     0.279 HD
ATOM     41  H31 UNL     1      42.041  60.890  23.278  1.00  0.00     0.279 HD
HETATM   42  C5  UNL     1      44.324  60.983  21.163  1.00  0.00     0.262 C 
HETATM   43  N4  UNL     1      44.062  59.604  21.531  1.00  0.00    -0.040 N 
ATOM     44  H42 UNL     1      44.645  59.254  22.292  1.00  0.00     0.279 HD
ATOM     45  H41 UNL     1      44.363  58.920  20.838  1.00  0.00     0.279 HD
ENDBRANCH  34  37
ENDBRANCH  32  34
ENDBRANCH  28  32
ENDBRANCH   1  28
TORSDOF 9
ENDMDL
