MODEL 1
REMARK VINA RESULT: -8.081749552      0.000      0.000
REMARK  12 active torsions:
REMARK  status: ('A' for Active; 'I' for Inactive)
REMARK    1  A    between atoms: C2_4  and  N2_5 
REMARK    2  A    between atoms: N2_5  and  S2_7 
REMARK    3  A    between atoms: S2_7  and  C3_9 
REMARK    4  A    between atoms: C3_9  and  C4_10 
REMARK    5  A    between atoms: N3_12  and  C6_13 
REMARK    6  A    between atoms: C6_13  and  C7_14 
REMARK    7  A    between atoms: C7_14  and  N4_15 
REMARK    8  A    between atoms: N4_15  and  C8_17 
REMARK    9  A    between atoms: C11_24  and  N7_25 
REMARK   10  A    between atoms: C12_30  and  N9_31 
REMARK   11  A    between atoms: C14_35  and  N10_36 
REMARK   12  A    between atoms: N10_36  and  O2_38 
ROOT
HETATM    1  C4  UNL     1      37.287  56.851  17.377  1.00  0.00     0.015 A 
HETATM    2  C5  UNL     1      38.100  55.843  16.888  1.00  0.00     0.121 A 
HETATM    3  N3  UNL     1      37.718  54.562  16.894  1.00  0.00    -0.192 N 
HETATM    4  C11 UNL     1      36.506  54.250  17.389  1.00  0.00     0.679 A 
HETATM    5  N8  UNL     1      35.702  55.183  17.864  1.00  0.00    -0.177 N 
ATOM      6  H8  UNL     1      34.789  54.916  18.233  1.00  0.00     0.186 HD
HETATM    7  C12 UNL     1      36.061  56.476  17.871  1.00  0.00     0.123 A 
ENDROOT
BRANCH   1   8
HETATM    8  C3  UNL     1      37.669  58.256  17.387  1.00  0.00     0.176 C 
BRANCH   8   9
HETATM    9  S2  UNL     1      38.412  58.787  18.896  1.00  0.00     0.119 S 
HETATM   10  O1  UNL     1      37.855  58.146  20.102  1.00  0.00    -0.235 OA
BRANCH   9  11
HETATM   11  N2  UNL     1      39.945  58.376  18.824  1.00  0.00    -0.298 N 
ATOM     12  H2  UNL     1      40.285  57.633  18.214  1.00  0.00     0.177 HD
BRANCH  11  13
HETATM   13  C2  UNL     1      40.812  59.123  19.677  1.00  0.00     0.102 A 
HETATM   14  S1  UNL     1      40.569  60.686  20.297  1.00  0.00     0.008 SA
HETATM   15  N1  UNL     1      41.992  60.857  21.184  1.00  0.00    -0.305 N 
HETATM   16  C1  UNL     1      42.438  62.011  21.997  1.00  0.00     0.167 C 
HETATM   17  C14 UNL     1      42.630  59.705  20.987  1.00  0.00     0.135 A 
HETATM   18  C13 UNL     1      42.026  58.783  20.199  1.00  0.00     0.090 A 
BRANCH  17  19
HETATM   19  N10 UNL     1      43.813  59.447  21.531  1.00  0.00    -0.252 N 
ATOM     20  H10 UNL     1      44.659  59.555  20.972  1.00  0.00     0.196 HD
BRANCH  19  21
HETATM   21  O2  UNL     1      43.912  59.040  22.826  1.00  0.00    -0.288 OA
ATOM     22  H2  UNL     1      43.477  59.518  23.522  1.00  0.00     0.244 HD
ENDBRANCH  19  21
ENDBRANCH  17  19
ENDBRANCH  11  13
ENDBRANCH   9  11
ENDBRANCH   8   9
ENDBRANCH   1   8
BRANCH   7  23
HETATM   23  N9  UNL     1      35.205  57.315  18.355  1.00  0.00    -0.385 N 
ATOM     24  H92 UNL     1      35.581  58.174  18.755  1.00  0.00     0.157 HD
ATOM     25  H91 UNL     1      34.199  57.152  18.352  1.00  0.00     0.157 HD
ENDBRANCH   7  23
BRANCH   3  26
HETATM   26  C6  UNL     1      38.559  53.507  16.396  1.00  0.00     0.166 C 
BRANCH  26  27
HETATM   27  C7  UNL     1      38.902  53.593  14.951  1.00  0.00     0.143 C 
BRANCH  27  28
HETATM   28  N4  UNL     1      39.176  52.363  14.288  1.00  0.00    -0.361 N 
ATOM     29  H4  UNL     1      39.988  51.800  14.541  1.00  0.00     0.162 HD
BRANCH  28  30
HETATM   30  C8  UNL     1      38.271  51.937  13.249  1.00  0.00     0.171 C 
HETATM   31  N5  UNL     1      37.248  52.635  12.898  1.00  0.00    -0.361 N 
HETATM   32  C9  UNL     1      36.508  52.008  11.852  1.00  0.00     0.142 C 
ATOM     33  H5  UNL     1      36.997  53.530  13.317  1.00  0.00     0.162 HD
HETATM   34  C10 UNL     1      37.429  50.882  11.382  1.00  0.00     0.142 C 
HETATM   35  N6  UNL     1      38.340  50.750  12.477  1.00  0.00    -0.361 N 
ATOM     36  H6  UNL     1      38.934  49.943  12.669  1.00  0.00     0.162 HD
ENDBRANCH  28  30
ENDBRANCH  27  28
ENDBRANCH  26  27
ENDBRANCH   3  26
BRANCH   4  37
HETATM   37  N7  UNL     1      36.123  52.993  17.398  1.00  0.00    -0.234 N 
ATOM     38  H72 UNL     1      36.279  52.423  18.229  1.00  0.00     0.174 HD
ATOM     39  H71 UNL     1      35.672  52.606  16.570  1.00  0.00     0.174 HD
ENDBRANCH   4  37
TORSDOF 12
ENDMDL
MODEL 2
REMARK VINA RESULT: -7.957169153      3.736      9.677
REMARK  12 active torsions:
REMARK  status: ('A' for Active; 'I' for Inactive)
REMARK    1  A    between atoms: C2_4  and  N2_5 
REMARK    2  A    between atoms: N2_5  and  S2_7 
REMARK    3  A    between atoms: S2_7  and  C3_9 
REMARK    4  A    between atoms: C3_9  and  C4_10 
REMARK    5  A    between atoms: N3_12  and  C6_13 
REMARK    6  A    between atoms: C6_13  and  C7_14 
REMARK    7  A    between atoms: C7_14  and  N4_15 
REMARK    8  A    between atoms: N4_15  and  C8_17 
REMARK    9  A    between atoms: C11_24  and  N7_25 
REMARK   10  A    between atoms: C12_30  and  N9_31 
REMARK   11  A    between atoms: C14_35  and  N10_36 
REMARK   12  A    between atoms: N10_36  and  O2_38 
ROOT
HETATM    1  C4  UNL     1      37.233  55.229  16.350  1.00  0.00     0.015 A 
HETATM    2  C5  UNL     1      37.781  56.467  16.635  1.00  0.00     0.121 A 
HETATM    3  N3  UNL     1      37.322  57.230  17.634  1.00  0.00    -0.192 N 
HETATM    4  C11 UNL     1      36.298  56.773  18.378  1.00  0.00     0.679 A 
HETATM    5  N8  UNL     1      35.749  55.597  18.137  1.00  0.00    -0.177 N 
ATOM      6  H8  UNL     1      34.974  55.279  18.719  1.00  0.00     0.186 HD
HETATM    7  C12 UNL     1      36.190  54.813  17.141  1.00  0.00     0.123 A 
ENDROOT
BRANCH   1   8
HETATM    8  C3  UNL     1      37.706  54.372  15.272  1.00  0.00     0.176 C 
BRANCH   8   9
HETATM    9  S2  UNL     1      38.638  52.979  15.818  1.00  0.00     0.119 S 
HETATM   10  O1  UNL     1      37.826  51.778  16.094  1.00  0.00    -0.235 OA
BRANCH   9  11
HETATM   11  N2  UNL     1      39.634  52.599  14.640  1.00  0.00    -0.298 N 
ATOM     12  H2  UNL     1      40.643  52.541  14.774  1.00  0.00     0.177 HD
BRANCH  11  13
HETATM   13  C2  UNL     1      39.013  52.344  13.381  1.00  0.00     0.102 A 
HETATM   14  S1  UNL     1      38.964  53.361  12.020  1.00  0.00     0.008 SA
HETATM   15  N1  UNL     1      38.077  52.381  10.973  1.00  0.00    -0.305 N 
HETATM   16  C1  UNL     1      37.662  52.661   9.580  1.00  0.00     0.167 C 
HETATM   17  C14 UNL     1      37.834  51.287  11.692  1.00  0.00     0.135 A 
HETATM   18  C13 UNL     1      38.317  51.249  12.957  1.00  0.00     0.090 A 
BRANCH  17  19
HETATM   19  N10 UNL     1      37.147  50.259  11.208  1.00  0.00    -0.252 N 
ATOM     20  H10 UNL     1      36.136  50.225  11.335  1.00  0.00     0.196 HD
BRANCH  19  21
HETATM   21  O2  UNL     1      37.774  49.250  10.545  1.00  0.00    -0.288 OA
ATOM     22  H2  UNL     1      37.286  48.657   9.986  1.00  0.00     0.244 HD
ENDBRANCH  19  21
ENDBRANCH  17  19
ENDBRANCH  11  13
ENDBRANCH   9  11
ENDBRANCH   8   9
ENDBRANCH   1   8
BRANCH   7  23
HETATM   23  N9  UNL     1      35.589  53.679  16.984  1.00  0.00    -0.385 N 
ATOM     24  H92 UNL     1      34.725  53.541  17.508  1.00  0.00     0.157 HD
ATOM     25  H91 UNL     1      35.939  52.941  16.374  1.00  0.00     0.157 HD
ENDBRANCH   7  23
BRANCH   3  26
HETATM   26  C6  UNL     1      37.879  58.522  17.933  1.00  0.00     0.166 C 
BRANCH  26  27
HETATM   27  C7  UNL     1      39.254  58.507  18.502  1.00  0.00     0.143 C 
BRANCH  27  28
HETATM   28  N4  UNL     1      39.439  59.196  19.734  1.00  0.00    -0.361 N 
ATOM     29  H4  UNL     1      38.667  59.692  20.179  1.00  0.00     0.162 HD
BRANCH  28  30
HETATM   30  C8  UNL     1      40.750  59.171  20.334  1.00  0.00     0.171 C 
HETATM   31  N5  UNL     1      41.777  58.690  19.725  1.00  0.00    -0.361 N 
HETATM   32  C9  UNL     1      42.958  58.777  20.520  1.00  0.00     0.142 C 
ATOM     33  H5  UNL     1      41.750  58.293  18.786  1.00  0.00     0.162 HD
HETATM   34  C10 UNL     1      42.550  59.691  21.676  1.00  0.00     0.142 C 
HETATM   35  N6  UNL     1      41.120  59.641  21.619  1.00  0.00    -0.361 N 
ATOM     36  H6  UNL     1      40.481  59.899  22.371  1.00  0.00     0.162 HD
ENDBRANCH  28  30
ENDBRANCH  27  28
ENDBRANCH  26  27
ENDBRANCH   3  26
BRANCH   4  37
HETATM   37  N7  UNL     1      35.841  57.516  19.361  1.00  0.00    -0.234 N 
ATOM     38  H72 UNL     1      36.480  57.853  20.080  1.00  0.00     0.174 HD
ATOM     39  H71 UNL     1      34.847  57.746  19.389  1.00  0.00     0.174 HD
ENDBRANCH   4  37
TORSDOF 12
ENDMDL
MODEL 3
REMARK VINA RESULT: -7.939964038      2.083      2.538
REMARK  12 active torsions:
REMARK  status: ('A' for Active; 'I' for Inactive)
REMARK    1  A    between atoms: C2_4  and  N2_5 
REMARK    2  A    between atoms: N2_5  and  S2_7 
REMARK    3  A    between atoms: S2_7  and  C3_9 
REMARK    4  A    between atoms: C3_9  and  C4_10 
REMARK    5  A    between atoms: N3_12  and  C6_13 
REMARK    6  A    between atoms: C6_13  and  C7_14 
REMARK    7  A    between atoms: C7_14  and  N4_15 
REMARK    8  A    between atoms: N4_15  and  C8_17 
REMARK    9  A    between atoms: C11_24  and  N7_25 
REMARK   10  A    between atoms: C12_30  and  N9_31 
REMARK   11  A    between atoms: C14_35  and  N10_36 
REMARK   12  A    between atoms: N10_36  and  O2_38 
ROOT
HETATM    1  C4  UNL     1      36.280  58.126  18.521  1.00  0.00     0.015 A 
HETATM    2  C5  UNL     1      37.014  57.537  17.506  1.00  0.00     0.121 A 
HETATM    3  N3  UNL     1      36.696  56.337  17.010  1.00  0.00    -0.192 N 
HETATM    4  C11 UNL     1      35.631  55.688  17.515  1.00  0.00     0.679 A 
HETATM    5  N8  UNL     1      34.906  56.216  18.484  1.00  0.00    -0.177 N 
ATOM      6  H8  UNL     1      34.105  55.700  18.847  1.00  0.00     0.186 HD
HETATM    7  C12 UNL     1      35.203  57.419  19.000  1.00  0.00     0.123 A 
ENDROOT
BRANCH   1   8
HETATM    8  C3  UNL     1      36.595  59.430  19.087  1.00  0.00     0.176 C 
BRANCH   8   9
HETATM    9  S2  UNL     1      38.028  59.440  20.113  1.00  0.00     0.119 S 
HETATM   10  O1  UNL     1      38.258  58.179  20.844  1.00  0.00    -0.235 OA
BRANCH   9  11
HETATM   11  N2  UNL     1      39.279  59.650  19.156  1.00  0.00    -0.298 N 
ATOM     12  H2  UNL     1      39.179  59.883  18.169  1.00  0.00     0.177 HD
BRANCH  11  13
HETATM   13  C2  UNL     1      40.552  59.486  19.779  1.00  0.00     0.102 A 
HETATM   14  S1  UNL     1      41.197  60.373  21.077  1.00  0.00     0.008 SA
HETATM   15  N1  UNL     1      42.691  59.605  21.223  1.00  0.00    -0.305 N 
HETATM   16  C1  UNL     1      43.781  59.886  22.184  1.00  0.00     0.167 C 
HETATM   17  C14 UNL     1      42.666  58.677  20.269  1.00  0.00     0.135 A 
HETATM   18  C13 UNL     1      41.551  58.600  19.501  1.00  0.00     0.090 A 
BRANCH  17  19
HETATM   19  N10 UNL     1      43.681  57.848  20.058  1.00  0.00    -0.252 N 
ATOM     20  H10 UNL     1      44.597  58.064  20.452  1.00  0.00     0.196 HD
BRANCH  19  21
HETATM   21  O2  UNL     1      43.516  56.715  19.323  1.00  0.00    -0.288 OA
ATOM     22  H2  UNL     1      42.853  56.076  19.556  1.00  0.00     0.244 HD
ENDBRANCH  19  21
ENDBRANCH  17  19
ENDBRANCH  11  13
ENDBRANCH   9  11
ENDBRANCH   8   9
ENDBRANCH   1   8
BRANCH   7  23
HETATM   23  N9  UNL     1      34.434  57.852  19.945  1.00  0.00    -0.385 N 
ATOM     24  H92 UNL     1      33.492  58.135  19.676  1.00  0.00     0.157 HD
ATOM     25  H91 UNL     1      34.729  57.920  20.919  1.00  0.00     0.157 HD
ENDBRANCH   7  23
BRANCH   3  26
HETATM   26  C6  UNL     1      37.458  55.714  15.960  1.00  0.00     0.166 C 
BRANCH  26  27
HETATM   27  C7  UNL     1      38.827  55.274  16.341  1.00  0.00     0.143 C 
BRANCH  27  28
HETATM   28  N4  UNL     1      39.874  55.599  15.432  1.00  0.00    -0.361 N 
ATOM     29  H4  UNL     1      40.689  56.129  15.738  1.00  0.00     0.162 HD
BRANCH  28  30
HETATM   30  C8  UNL     1      39.747  55.154  14.066  1.00  0.00     0.171 C 
HETATM   31  N5  UNL     1      39.959  53.934  13.715  1.00  0.00    -0.361 N 
HETATM   32  C9  UNL     1      39.771  53.741  12.315  1.00  0.00     0.142 C 
ATOM     33  H5  UNL     1      40.229  53.194  14.363  1.00  0.00     0.162 HD
HETATM   34  C10 UNL     1      39.100  55.036  11.857  1.00  0.00     0.142 C 
HETATM   35  N6  UNL     1      39.391  55.932  12.935  1.00  0.00    -0.361 N 
ATOM     36  H6  UNL     1      39.349  56.950  12.896  1.00  0.00     0.162 HD
ENDBRANCH  28  30
ENDBRANCH  27  28
ENDBRANCH  26  27
ENDBRANCH   3  26
BRANCH   4  37
HETATM   37  N7  UNL     1      35.313  54.508  17.033  1.00  0.00    -0.234 N 
ATOM     38  H72 UNL     1      34.351  54.320  16.750  1.00  0.00     0.174 HD
ATOM     39  H71 UNL     1      36.036  53.794  16.949  1.00  0.00     0.174 HD
ENDBRANCH   4  37
TORSDOF 12
ENDMDL
MODEL 4
REMARK VINA RESULT: -7.908157507      1.497      1.655
REMARK  12 active torsions:
REMARK  status: ('A' for Active; 'I' for Inactive)
REMARK    1  A    between atoms: C2_4  and  N2_5 
REMARK    2  A    between atoms: N2_5  and  S2_7 
REMARK    3  A    between atoms: S2_7  and  C3_9 
REMARK    4  A    between atoms: C3_9  and  C4_10 
REMARK    5  A    between atoms: N3_12  and  C6_13 
REMARK    6  A    between atoms: C6_13  and  C7_14 
REMARK    7  A    between atoms: C7_14  and  N4_15 
REMARK    8  A    between atoms: N4_15  and  C8_17 
REMARK    9  A    between atoms: C11_24  and  N7_25 
REMARK   10  A    between atoms: C12_30  and  N9_31 
REMARK   11  A    between atoms: C14_35  and  N10_36 
REMARK   12  A    between atoms: N10_36  and  O2_38 
ROOT
HETATM    1  C4  UNL     1      36.834  57.532  17.925  1.00  0.00     0.015 A 
HETATM    2  C5  UNL     1      37.655  56.708  17.174  1.00  0.00     0.121 A 
HETATM    3  N3  UNL     1      37.303  55.456  16.861  1.00  0.00    -0.192 N 
HETATM    4  C11 UNL     1      36.116  54.991  17.291  1.00  0.00     0.679 A 
HETATM    5  N8  UNL     1      35.305  55.746  18.009  1.00  0.00    -0.177 N 
ATOM      6  H8  UNL     1      34.412  55.365  18.321  1.00  0.00     0.186 HD
HETATM    7  C12 UNL     1      35.634  57.005  18.337  1.00  0.00     0.123 A 
ENDROOT
BRANCH   1   8
HETATM    8  C3  UNL     1      37.183  58.899  18.285  1.00  0.00     0.176 C 
BRANCH   8   9
HETATM    9  S2  UNL     1      38.223  59.025  19.702  1.00  0.00     0.119 S 
HETATM   10  O1  UNL     1      37.969  57.999  20.732  1.00  0.00    -0.235 OA
BRANCH   9  11
HETATM   11  N2  UNL     1      39.715  58.810  19.200  1.00  0.00    -0.298 N 
ATOM     12  H2  UNL     1      39.942  58.237  18.388  1.00  0.00     0.177 HD
BRANCH  11  13
HETATM   13  C2  UNL     1      40.715  59.478  19.969  1.00  0.00     0.102 A 
HETATM   14  S1  UNL     1      40.685  61.072  20.554  1.00  0.00     0.008 SA
HETATM   15  N1  UNL     1      42.177  61.108  21.338  1.00  0.00    -0.305 N 
HETATM   16  C1  UNL     1      42.800  62.226  22.082  1.00  0.00     0.167 C 
HETATM   17  C14 UNL     1      42.672  59.889  21.135  1.00  0.00     0.135 A 
HETATM   18  C13 UNL     1      41.919  59.019  20.419  1.00  0.00     0.090 A 
BRANCH  17  19
HETATM   19  N10 UNL     1      43.856  59.516  21.607  1.00  0.00    -0.252 N 
ATOM     20  H10 UNL     1      44.675  59.559  21.002  1.00  0.00     0.196 HD
BRANCH  19  21
HETATM   21  O2  UNL     1      43.990  59.076  22.888  1.00  0.00    -0.288 OA
ATOM     22  H2  UNL     1      43.316  59.249  23.535  1.00  0.00     0.244 HD
ENDBRANCH  19  21
ENDBRANCH  17  19
ENDBRANCH  11  13
ENDBRANCH   9  11
ENDBRANCH   8   9
ENDBRANCH   1   8
BRANCH   7  23
HETATM   23  N9  UNL     1      34.775  57.666  19.042  1.00  0.00    -0.385 N 
ATOM     24  H92 UNL     1      34.284  58.425  18.572  1.00  0.00     0.157 HD
ATOM     25  H91 UNL     1      34.578  57.460  20.021  1.00  0.00     0.157 HD
ENDBRANCH   7  23
BRANCH   3  26
HETATM   26  C6  UNL     1      38.153  54.590  16.089  1.00  0.00     0.166 C 
BRANCH  26  27
HETATM   27  C7  UNL     1      39.096  55.278  15.167  1.00  0.00     0.143 C 
BRANCH  27  28
HETATM   28  N4  UNL     1      38.539  55.817  13.973  1.00  0.00    -0.361 N 
ATOM     29  H4  UNL     1      38.162  56.764  13.950  1.00  0.00     0.162 HD
BRANCH  28  30
HETATM   30  C8  UNL     1      38.522  54.982  12.797  1.00  0.00     0.171 C 
HETATM   31  N5  UNL     1      39.118  55.316  11.706  1.00  0.00    -0.361 N 
HETATM   32  C9  UNL     1      38.960  54.331  10.687  1.00  0.00     0.142 C 
ATOM     33  H5  UNL     1      39.642  56.183  11.586  1.00  0.00     0.162 HD
HETATM   34  C10 UNL     1      38.375  53.131  11.432  1.00  0.00     0.142 C 
HETATM   35  N6  UNL     1      37.886  53.725  12.639  1.00  0.00    -0.361 N 
ATOM     36  H6  UNL     1      37.201  53.315  13.274  1.00  0.00     0.162 HD
ENDBRANCH  28  30
ENDBRANCH  27  28
ENDBRANCH  26  27
ENDBRANCH   3  26
BRANCH   4  37
HETATM   37  N7  UNL     1      35.763  53.762  16.988  1.00  0.00    -0.234 N 
ATOM     38  H72 UNL     1      34.782  53.548  16.806  1.00  0.00     0.174 HD
ATOM     39  H71 UNL     1      36.479  53.037  16.939  1.00  0.00     0.174 HD
ENDBRANCH   4  37
TORSDOF 12
ENDMDL
MODEL 5
REMARK VINA RESULT: -7.856032084      3.673      9.308
REMARK  12 active torsions:
REMARK  status: ('A' for Active; 'I' for Inactive)
REMARK    1  A    between atoms: C2_4  and  N2_5 
REMARK    2  A    between atoms: N2_5  and  S2_7 
REMARK    3  A    between atoms: S2_7  and  C3_9 
REMARK    4  A    between atoms: C3_9  and  C4_10 
REMARK    5  A    between atoms: N3_12  and  C6_13 
REMARK    6  A    between atoms: C6_13  and  C7_14 
REMARK    7  A    between atoms: C7_14  and  N4_15 
REMARK    8  A    between atoms: N4_15  and  C8_17 
REMARK    9  A    between atoms: C11_24  and  N7_25 
REMARK   10  A    between atoms: C12_30  and  N9_31 
REMARK   11  A    between atoms: C14_35  and  N10_36 
REMARK   12  A    between atoms: N10_36  and  O2_38 
ROOT
HETATM    1  C4  UNL     1      37.261  55.452  16.340  1.00  0.00     0.015 A 
HETATM    2  C5  UNL     1      37.830  56.674  16.653  1.00  0.00     0.121 A 
HETATM    3  N3  UNL     1      37.402  57.408  17.686  1.00  0.00    -0.192 N 
HETATM    4  C11 UNL     1      36.389  56.939  18.438  1.00  0.00     0.679 A 
HETATM    5  N8  UNL     1      35.821  55.778  18.171  1.00  0.00    -0.177 N 
ATOM      6  H8  UNL     1      35.055  55.449  18.759  1.00  0.00     0.186 HD
HETATM    7  C12 UNL     1      36.230  55.022  17.141  1.00  0.00     0.123 A 
ENDROOT
BRANCH   1   8
HETATM    8  C3  UNL     1      37.700  54.625  15.224  1.00  0.00     0.176 C 
BRANCH   8   9
HETATM    9  S2  UNL     1      38.617  53.198  15.705  1.00  0.00     0.119 S 
HETATM   10  O1  UNL     1      37.810  51.966  15.805  1.00  0.00    -0.235 OA
BRANCH   9  11
HETATM   11  N2  UNL     1      39.703  52.944  14.573  1.00  0.00    -0.298 N 
ATOM     12  H2  UNL     1      40.679  52.743  14.787  1.00  0.00     0.177 HD
BRANCH  11  13
HETATM   13  C2  UNL     1      39.212  53.020  13.236  1.00  0.00     0.102 A 
HETATM   14  S1  UNL     1      38.269  51.874  12.407  1.00  0.00     0.008 SA
HETATM   15  N1  UNL     1      38.107  52.666  10.928  1.00  0.00    -0.305 N 
HETATM   16  C1  UNL     1      37.384  52.216   9.716  1.00  0.00     0.167 C 
HETATM   17  C14 UNL     1      38.783  53.800  11.098  1.00  0.00     0.135 A 
HETATM   18  C13 UNL     1      39.369  54.003  12.303  1.00  0.00     0.090 A 
BRANCH  17  19
HETATM   19  N10 UNL     1      38.892  54.712  10.140  1.00  0.00    -0.252 N 
ATOM     20  H10 UNL     1      38.064  54.991   9.614  1.00  0.00     0.196 HD
BRANCH  19  21
HETATM   21  O2  UNL     1      40.094  55.279   9.849  1.00  0.00    -0.288 OA
ATOM     22  H2  UNL     1      40.357  55.429   8.948  1.00  0.00     0.244 HD
ENDBRANCH  19  21
ENDBRANCH  17  19
ENDBRANCH  11  13
ENDBRANCH   9  11
ENDBRANCH   8   9
ENDBRANCH   1   8
BRANCH   7  23
HETATM   23  N9  UNL     1      35.613  53.900  16.960  1.00  0.00    -0.385 N 
ATOM     24  H92 UNL     1      36.176  53.052  17.020  1.00  0.00     0.157 HD
ATOM     25  H91 UNL     1      34.614  53.837  16.765  1.00  0.00     0.157 HD
ENDBRANCH   7  23
BRANCH   3  26
HETATM   26  C6  UNL     1      37.981  58.683  18.014  1.00  0.00     0.166 C 
BRANCH  26  27
HETATM   27  C7  UNL     1      39.386  58.638  18.502  1.00  0.00     0.143 C 
BRANCH  27  28
HETATM   28  N4  UNL     1      39.665  59.353  19.701  1.00  0.00    -0.361 N 
ATOM     29  H4  UNL     1      38.973  59.980  20.112  1.00  0.00     0.162 HD
BRANCH  28  30
HETATM   30  C8  UNL     1      40.956  59.167  20.317  1.00  0.00     0.171 C 
HETATM   31  N5  UNL     1      41.907  58.520  19.740  1.00  0.00    -0.361 N 
HETATM   32  C9  UNL     1      43.084  58.471  20.544  1.00  0.00     0.142 C 
ATOM     33  H5  UNL     1      41.829  58.093  18.817  1.00  0.00     0.162 HD
HETATM   34  C10 UNL     1      42.803  59.480  21.658  1.00  0.00     0.142 C 
HETATM   35  N6  UNL     1      41.382  59.631  21.587  1.00  0.00    -0.361 N 
ATOM     36  H6  UNL     1      40.781  60.008  22.320  1.00  0.00     0.162 HD
ENDBRANCH  28  30
ENDBRANCH  27  28
ENDBRANCH  26  27
ENDBRANCH   3  26
BRANCH   4  37
HETATM   37  N7  UNL     1      35.962  57.654  19.454  1.00  0.00    -0.234 N 
ATOM     38  H72 UNL     1      35.037  57.477  19.844  1.00  0.00     0.174 HD
ATOM     39  H71 UNL     1      36.567  58.379  19.839  1.00  0.00     0.174 HD
ENDBRANCH   4  37
TORSDOF 12
ENDMDL
