MODEL 1
REMARK VINA RESULT: -7.467661044      0.000      0.000
REMARK  12 active torsions:
REMARK  status: ('A' for Active; 'I' for Inactive)
REMARK    1  A    between atoms: C3_3  and  C4_4 
REMARK    2  A    between atoms: N2_7  and  C5_8 
REMARK    3  A    between atoms: C5_8  and  O2_9 
REMARK    4  A    between atoms: O2_9  and  C6_10 
REMARK    5  A    between atoms: N3_15  and  N4_16 
REMARK    6  A    between atoms: N4_16  and  C9_18 
REMARK    7  A    between atoms: C9_18  and  C10_19 
REMARK    8  A    between atoms: C11_21  and  O5_22 
REMARK    9  A    between atoms: C11_21  and  O6_24 
REMARK   10  A    between atoms: C12_26  and  O7_27 
REMARK   11  A    between atoms: C15_37  and  N7_38 
REMARK   12  A    between atoms: C15_37  and  N8_42 
ROOT
HETATM    1  C10 UNL     1      74.724  88.988 116.096  1.00  0.00     0.173 C 
HETATM    2  O4  UNL     1      73.454  88.451 116.293  1.00  0.00    -0.321 OA
HETATM    3  C11 UNL     1      72.742  88.767 115.150  1.00  0.00     0.319 C 
HETATM    4  C12 UNL     1      73.727  88.881 114.005  1.00  0.00     0.235 C 
HETATM    5  C13 UNL     1      75.010  88.536 114.657  1.00  0.00     0.162 C 
HETATM    6  N5  UNL     1      75.398  87.157 114.645  1.00  0.00    -0.360 N 
ATOM      7  H5  UNL     1      76.374  86.945 114.852  1.00  0.00     0.162 HD
HETATM    8  C14 UNL     1      74.546  86.067 114.373  1.00  0.00     0.138 C 
HETATM    9  N6  UNL     1      74.748  84.910 114.858  1.00  0.00    -0.380 N 
ATOM     10  H61 UNL     1      74.132  84.122 114.661  1.00  0.00     0.158 HD
ATOM     11  H62 UNL     1      75.551  84.744 115.466  1.00  0.00     0.158 HD
HETATM   12  S2  UNL     1      73.148  86.357 113.313  1.00  0.00    -0.023 SA
HETATM   13  C15 UNL     1      73.342  88.112 112.797  1.00  0.00     0.378 C 
ENDROOT
BRANCH   1  14
HETATM   14  C9  UNL     1      75.754  88.405 117.045  1.00  0.00     0.174 C 
BRANCH  14  15
HETATM   15  N4  UNL     1      75.116  87.862 118.191  1.00  0.00    -0.329 N 
ATOM     16  H4  UNL     1      74.255  87.321 118.113  1.00  0.00     0.180 HD
BRANCH  15  17
HETATM   17  N3  UNL     1      75.710  88.097 119.419  1.00  0.00    -0.255 N 
HETATM   18  C2  UNL     1      75.089  88.981 120.399  1.00  0.00     0.064 C 
HETATM   19  C1  UNL     1      73.869  89.433 120.406  1.00  0.00     0.043 C 
HETATM   20  C3  UNL     1      76.204  89.208 121.347  1.00  0.00     0.368 C 
HETATM   21  N2  UNL     1      76.668  87.837 121.469  1.00  0.00     0.166 N 
HETATM   22  C8  UNL     1      76.952  87.623 120.010  1.00  0.00     0.421 C 
HETATM   23  S1  UNL     1      77.260  85.874 119.793  1.00  0.00    -0.035 SA
BRANCH  20  24
HETATM   24  C4  UNL     1      75.923  89.927 122.552  1.00  0.00     0.271 C 
HETATM   25  N1  UNL     1      75.431  91.250 122.550  1.00  0.00    -0.060 NA
HETATM   26  O1  UNL     1      76.113  89.373 123.663  1.00  0.00    -0.274 OA
ENDBRANCH  20  24
BRANCH  21  27
HETATM   27  C5  UNL     1      75.629  86.876 121.724  1.00  0.00     0.456 C 
BRANCH  27  28
HETATM   28  O2  UNL     1      75.594  86.307 122.982  1.00  0.00    -0.291 OA
BRANCH  28  29
HETATM   29  C6  UNL     1      76.684  85.823 123.653  1.00  0.00     0.256 C 
HETATM   30  C7  UNL     1      77.394  84.563 123.246  1.00  0.00     0.126 C 
HETATM   31  O3  UNL     1      77.116  86.444 124.644  1.00  0.00    -0.266 OA
ENDBRANCH  28  29
ENDBRANCH  27  28
ENDBRANCH  21  27
ENDBRANCH  15  17
ENDBRANCH  14  15
ENDBRANCH   1  14
BRANCH   3  32
HETATM   32  O5  UNL     1      72.098  89.992 115.401  1.00  0.00    -0.341 OA
ATOM     33  H5  UNL     1      71.406  89.813 116.026  1.00  0.00     0.215 HD
ENDBRANCH   3  32
BRANCH   3  34
HETATM   34  O6  UNL     1      71.729  87.847 114.886  1.00  0.00    -0.341 OA
ATOM     35  H6  UNL     1      70.876  88.157 115.165  1.00  0.00     0.215 HD
ENDBRANCH   3  34
BRANCH   4  36
HETATM   36  O7  UNL     1      73.761  90.246 113.628  1.00  0.00    -0.376 OA
ATOM     37  H7  UNL     1      73.747  90.268 112.678  1.00  0.00     0.211 HD
ENDBRANCH   4  36
BRANCH  13  38
HETATM   38  N7  UNL     1      74.420  88.167 111.844  1.00  0.00    -0.032 N 
ATOM     39  H73 UNL     1      75.213  88.710 112.186  1.00  0.00     0.278 HD
ATOM     40  H72 UNL     1      74.895  87.270 111.742  1.00  0.00     0.278 HD
ATOM     41  H71 UNL     1      74.061  88.520 110.958  1.00  0.00     0.278 HD
ENDBRANCH  13  38
BRANCH  13  42
HETATM   42  N8  UNL     1      72.105  88.629 112.283  1.00  0.00    -0.032 N 
ATOM     43  H83 UNL     1      71.654  87.982 111.636  1.00  0.00     0.278 HD
ATOM     44  H82 UNL     1      71.372  88.657 112.992  1.00  0.00     0.278 HD
ATOM     45  H81 UNL     1      72.272  89.543 111.863  1.00  0.00     0.278 HD
ENDBRANCH  13  42
TORSDOF 12
ENDMDL
MODEL 2
REMARK VINA RESULT: -7.219701597      1.505      1.713
REMARK  12 active torsions:
REMARK  status: ('A' for Active; 'I' for Inactive)
REMARK    1  A    between atoms: C3_3  and  C4_4 
REMARK    2  A    between atoms: N2_7  and  C5_8 
REMARK    3  A    between atoms: C5_8  and  O2_9 
REMARK    4  A    between atoms: O2_9  and  C6_10 
REMARK    5  A    between atoms: N3_15  and  N4_16 
REMARK    6  A    between atoms: N4_16  and  C9_18 
REMARK    7  A    between atoms: C9_18  and  C10_19 
REMARK    8  A    between atoms: C11_21  and  O5_22 
REMARK    9  A    between atoms: C11_21  and  O6_24 
REMARK   10  A    between atoms: C12_26  and  O7_27 
REMARK   11  A    between atoms: C15_37  and  N7_38 
REMARK   12  A    between atoms: C15_37  and  N8_42 
ROOT
HETATM    1  C10 UNL     1      74.836  88.091 117.149  1.00  0.00     0.173 C 
HETATM    2  O4  UNL     1      74.440  86.895 116.555  1.00  0.00    -0.321 OA
HETATM    3  C11 UNL     1      73.438  87.241 115.667  1.00  0.00     0.319 C 
HETATM    4  C12 UNL     1      73.686  88.667 115.219  1.00  0.00     0.235 C 
HETATM    5  C13 UNL     1      74.946  89.003 115.919  1.00  0.00     0.162 C 
HETATM    6  N5  UNL     1      76.170  88.739 115.222  1.00  0.00    -0.360 N 
ATOM      7  H5  UNL     1      77.013  89.194 115.572  1.00  0.00     0.162 HD
HETATM    8  C14 UNL     1      76.308  87.904 114.095  1.00  0.00     0.138 C 
HETATM    9  N6  UNL     1      77.391  87.291 113.833  1.00  0.00    -0.380 N 
ATOM     10  H61 UNL     1      77.491  86.688 113.017  1.00  0.00     0.158 HD
ATOM     11  H62 UNL     1      78.199  87.397 114.447  1.00  0.00     0.158 HD
HETATM   12  S2  UNL     1      74.900  87.721 113.024  1.00  0.00    -0.023 SA
HETATM   13  C15 UNL     1      73.646  88.855 113.748  1.00  0.00     0.378 C 
ENDROOT
BRANCH   1  14
HETATM   14  C9  UNL     1      76.181  87.978 117.842  1.00  0.00     0.174 C 
BRANCH  14  15
HETATM   15  N4  UNL     1      76.067  87.175 119.008  1.00  0.00    -0.329 N 
ATOM     16  H4  UNL     1      75.682  86.232 118.967  1.00  0.00     0.180 HD
BRANCH  15  17
HETATM   17  N3  UNL     1      76.501  87.727 120.202  1.00  0.00    -0.255 N 
HETATM   18  C2  UNL     1      75.662  88.654 120.951  1.00  0.00     0.064 C 
HETATM   19  C1  UNL     1      74.391  88.885 120.795  1.00  0.00     0.043 C 
HETATM   20  C3  UNL     1      76.635  89.235 121.905  1.00  0.00     0.368 C 
HETATM   21  N2  UNL     1      77.294  88.008 122.318  1.00  0.00     0.166 N 
HETATM   22  C8  UNL     1      77.741  87.585 120.948  1.00  0.00     0.421 C 
HETATM   23  S1  UNL     1      78.336  85.905 121.094  1.00  0.00    -0.035 SA
BRANCH  20  24
HETATM   24  C4  UNL     1      76.135  90.102 122.928  1.00  0.00     0.271 C 
HETATM   25  N1  UNL     1      75.492  91.325 122.641  1.00  0.00    -0.060 NA
HETATM   26  O1  UNL     1      76.262  89.774 124.134  1.00  0.00    -0.274 OA
ENDBRANCH  20  24
BRANCH  21  27
HETATM   27  C5  UNL     1      76.397  86.946 122.690  1.00  0.00     0.456 C 
BRANCH  27  28
HETATM   28  O2  UNL     1      76.310  86.638 124.033  1.00  0.00    -0.291 OA
BRANCH  28  29
HETATM   29  C6  UNL     1      77.379  86.391 124.850  1.00  0.00     0.256 C 
HETATM   30  C7  UNL     1      78.134  85.092 124.829  1.00  0.00     0.126 C 
HETATM   31  O3  UNL     1      77.753  87.271 125.650  1.00  0.00    -0.266 OA
ENDBRANCH  28  29
ENDBRANCH  27  28
ENDBRANCH  21  27
ENDBRANCH  15  17
ENDBRANCH  14  15
ENDBRANCH   1  14
BRANCH   3  32
HETATM   32  O5  UNL     1      72.222  87.123 116.363  1.00  0.00    -0.341 OA
ATOM     33  H5  UNL     1      71.530  87.251 115.726  1.00  0.00     0.215 HD
ENDBRANCH   3  32
BRANCH   3  34
HETATM   34  O6  UNL     1      73.354  86.358 114.593  1.00  0.00    -0.341 OA
ATOM     35  H6  UNL     1      72.464  86.253 114.279  1.00  0.00     0.215 HD
ENDBRANCH   3  34
BRANCH   4  36
HETATM   36  O7  UNL     1      72.641  89.454 115.761  1.00  0.00    -0.376 OA
ATOM     37  H7  UNL     1      72.337  90.025 115.065  1.00  0.00     0.211 HD
ENDBRANCH   4  36
BRANCH  13  38
HETATM   38  N7  UNL     1      74.049  90.202 113.439  1.00  0.00    -0.032 N 
ATOM     39  H73 UNL     1      73.440  90.898 113.868  1.00  0.00     0.278 HD
ATOM     40  H72 UNL     1      74.918  90.465 113.904  1.00  0.00     0.278 HD
ATOM     41  H71 UNL     1      74.104  90.306 112.426  1.00  0.00     0.278 HD
ENDBRANCH  13  38
BRANCH  13  42
HETATM   42  N8  UNL     1      72.332  88.532 113.267  1.00  0.00    -0.032 N 
ATOM     43  H83 UNL     1      71.964  87.679 113.689  1.00  0.00     0.278 HD
ATOM     44  H82 UNL     1      71.624  89.180 113.611  1.00  0.00     0.278 HD
ATOM     45  H81 UNL     1      72.351  88.483 112.249  1.00  0.00     0.278 HD
ENDBRANCH  13  42
TORSDOF 12
ENDMDL
MODEL 3
REMARK VINA RESULT: -7.203169028      1.592      2.317
REMARK  12 active torsions:
REMARK  status: ('A' for Active; 'I' for Inactive)
REMARK    1  A    between atoms: C3_3  and  C4_4 
REMARK    2  A    between atoms: N2_7  and  C5_8 
REMARK    3  A    between atoms: C5_8  and  O2_9 
REMARK    4  A    between atoms: O2_9  and  C6_10 
REMARK    5  A    between atoms: N3_15  and  N4_16 
REMARK    6  A    between atoms: N4_16  and  C9_18 
REMARK    7  A    between atoms: C9_18  and  C10_19 
REMARK    8  A    between atoms: C11_21  and  O5_22 
REMARK    9  A    between atoms: C11_21  and  O6_24 
REMARK   10  A    between atoms: C12_26  and  O7_27 
REMARK   11  A    between atoms: C15_37  and  N7_38 
REMARK   12  A    between atoms: C15_37  and  N8_42 
ROOT
HETATM    1  C10 UNL     1      75.069  88.498 115.818  1.00  0.00     0.173 C 
HETATM    2  O4  UNL     1      75.269  89.560 114.938  1.00  0.00    -0.321 OA
HETATM    3  C11 UNL     1      75.217  89.002 113.673  1.00  0.00     0.319 C 
HETATM    4  C12 UNL     1      74.329  87.776 113.742  1.00  0.00     0.235 C 
HETATM    5  C13 UNL     1      73.882  87.789 115.152  1.00  0.00     0.162 C 
HETATM    6  N5  UNL     1      72.667  88.490 115.445  1.00  0.00    -0.360 N 
ATOM      7  H5  UNL     1      72.218  88.293 116.340  1.00  0.00     0.162 HD
HETATM    8  C14 UNL     1      72.039  89.430 114.602  1.00  0.00     0.138 C 
HETATM    9  N6  UNL     1      71.319  90.374 115.057  1.00  0.00    -0.380 N 
ATOM     10  H61 UNL     1      70.865  91.054 114.448  1.00  0.00     0.158 HD
ATOM     11  H62 UNL     1      71.178  90.470 116.063  1.00  0.00     0.158 HD
HETATM   12  S2  UNL     1      72.284  89.261 112.849  1.00  0.00    -0.023 SA
HETATM   13  C15 UNL     1      73.285  87.726 112.690  1.00  0.00     0.378 C 
ENDROOT
BRANCH   1  14
HETATM   14  C9  UNL     1      74.691  88.962 117.212  1.00  0.00     0.174 C 
BRANCH  14  15
HETATM   15  N4  UNL     1      74.779  87.883 118.130  1.00  0.00    -0.329 N 
ATOM     16  H4  UNL     1      74.351  86.980 117.930  1.00  0.00     0.180 HD
BRANCH  15  17
HETATM   17  N3  UNL     1      75.469  88.108 119.309  1.00  0.00    -0.255 N 
HETATM   18  C2  UNL     1      74.905  88.939 120.365  1.00  0.00     0.064 C 
HETATM   19  C1  UNL     1      73.674  89.341 120.492  1.00  0.00     0.043 C 
HETATM   20  C3  UNL     1      76.089  89.184 121.220  1.00  0.00     0.368 C 
HETATM   21  N2  UNL     1      76.613  87.829 121.259  1.00  0.00     0.166 N 
HETATM   22  C8  UNL     1      76.775  87.667 119.774  1.00  0.00     0.421 C 
HETATM   23  S1  UNL     1      77.128  85.939 119.478  1.00  0.00    -0.035 SA
BRANCH  20  24
HETATM   24  C4  UNL     1      75.888  89.858 122.466  1.00  0.00     0.271 C 
HETATM   25  N1  UNL     1      75.435  91.192 122.545  1.00  0.00    -0.060 NA
HETATM   26  O1  UNL     1      76.117  89.252 123.542  1.00  0.00    -0.274 OA
ENDBRANCH  20  24
BRANCH  21  27
HETATM   27  C5  UNL     1      75.636  86.822 121.573  1.00  0.00     0.456 C 
BRANCH  27  28
HETATM   28  O2  UNL     1      75.694  86.262 122.834  1.00  0.00    -0.291 OA
BRANCH  28  29
HETATM   29  C6  UNL     1      76.815  85.714 123.397  1.00  0.00     0.256 C 
HETATM   30  C7  UNL     1      77.410  84.418 122.925  1.00  0.00     0.126 C 
HETATM   31  O3  UNL     1      77.375  86.305 124.342  1.00  0.00    -0.266 OA
ENDBRANCH  28  29
ENDBRANCH  27  28
ENDBRANCH  21  27
ENDBRANCH  15  17
ENDBRANCH  14  15
ENDBRANCH   1  14
BRANCH   3  32
HETATM   32  O5  UNL     1      76.537  88.664 113.327  1.00  0.00    -0.341 OA
ATOM     33  H5  UNL     1      76.490  87.854 112.834  1.00  0.00     0.215 HD
ENDBRANCH   3  32
BRANCH   3  34
HETATM   34  O6  UNL     1      74.787  89.912 112.711  1.00  0.00    -0.341 OA
ATOM     35  H6  UNL     1      74.594  89.495 111.879  1.00  0.00     0.215 HD
ENDBRANCH   3  34
BRANCH   4  36
HETATM   36  O7  UNL     1      75.167  86.652 113.541  1.00  0.00    -0.376 OA
ATOM     37  H7  UNL     1      75.516  86.414 114.392  1.00  0.00     0.211 HD
ENDBRANCH   4  36
BRANCH  13  38
HETATM   38  N7  UNL     1      72.413  86.611 112.950  1.00  0.00    -0.032 N 
ATOM     39  H73 UNL     1      71.643  86.555 112.283  1.00  0.00     0.278 HD
ATOM     40  H72 UNL     1      72.852  85.715 112.738  1.00  0.00     0.278 HD
ATOM     41  H71 UNL     1      72.087  86.664 113.915  1.00  0.00     0.278 HD
ENDBRANCH  13  38
BRANCH  13  42
HETATM   42  N8  UNL     1      73.916  87.664 111.401  1.00  0.00    -0.032 N 
ATOM     43  H83 UNL     1      74.929  87.572 111.471  1.00  0.00     0.278 HD
ATOM     44  H82 UNL     1      73.723  86.786 110.919  1.00  0.00     0.278 HD
ATOM     45  H81 UNL     1      73.637  88.477 110.852  1.00  0.00     0.278 HD
ENDBRANCH  13  42
TORSDOF 12
ENDMDL
MODEL 4
REMARK VINA RESULT: -7.057759410      5.432      8.822
REMARK  12 active torsions:
REMARK  status: ('A' for Active; 'I' for Inactive)
REMARK    1  A    between atoms: C3_3  and  C4_4 
REMARK    2  A    between atoms: N2_7  and  C5_8 
REMARK    3  A    between atoms: C5_8  and  O2_9 
REMARK    4  A    between atoms: O2_9  and  C6_10 
REMARK    5  A    between atoms: N3_15  and  N4_16 
REMARK    6  A    between atoms: N4_16  and  C9_18 
REMARK    7  A    between atoms: C9_18  and  C10_19 
REMARK    8  A    between atoms: C11_21  and  O5_22 
REMARK    9  A    between atoms: C11_21  and  O6_24 
REMARK   10  A    between atoms: C12_26  and  O7_27 
REMARK   11  A    between atoms: C15_37  and  N7_38 
REMARK   12  A    between atoms: C15_37  and  N8_42 
ROOT
HETATM    1  C10 UNL     1      74.809  86.106 115.045  1.00  0.00     0.173 C 
HETATM    2  O4  UNL     1      73.446  85.932 114.821  1.00  0.00    -0.321 OA
HETATM    3  C11 UNL     1      72.871  87.162 115.087  1.00  0.00     0.319 C 
HETATM    4  C12 UNL     1      73.910  88.230 114.809  1.00  0.00     0.235 C 
HETATM    5  C13 UNL     1      75.056  87.434 114.318  1.00  0.00     0.162 C 
HETATM    6  N5  UNL     1      75.138  87.211 112.905  1.00  0.00    -0.360 N 
ATOM      7  H5  UNL     1      76.035  86.899 112.533  1.00  0.00     0.162 HD
HETATM    8  C14 UNL     1      74.084  87.385 111.985  1.00  0.00     0.138 C 
HETATM    9  N6  UNL     1      74.010  86.719 110.905  1.00  0.00    -0.380 N 
ATOM     10  H61 UNL     1      73.248  86.845 110.239  1.00  0.00     0.158 HD
ATOM     11  H62 UNL     1      74.729  86.032 110.678  1.00  0.00     0.158 HD
HETATM   12  S2  UNL     1      72.831  88.583 112.381  1.00  0.00    -0.023 SA
HETATM   13  C15 UNL     1      73.423  89.337 113.951  1.00  0.00     0.378 C 
ENDROOT
BRANCH   1  14
HETATM   14  C9  UNL     1      75.645  85.002 114.424  1.00  0.00     0.174 C 
BRANCH  14  15
HETATM   15  N4  UNL     1      75.147  83.730 114.813  1.00  0.00    -0.329 N 
ATOM     16  H4  UNL     1      75.256  83.387 115.766  1.00  0.00     0.180 HD
BRANCH  15  17
HETATM   17  N3  UNL     1      74.508  82.976 113.843  1.00  0.00    -0.255 N 
HETATM   18  C2  UNL     1      73.148  82.491 114.042  1.00  0.00     0.064 C 
HETATM   19  C1  UNL     1      72.288  82.873 114.941  1.00  0.00     0.043 C 
HETATM   20  C3  UNL     1      73.030  81.479 112.967  1.00  0.00     0.368 C 
HETATM   21  N2  UNL     1      73.612  82.247 111.880  1.00  0.00     0.166 N 
HETATM   22  C8  UNL     1      74.938  82.496 112.539  1.00  0.00     0.421 C 
HETATM   23  S1  UNL     1      75.792  83.711 111.542  1.00  0.00    -0.035 SA
BRANCH  20  24
HETATM   24  C4  UNL     1      71.749  80.879 112.749  1.00  0.00     0.271 C 
HETATM   25  N1  UNL     1      71.522  79.495 112.906  1.00  0.00    -0.060 NA
HETATM   26  O1  UNL     1      70.778  81.598 112.408  1.00  0.00    -0.274 OA
ENDBRANCH  20  24
BRANCH  21  27
HETATM   27  C5  UNL     1      73.084  83.577 111.741  1.00  0.00     0.456 C 
BRANCH  27  28
HETATM   28  O2  UNL     1      72.376  83.855 110.588  1.00  0.00    -0.291 OA
BRANCH  28  29
HETATM   29  C6  UNL     1      72.456  83.134 109.427  1.00  0.00     0.256 C 
HETATM   30  C7  UNL     1      71.407  82.141 109.016  1.00  0.00     0.126 C 
HETATM   31  O3  UNL     1      73.434  83.300 108.672  1.00  0.00    -0.266 OA
ENDBRANCH  28  29
ENDBRANCH  27  28
ENDBRANCH  21  27
ENDBRANCH  15  17
ENDBRANCH  14  15
ENDBRANCH   1  14
BRANCH   3  32
HETATM   32  O5  UNL     1      72.497  87.147 116.443  1.00  0.00    -0.341 OA
ATOM     33  H5  UNL     1      72.636  88.027 116.773  1.00  0.00     0.215 HD
ENDBRANCH   3  32
BRANCH   3  34
HETATM   34  O6  UNL     1      71.698  87.366 114.366  1.00  0.00    -0.341 OA
ATOM     35  H6  UNL     1      71.062  87.883 114.846  1.00  0.00     0.215 HD
ENDBRANCH   3  34
BRANCH   4  36
HETATM   36  O7  UNL     1      74.254  88.801 116.059  1.00  0.00    -0.376 OA
ATOM     37  H7  UNL     1      74.082  88.140 116.720  1.00  0.00     0.211 HD
ENDBRANCH   4  36
BRANCH  13  38
HETATM   38  N7  UNL     1      74.531  90.199 113.628  1.00  0.00    -0.032 N 
ATOM     39  H73 UNL     1      74.233  91.059 113.168  1.00  0.00     0.278 HD
ATOM     40  H72 UNL     1      74.952  90.619 114.457  1.00  0.00     0.278 HD
ATOM     41  H71 UNL     1      75.206  89.675 113.072  1.00  0.00     0.278 HD
ENDBRANCH  13  38
BRANCH  13  42
HETATM   42  N8  UNL     1      72.352  90.018 114.621  1.00  0.00    -0.032 N 
ATOM     43  H83 UNL     1      72.456  90.000 115.636  1.00  0.00     0.278 HD
ATOM     44  H82 UNL     1      72.394  91.029 114.491  1.00  0.00     0.278 HD
ATOM     45  H81 UNL     1      71.462  89.625 114.316  1.00  0.00     0.278 HD
ENDBRANCH  13  42
TORSDOF 12
ENDMDL
MODEL 5
REMARK VINA RESULT: -7.032795635      2.124      2.957
REMARK  12 active torsions:
REMARK  status: ('A' for Active; 'I' for Inactive)
REMARK    1  A    between atoms: C3_3  and  C4_4 
REMARK    2  A    between atoms: N2_7  and  C5_8 
REMARK    3  A    between atoms: C5_8  and  O2_9 
REMARK    4  A    between atoms: O2_9  and  C6_10 
REMARK    5  A    between atoms: N3_15  and  N4_16 
REMARK    6  A    between atoms: N4_16  and  C9_18 
REMARK    7  A    between atoms: C9_18  and  C10_19 
REMARK    8  A    between atoms: C11_21  and  O5_22 
REMARK    9  A    between atoms: C11_21  and  O6_24 
REMARK   10  A    between atoms: C12_26  and  O7_27 
REMARK   11  A    between atoms: C15_37  and  N7_38 
REMARK   12  A    between atoms: C15_37  and  N8_42 
ROOT
HETATM    1  C10 UNL     1      75.486  88.723 117.687  1.00  0.00     0.173 C 
HETATM    2  O4  UNL     1      75.806  89.772 116.829  1.00  0.00    -0.321 OA
HETATM    3  C11 UNL     1      76.307  89.172 115.688  1.00  0.00     0.319 C 
HETATM    4  C12 UNL     1      75.676  87.800 115.569  1.00  0.00     0.235 C 
HETATM    5  C13 UNL     1      74.756  87.774 116.727  1.00  0.00     0.162 C 
HETATM    6  N5  UNL     1      73.417  88.236 116.507  1.00  0.00    -0.360 N 
ATOM      7  H5  UNL     1      72.717  87.986 117.206  1.00  0.00     0.162 HD
HETATM    8  C14 UNL     1      72.985  89.005 115.408  1.00  0.00     0.138 C 
HETATM    9  N6  UNL     1      72.001  89.807 115.487  1.00  0.00    -0.380 N 
ATOM     10  H61 UNL     1      71.688  90.364 114.691  1.00  0.00     0.158 HD
ATOM     11  H62 UNL     1      71.494  89.909 116.365  1.00  0.00     0.158 HD
HETATM   12  S2  UNL     1      73.869  88.827 113.876  1.00  0.00    -0.023 SA
HETATM   13  C15 UNL     1      75.104  87.511 114.231  1.00  0.00     0.378 C 
ENDROOT
BRANCH   1  14
HETATM   14  C9  UNL     1      74.559  89.153 118.809  1.00  0.00     0.174 C 
BRANCH  14  15
HETATM   15  N4  UNL     1      74.589  88.203 119.863  1.00  0.00    -0.329 N 
ATOM     16  H4  UNL     1      73.830  87.536 119.999  1.00  0.00     0.180 HD
BRANCH  15  17
HETATM   17  N3  UNL     1      75.692  88.220 120.701  1.00  0.00    -0.255 N 
HETATM   18  C2  UNL     1      75.937  89.341 121.600  1.00  0.00     0.064 C 
HETATM   19  C1  UNL     1      75.110  90.286 121.941  1.00  0.00     0.043 C 
HETATM   20  C3  UNL     1      77.343  89.104 121.998  1.00  0.00     0.368 C 
HETATM   21  N2  UNL     1      77.257  87.678 122.264  1.00  0.00     0.166 N 
HETATM   22  C8  UNL     1      76.783  87.279 120.896  1.00  0.00     0.421 C 
HETATM   23  S1  UNL     1      76.281  85.566 121.003  1.00  0.00    -0.035 SA
BRANCH  20  24
HETATM   24  C4  UNL     1      77.902  89.940 123.016  1.00  0.00     0.271 C 
HETATM   25  N1  UNL     1      79.282  89.964 123.309  1.00  0.00    -0.060 NA
HETATM   26  O1  UNL     1      77.148  90.692 123.683  1.00  0.00    -0.274 OA
ENDBRANCH  20  24
BRANCH  21  27
HETATM   27  C5  UNL     1      76.149  87.294 123.097  1.00  0.00     0.456 C 
BRANCH  27  28
HETATM   28  O2  UNL     1      76.449  86.691 124.303  1.00  0.00    -0.291 OA
BRANCH  28  29
HETATM   29  C6  UNL     1      77.474  87.061 125.130  1.00  0.00     0.256 C 
HETATM   30  C7  UNL     1      78.812  86.378 125.120  1.00  0.00     0.126 C 
HETATM   31  O3  UNL     1      77.304  88.004 125.929  1.00  0.00    -0.266 OA
ENDBRANCH  28  29
ENDBRANCH  27  28
ENDBRANCH  21  27
ENDBRANCH  15  17
ENDBRANCH  14  15
ENDBRANCH   1  14
BRANCH   3  32
HETATM   32  O5  UNL     1      77.701  89.085 115.857  1.00  0.00    -0.341 OA
ATOM     33  H5  UNL     1      77.932  89.709 116.534  1.00  0.00     0.215 HD
ENDBRANCH   3  32
BRANCH   3  34
HETATM   34  O6  UNL     1      76.105  89.947 114.548  1.00  0.00    -0.341 OA
ATOM     35  H6  UNL     1      75.891  89.421 113.786  1.00  0.00     0.215 HD
ENDBRANCH   3  34
BRANCH   4  36
HETATM   36  O7  UNL     1      76.707  86.854 115.786  1.00  0.00    -0.376 OA
ATOM     37  H7  UNL     1      76.335  86.159 116.318  1.00  0.00     0.211 HD
ENDBRANCH   4  36
BRANCH  13  38
HETATM   38  N7  UNL     1      74.399  86.257 114.284  1.00  0.00    -0.032 N 
ATOM     39  H73 UNL     1      74.846  85.535 113.719  1.00  0.00     0.278 HD
ATOM     40  H72 UNL     1      74.484  85.801 115.193  1.00  0.00     0.278 HD
ATOM     41  H71 UNL     1      73.427  86.413 114.018  1.00  0.00     0.278 HD
ENDBRANCH  13  38
BRANCH  13  42
HETATM   42  N8  UNL     1      76.157  87.528 113.254  1.00  0.00    -0.032 N 
ATOM     43  H83 UNL     1      76.150  88.379 112.692  1.00  0.00     0.278 HD
ATOM     44  H82 UNL     1      77.077  87.643 113.679  1.00  0.00     0.278 HD
ATOM     45  H81 UNL     1      76.098  86.685 112.683  1.00  0.00     0.278 HD
ENDBRANCH  13  42
TORSDOF 12
ENDMDL
