MODEL 1
REMARK VINA RESULT: -8.072639843      0.000      0.000
REMARK  13 active torsions:
REMARK  status: ('A' for Active; 'I' for Inactive)
REMARK       I    between atoms: N1_1  and  C1_4 
REMARK       I    between atoms: C1_4  and  N2_5 
REMARK       I    between atoms: C1_4  and  N14_47 
REMARK    1  A    between atoms: N2_5  and  C2_7 
REMARK    2  A    between atoms: N5_12  and  C3_13 
REMARK    3  A    between atoms: C4_17  and  N7_18 
REMARK    4  A    between atoms: C7_23  and  N9_24 
REMARK    5  A    between atoms: C8_29  and  N11_30 
REMARK    6  A    between atoms: N11_30  and  C9_32 
REMARK    7  A    between atoms: C9_32  and  C10_33 
REMARK    8  A    between atoms: C10_33  and  C11_34 
REMARK    9  A    between atoms: C11_34  and  O1_35 
REMARK   10  A    between atoms: C13_41  and  C14_42 
REMARK   11  A    between atoms: C14_42  and  O3_43 
REMARK   12  A    between atoms: N14_47  and  S1_49 
REMARK   13  A    between atoms: S1_49  and  N15_50 
ROOT
HETATM    1  C3  UNL     1      72.301  83.220 115.071  1.00  0.00     0.363 C 
HETATM    2  N6  UNL     1      71.959  83.419 113.674  1.00  0.00    -0.003 N 
ATOM      3  H61 UNL     1      70.966  83.532 113.470  1.00  0.00     0.285 HD
ATOM      4  H62 UNL     1      72.075  82.608 113.067  1.00  0.00     0.285 HD
HETATM    5  C4  UNL     1      72.805  84.567 113.370  1.00  0.00     0.440 C 
HETATM    6  O2  UNL     1      74.017  84.200 113.919  1.00  0.00    -0.332 OA
HETATM    7  C13 UNL     1      73.760  83.453 115.071  1.00  0.00     0.203 C 
ENDROOT
BRANCH   1   8
HETATM    8  N5  UNL     1      71.849  81.956 115.599  1.00  0.00    -0.170 N 
HETATM    9  N4  UNL     1      72.013  80.747 115.102  1.00  0.00    -0.209 N 
HETATM   10  N3  UNL     1      71.429  79.883 115.902  1.00  0.00    -0.114 N 
ATOM     11  H4  UNL     1      72.510  80.520 114.241  1.00  0.00     0.210 HD
HETATM   12  C2  UNL     1      70.873  80.523 116.942  1.00  0.00     0.728 A 
ATOM     13  H3  UNL     1      71.403  78.874 115.754  1.00  0.00     0.207 HD
HETATM   14  N13 UNL     1      71.155  81.814 116.719  1.00  0.00    -0.110 N 
ATOM     15  H13 UNL     1      70.874  82.582 117.328  1.00  0.00     0.207 HD
BRANCH  12  16
HETATM   16  N2  UNL     1      70.216  80.021 117.930  1.00  0.00    -0.019 N 
HETATM   17  C1  UNL     1      69.090  80.602 118.519  1.00  0.00     0.701 C 
HETATM   18  N1  UNL     1      69.138  81.002 119.755  1.00  0.00    -0.233 N 
HETATM   19  N14 UNL     1      67.905  80.739 117.740  1.00  0.00    -0.100 N 
ATOM     20  H12 UNL     1      69.986  80.904 120.313  1.00  0.00     0.174 HD
ATOM     21  H11 UNL     1      68.316  81.426 120.186  1.00  0.00     0.174 HD
ATOM     22  H14 UNL     1      67.943  81.102 116.787  1.00  0.00     0.199 HD
ATOM     23  H2  UNL     1      70.542  79.133 118.311  1.00  0.00     0.203 HD
BRANCH  19  24
HETATM   24  S1  UNL     1      66.405  80.272 118.456  1.00  0.00     0.330 S 
HETATM   25  O4  UNL     1      66.305  80.874 119.829  1.00  0.00    -0.182 OA
HETATM   26  O5  UNL     1      65.311  80.743 117.566  1.00  0.00    -0.182 OA
BRANCH  24  27
HETATM   27  N15 UNL     1      66.417  78.550 118.618  1.00  0.00    -0.311 N 
ATOM     28 2H15 UNL     1      65.703  77.916 118.256  1.00  0.00     0.170 HD
ATOM     29 1H15 UNL     1      67.258  78.294 119.135  1.00  0.00     0.170 HD
ENDBRANCH  24  27
ENDBRANCH  19  24
ENDBRANCH  12  16
ENDBRANCH   1   8
BRANCH   7  30
HETATM   30  C14 UNL     1      74.639  82.252 115.069  1.00  0.00     0.200 C 
BRANCH  30  31
HETATM   31  O3  UNL     1      74.672  81.650 113.831  1.00  0.00    -0.398 OA
ATOM     32  H3  UNL     1      74.425  80.734 113.880  1.00  0.00     0.209 HD
ENDBRANCH  30  31
ENDBRANCH   7  30
BRANCH   5  33
HETATM   33  N7  UNL     1      72.327  85.758 114.075  1.00  0.00    -0.276 N 
HETATM   34  C5  UNL     1      71.386  85.843 115.021  1.00  0.00     0.189 A 
HETATM   35  N8  UNL     1      71.297  87.137 115.360  1.00  0.00    -0.346 N 
HETATM   36  C6  UNL     1      72.168  87.860 114.638  1.00  0.00     0.123 A 
ATOM     37  H8  UNL     1      70.662  87.516 116.062  1.00  0.00     0.167 HD
HETATM   38  C7  UNL     1      72.501  89.201 114.569  1.00  0.00     0.145 A 
HETATM   39  C12 UNL     1      72.828  86.978 113.815  1.00  0.00     0.158 A 
HETATM   40  N10 UNL     1      73.452  89.591 113.704  1.00  0.00    -0.175 N 
HETATM   41  C8  UNL     1      74.108  88.746 112.892  1.00  0.00     0.681 A 
ATOM     42  H10 UNL     1      73.689  90.582 113.662  1.00  0.00     0.186 HD
HETATM   43  N12 UNL     1      73.773  87.447 112.972  1.00  0.00    -0.174 N 
ATOM     44  H12 UNL     1      74.255  86.782 112.366  1.00  0.00     0.186 HD
BRANCH  38  45
HETATM   45  N9  UNL     1      71.902  90.032 115.321  1.00  0.00    -0.383 N 
ATOM     46  H92 UNL     1      72.371  90.476 116.110  1.00  0.00     0.157 HD
ATOM     47  H91 UNL     1      70.927  90.265 115.133  1.00  0.00     0.157 HD
ENDBRANCH  38  45
BRANCH  41  48
HETATM   48  N11 UNL     1      75.024  89.139 112.063  1.00  0.00    -0.226 N 
ATOM     49  H11 UNL     1      74.801  89.765 111.289  1.00  0.00     0.177 HD
BRANCH  48  50
HETATM   50  C9  UNL     1      76.367  88.662 112.273  1.00  0.00     0.140 C 
BRANCH  50  51
HETATM   51  C10 UNL     1      77.254  89.717 112.895  1.00  0.00     0.046 C 
BRANCH  51  52
HETATM   52  C11 UNL     1      76.785  91.097 112.449  1.00  0.00     0.165 C 
BRANCH  52  53
HETATM   53  O1  UNL     1      75.937  91.607 113.450  1.00  0.00    -0.401 OA
ATOM     54  H1  UNL     1      75.148  91.078 113.460  1.00  0.00     0.209 HD
ENDBRANCH  52  53
ENDBRANCH  51  52
ENDBRANCH  50  51
ENDBRANCH  48  50
ENDBRANCH  41  48
ENDBRANCH   5  33
TORSDOF 13
ENDMDL
MODEL 2
REMARK VINA RESULT: -7.640429607      1.772      2.182
REMARK  13 active torsions:
REMARK  status: ('A' for Active; 'I' for Inactive)
REMARK       I    between atoms: N1_1  and  C1_4 
REMARK       I    between atoms: C1_4  and  N2_5 
REMARK       I    between atoms: C1_4  and  N14_47 
REMARK    1  A    between atoms: N2_5  and  C2_7 
REMARK    2  A    between atoms: N5_12  and  C3_13 
REMARK    3  A    between atoms: C4_17  and  N7_18 
REMARK    4  A    between atoms: C7_23  and  N9_24 
REMARK    5  A    between atoms: C8_29  and  N11_30 
REMARK    6  A    between atoms: N11_30  and  C9_32 
REMARK    7  A    between atoms: C9_32  and  C10_33 
REMARK    8  A    between atoms: C10_33  and  C11_34 
REMARK    9  A    between atoms: C11_34  and  O1_35 
REMARK   10  A    between atoms: C13_41  and  C14_42 
REMARK   11  A    between atoms: C14_42  and  O3_43 
REMARK   12  A    between atoms: N14_47  and  S1_49 
REMARK   13  A    between atoms: S1_49  and  N15_50 
ROOT
HETATM    1  C3  UNL     1      72.388  82.854 114.758  1.00  0.00     0.363 C 
HETATM    2  N6  UNL     1      71.879  82.989 113.406  1.00  0.00    -0.003 N 
ATOM      3  H61 UNL     1      70.897  83.256 113.324  1.00  0.00     0.285 HD
ATOM      4  H62 UNL     1      71.771  82.121 112.881  1.00  0.00     0.285 HD
HETATM    5  C4  UNL     1      72.843  83.941 112.869  1.00  0.00     0.440 C 
HETATM    6  O2  UNL     1      74.049  83.416 113.289  1.00  0.00    -0.332 OA
HETATM    7  C13 UNL     1      73.849  82.828 114.540  1.00  0.00     0.203 C 
ENDROOT
BRANCH   1   8
HETATM    8  N5  UNL     1      71.823  81.738 115.477  1.00  0.00    -0.170 N 
HETATM    9  N4  UNL     1      71.704  80.484 115.093  1.00  0.00    -0.209 N 
HETATM   10  N3  UNL     1      71.119  79.806 116.056  1.00  0.00    -0.114 N 
ATOM     11  H4  UNL     1      72.013  80.103 114.199  1.00  0.00     0.210 HD
HETATM   12  C2  UNL     1      70.849  80.616 117.090  1.00  0.00     0.728 A 
ATOM     13  H3  UNL     1      70.903  78.809 116.022  1.00  0.00     0.207 HD
HETATM   14  N13 UNL     1      71.303  81.814 116.693  1.00  0.00    -0.110 N 
ATOM     15  H13 UNL     1      71.254  82.666 117.251  1.00  0.00     0.207 HD
BRANCH  12  16
HETATM   16  N2  UNL     1      70.284  80.321 118.210  1.00  0.00    -0.019 N 
HETATM   17  C1  UNL     1      69.240  81.043 118.793  1.00  0.00     0.701 C 
HETATM   18  N1  UNL     1      69.423  81.648 119.928  1.00  0.00    -0.233 N 
HETATM   19  N14 UNL     1      67.985  81.095 118.119  1.00  0.00    -0.100 N 
ATOM     20  H12 UNL     1      70.321  81.612 120.411  1.00  0.00     0.174 HD
ATOM     21  H11 UNL     1      68.661  82.175 120.355  1.00  0.00     0.174 HD
ATOM     22  H14 UNL     1      67.934  81.286 117.118  1.00  0.00     0.199 HD
ATOM     23  H2  UNL     1      70.624  79.499 118.708  1.00  0.00     0.203 HD
BRANCH  19  24
HETATM   24  S1  UNL     1      66.554  80.824 119.047  1.00  0.00     0.330 S 
HETATM   25  O4  UNL     1      66.441  79.360 119.363  1.00  0.00    -0.182 OA
HETATM   26  O5  UNL     1      66.651  81.650 120.281  1.00  0.00    -0.182 OA
BRANCH  24  27
HETATM   27  N15 UNL     1      65.203  81.275 118.066  1.00  0.00    -0.311 N 
ATOM     28 2H15 UNL     1      65.124  82.138 117.527  1.00  0.00     0.170 HD
ATOM     29 1H15 UNL     1      64.512  80.527 118.130  1.00  0.00     0.170 HD
ENDBRANCH  24  27
ENDBRANCH  19  24
ENDBRANCH  12  16
ENDBRANCH   1   8
BRANCH   7  30
HETATM   30  C14 UNL     1      74.514  81.496 114.553  1.00  0.00     0.200 C 
BRANCH  30  31
HETATM   31  O3  UNL     1      74.274  80.799 113.390  1.00  0.00    -0.398 OA
ATOM     32  H3  UNL     1      75.012  80.849 112.793  1.00  0.00     0.209 HD
ENDBRANCH  30  31
ENDBRANCH   7  30
BRANCH   5  33
HETATM   33  N7  UNL     1      72.673  85.253 113.495  1.00  0.00    -0.276 N 
HETATM   34  C5  UNL     1      71.704  85.662 114.320  1.00  0.00     0.189 A 
HETATM   35  N8  UNL     1      71.973  86.938 114.629  1.00  0.00    -0.346 N 
HETATM   36  C6  UNL     1      73.097  87.331 114.009  1.00  0.00     0.123 A 
ATOM     37  H8  UNL     1      71.409  87.523 115.245  1.00  0.00     0.167 HD
HETATM   38  C7  UNL     1      73.825  88.507 113.964  1.00  0.00     0.145 A 
HETATM   39  C12 UNL     1      73.546  86.254 113.283  1.00  0.00     0.158 A 
HETATM   40  N10 UNL     1      74.940  88.551 113.215  1.00  0.00    -0.175 N 
HETATM   41  C8  UNL     1      75.395  87.511 112.499  1.00  0.00     0.681 A 
ATOM     42  H10 UNL     1      75.470  89.423 113.189  1.00  0.00     0.186 HD
HETATM   43  N12 UNL     1      74.676  86.377 112.554  1.00  0.00    -0.174 N 
ATOM     44  H12 UNL     1      74.999  85.570 112.019  1.00  0.00     0.186 HD
BRANCH  38  45
HETATM   45  N9  UNL     1      73.426  89.514 114.627  1.00  0.00    -0.383 N 
ATOM     46  H92 UNL     1      73.545  90.466 114.280  1.00  0.00     0.157 HD
ATOM     47  H91 UNL     1      72.973  89.372 115.530  1.00  0.00     0.157 HD
ENDBRANCH  38  45
BRANCH  41  48
HETATM   48  N11 UNL     1      76.474  87.571 111.782  1.00  0.00    -0.226 N 
ATOM     49  H11 UNL     1      76.912  88.466 111.563  1.00  0.00     0.177 HD
BRANCH  48  50
HETATM   50  C9  UNL     1      77.033  86.332 111.305  1.00  0.00     0.140 C 
BRANCH  50  51
HETATM   51  C10 UNL     1      77.324  86.374 109.822  1.00  0.00     0.046 C 
BRANCH  51  52
HETATM   52  C11 UNL     1      76.188  85.695 109.065  1.00  0.00     0.165 C 
BRANCH  52  53
HETATM   53  O1  UNL     1      75.004  86.409 109.336  1.00  0.00    -0.401 OA
ATOM     54  H1  UNL     1      75.249  87.293 109.583  1.00  0.00     0.209 HD
ENDBRANCH  52  53
ENDBRANCH  51  52
ENDBRANCH  50  51
ENDBRANCH  48  50
ENDBRANCH  41  48
ENDBRANCH   5  33
TORSDOF 13
ENDMDL
MODEL 3
REMARK VINA RESULT: -7.633647613      2.849      3.861
REMARK  13 active torsions:
REMARK  status: ('A' for Active; 'I' for Inactive)
REMARK       I    between atoms: N1_1  and  C1_4 
REMARK       I    between atoms: C1_4  and  N2_5 
REMARK       I    between atoms: C1_4  and  N14_47 
REMARK    1  A    between atoms: N2_5  and  C2_7 
REMARK    2  A    between atoms: N5_12  and  C3_13 
REMARK    3  A    between atoms: C4_17  and  N7_18 
REMARK    4  A    between atoms: C7_23  and  N9_24 
REMARK    5  A    between atoms: C8_29  and  N11_30 
REMARK    6  A    between atoms: N11_30  and  C9_32 
REMARK    7  A    between atoms: C9_32  and  C10_33 
REMARK    8  A    between atoms: C10_33  and  C11_34 
REMARK    9  A    between atoms: C11_34  and  O1_35 
REMARK   10  A    between atoms: C13_41  and  C14_42 
REMARK   11  A    between atoms: C14_42  and  O3_43 
REMARK   12  A    between atoms: N14_47  and  S1_49 
REMARK   13  A    between atoms: S1_49  and  N15_50 
ROOT
HETATM    1  C3  UNL     1      73.631  84.123 113.573  1.00  0.00     0.363 C 
HETATM    2  N6  UNL     1      74.736  84.550 112.733  1.00  0.00    -0.003 N 
ATOM      3  H61 UNL     1      74.542  84.597 111.733  1.00  0.00     0.285 HD
ATOM      4  H62 UNL     1      75.504  83.886 112.635  1.00  0.00     0.285 HD
HETATM    5  C4  UNL     1      75.067  85.814 113.378  1.00  0.00     0.440 C 
HETATM    6  O2  UNL     1      75.080  85.474 114.716  1.00  0.00    -0.332 OA
HETATM    7  C13 UNL     1      74.102  84.499 114.922  1.00  0.00     0.203 C 
ENDROOT
BRANCH   1   8
HETATM    8  N5  UNL     1      73.261  82.742 113.380  1.00  0.00    -0.170 N 
HETATM    9  N4  UNL     1      73.790  81.852 112.565  1.00  0.00    -0.209 N 
HETATM   10  N3  UNL     1      73.138  80.719 112.703  1.00  0.00    -0.114 N 
ATOM     11  H4  UNL     1      74.575  82.015 111.933  1.00  0.00     0.210 HD
HETATM   12  C2  UNL     1      72.168  80.856 113.619  1.00  0.00     0.728 A 
ATOM     13  H3  UNL     1      73.340  79.861 112.190  1.00  0.00     0.207 HD
HETATM   14  N13 UNL     1      72.275  82.131 114.020  1.00  0.00    -0.110 N 
ATOM     15  H13 UNL     1      71.679  82.571 114.720  1.00  0.00     0.207 HD
BRANCH  12  16
HETATM   16  N2  UNL     1      71.323  79.973 114.026  1.00  0.00    -0.019 N 
HETATM   17  C1  UNL     1      71.410  79.280 115.236  1.00  0.00     0.701 C 
HETATM   18  N1  UNL     1      71.585  77.993 115.236  1.00  0.00    -0.233 N 
HETATM   19  N14 UNL     1      71.301  80.014 116.453  1.00  0.00    -0.100 N 
ATOM     20  H12 UNL     1      71.663  77.467 114.365  1.00  0.00     0.174 HD
ATOM     21  H11 UNL     1      71.648  77.486 116.119  1.00  0.00     0.174 HD
ATOM     22  H14 UNL     1      71.816  80.884 116.589  1.00  0.00     0.199 HD
ATOM     23  H2  UNL     1      70.530  79.764 113.419  1.00  0.00     0.203 HD
BRANCH  19  24
HETATM   24  S1  UNL     1      70.270  79.387 117.688  1.00  0.00     0.330 S 
HETATM   25  O4  UNL     1      70.553  77.922 117.870  1.00  0.00    -0.182 OA
HETATM   26  O5  UNL     1      70.532  80.159 118.933  1.00  0.00    -0.182 OA
BRANCH  24  27
HETATM   27  N15 UNL     1      68.637  79.562 117.145  1.00  0.00    -0.311 N 
ATOM     28 2H15 UNL     1      67.983  78.797 116.978  1.00  0.00     0.170 HD
ATOM     29 1H15 UNL     1      68.457  80.559 117.026  1.00  0.00     0.170 HD
ENDBRANCH  24  27
ENDBRANCH  19  24
ENDBRANCH  12  16
ENDBRANCH   1   8
BRANCH   7  30
HETATM   30  C14 UNL     1      74.676  83.416 115.766  1.00  0.00     0.200 C 
BRANCH  30  31
HETATM   31  O3  UNL     1      75.038  83.881 117.011  1.00  0.00    -0.398 OA
ATOM     32  H3  UNL     1      75.352  84.777 116.971  1.00  0.00     0.209 HD
ENDBRANCH  30  31
ENDBRANCH   7  30
BRANCH   5  33
HETATM   33  N7  UNL     1      74.000  86.794 113.166  1.00  0.00    -0.276 N 
HETATM   34  C5  UNL     1      73.285  87.018 112.059  1.00  0.00     0.189 A 
HETATM   35  N8  UNL     1      72.430  88.009 112.348  1.00  0.00    -0.346 N 
HETATM   36  C6  UNL     1      72.601  88.406 113.619  1.00  0.00     0.123 A 
ATOM     37  H8  UNL     1      71.749  88.403 111.698  1.00  0.00     0.167 HD
HETATM   38  C7  UNL     1      72.013  89.361 114.429  1.00  0.00     0.145 A 
HETATM   39  C12 UNL     1      73.606  87.629 114.144  1.00  0.00     0.158 A 
HETATM   40  N10 UNL     1      72.445  89.492 115.695  1.00  0.00    -0.175 N 
HETATM   41  C8  UNL     1      73.425  88.743 116.227  1.00  0.00     0.681 A 
ATOM     42  H10 UNL     1      72.004  90.199 116.284  1.00  0.00     0.186 HD
HETATM   43  N12 UNL     1      73.984  87.820 115.425  1.00  0.00    -0.174 N 
ATOM     44  H12 UNL     1      74.731  87.237 115.804  1.00  0.00     0.186 HD
BRANCH  38  45
HETATM   45  N9  UNL     1      71.084  90.090 113.962  1.00  0.00    -0.383 N 
ATOM     46  H92 UNL     1      71.154  90.523 113.041  1.00  0.00     0.157 HD
ATOM     47  H91 UNL     1      70.243  90.247 114.517  1.00  0.00     0.157 HD
ENDBRANCH  38  45
BRANCH  41  48
HETATM   48  N11 UNL     1      73.828  88.883 117.451  1.00  0.00    -0.226 N 
ATOM     49  H11 UNL     1      73.167  88.874 118.228  1.00  0.00     0.177 HD
BRANCH  48  50
HETATM   50  C9  UNL     1      75.241  89.051 117.677  1.00  0.00     0.140 C 
BRANCH  50  51
HETATM   51  C10 UNL     1      75.699  88.366 118.945  1.00  0.00     0.046 C 
BRANCH  51  52
HETATM   52  C11 UNL     1      76.411  87.067 118.588  1.00  0.00     0.165 C 
BRANCH  52  53
HETATM   53  O1  UNL     1      75.705  86.465 117.529  1.00  0.00    -0.401 OA
ATOM     54  H1  UNL     1      76.055  86.807 116.715  1.00  0.00     0.209 HD
ENDBRANCH  52  53
ENDBRANCH  51  52
ENDBRANCH  50  51
ENDBRANCH  48  50
ENDBRANCH  41  48
ENDBRANCH   5  33
TORSDOF 13
ENDMDL
MODEL 4
REMARK VINA RESULT: -7.572700900      5.984      8.481
REMARK  13 active torsions:
REMARK  status: ('A' for Active; 'I' for Inactive)
REMARK       I    between atoms: N1_1  and  C1_4 
REMARK       I    between atoms: C1_4  and  N2_5 
REMARK       I    between atoms: C1_4  and  N14_47 
REMARK    1  A    between atoms: N2_5  and  C2_7 
REMARK    2  A    between atoms: N5_12  and  C3_13 
REMARK    3  A    between atoms: C4_17  and  N7_18 
REMARK    4  A    between atoms: C7_23  and  N9_24 
REMARK    5  A    between atoms: C8_29  and  N11_30 
REMARK    6  A    between atoms: N11_30  and  C9_32 
REMARK    7  A    between atoms: C9_32  and  C10_33 
REMARK    8  A    between atoms: C10_33  and  C11_34 
REMARK    9  A    between atoms: C11_34  and  O1_35 
REMARK   10  A    between atoms: C13_41  and  C14_42 
REMARK   11  A    between atoms: C14_42  and  O3_43 
REMARK   12  A    between atoms: N14_47  and  S1_49 
REMARK   13  A    between atoms: S1_49  and  N15_50 
ROOT
HETATM    1  C3  UNL     1      74.200  88.341 115.845  1.00  0.00     0.363 C 
HETATM    2  N6  UNL     1      73.662  89.529 115.209  1.00  0.00    -0.003 N 
ATOM      3  H61 UNL     1      74.178  90.394 115.372  1.00  0.00     0.285 HD
ATOM      4  H62 UNL     1      72.787  89.883 115.595  1.00  0.00     0.285 HD
HETATM    5  C4  UNL     1      73.608  89.071 113.826  1.00  0.00     0.440 C 
HETATM    6  O2  UNL     1      73.036  87.821 113.946  1.00  0.00    -0.332 OA
HETATM    7  C13 UNL     1      73.478  87.258 115.145  1.00  0.00     0.203 C 
ENDROOT
BRANCH   1   8
HETATM    8  N5  UNL     1      74.097  88.361 117.284  1.00  0.00    -0.170 N 
HETATM    9  N4  UNL     1      73.129  88.843 118.035  1.00  0.00    -0.209 N 
HETATM   10  N3  UNL     1      73.450  88.662 119.297  1.00  0.00    -0.114 N 
ATOM     11  H4  UNL     1      72.273  89.282 117.695  1.00  0.00     0.210 HD
HETATM   12  C2  UNL     1      74.641  88.052 119.386  1.00  0.00     0.728 A 
ATOM     13  H3  UNL     1      72.876  88.944 120.093  1.00  0.00     0.207 HD
HETATM   14  N13 UNL     1      75.015  87.880 118.110  1.00  0.00    -0.110 N 
ATOM     15  H13 UNL     1      75.886  87.439 117.816  1.00  0.00     0.207 HD
BRANCH  12  16
HETATM   16  N2  UNL     1      75.286  87.709 120.447  1.00  0.00    -0.019 N 
HETATM   17  C1  UNL     1      76.323  88.445 121.026  1.00  0.00     0.701 C 
HETATM   18  N1  UNL     1      77.525  87.951 121.068  1.00  0.00    -0.233 N 
HETATM   19  N14 UNL     1      76.031  89.732 121.563  1.00  0.00    -0.100 N 
ATOM     20  H12 UNL     1      77.734  87.030 120.683  1.00  0.00     0.174 HD
ATOM     21  H11 UNL     1      78.282  88.488 121.490  1.00  0.00     0.174 HD
ATOM     22  H14 UNL     1      75.467  90.403 121.040  1.00  0.00     0.199 HD
ATOM     23  H2  UNL     1      75.019  86.835 120.899  1.00  0.00     0.203 HD
BRANCH  19  24
HETATM   24  S1  UNL     1      76.658  90.121 123.124  1.00  0.00     0.330 S 
HETATM   25  O4  UNL     1      75.991  89.254 124.154  1.00  0.00    -0.182 OA
HETATM   26  O5  UNL     1      78.129  89.905 123.088  1.00  0.00    -0.182 OA
BRANCH  24  27
HETATM   27  N15 UNL     1      76.250  91.769 123.455  1.00  0.00    -0.311 N 
ATOM     28 2H15 UNL     1      75.367  92.220 123.215  1.00  0.00     0.170 HD
ATOM     29 1H15 UNL     1      77.048  92.196 123.926  1.00  0.00     0.170 HD
ENDBRANCH  24  27
ENDBRANCH  19  24
ENDBRANCH  12  16
ENDBRANCH   1   8
BRANCH   7  30
HETATM   30  C14 UNL     1      72.312  86.655 115.849  1.00  0.00     0.200 C 
BRANCH  30  31
HETATM   31  O3  UNL     1      71.130  86.932 115.199  1.00  0.00    -0.398 OA
ATOM     32  H3  UNL     1      70.402  86.989 115.807  1.00  0.00     0.209 HD
ENDBRANCH  30  31
ENDBRANCH   7  30
BRANCH   5  33
HETATM   33  N7  UNL     1      74.960  88.905 113.288  1.00  0.00    -0.276 N 
HETATM   34  C5  UNL     1      76.071  89.575 113.609  1.00  0.00     0.189 A 
HETATM   35  N8  UNL     1      77.056  89.071 112.853  1.00  0.00    -0.346 N 
HETATM   36  C6  UNL     1      76.575  88.096 112.065  1.00  0.00     0.123 A 
ATOM     37  H8  UNL     1      78.028  89.382 112.873  1.00  0.00     0.167 HD
HETATM   38  C7  UNL     1      77.122  87.254 111.113  1.00  0.00     0.145 A 
HETATM   39  C12 UNL     1      75.234  87.989 112.342  1.00  0.00     0.158 A 
HETATM   40  N10 UNL     1      76.323  86.365 110.497  1.00  0.00    -0.175 N 
HETATM   41  C8  UNL     1      75.010  86.245 110.754  1.00  0.00     0.681 A 
ATOM     42  H10 UNL     1      76.736  85.749 109.797  1.00  0.00     0.186 HD
HETATM   43  N12 UNL     1      74.496  87.071 111.682  1.00  0.00    -0.174 N 
ATOM     44  H12 UNL     1      73.501  87.001 111.897  1.00  0.00     0.186 HD
BRANCH  38  45
HETATM   45  N9  UNL     1      78.360  87.338 110.841  1.00  0.00    -0.383 N 
ATOM     46  H92 UNL     1      79.073  87.287 111.569  1.00  0.00     0.157 HD
ATOM     47  H91 UNL     1      78.653  87.457 109.872  1.00  0.00     0.157 HD
ENDBRANCH  38  45
BRANCH  41  48
HETATM   48  N11 UNL     1      74.254  85.381 110.152  1.00  0.00    -0.226 N 
ATOM     49  H11 UNL     1      73.717  85.639 109.324  1.00  0.00     0.177 HD
BRANCH  48  50
HETATM   50  C9  UNL     1      74.199  84.047 110.691  1.00  0.00     0.140 C 
BRANCH  50  51
HETATM   51  C10 UNL     1      72.815  83.691 111.187  1.00  0.00     0.046 C 
BRANCH  51  52
HETATM   52  C11 UNL     1      72.653  84.182 112.622  1.00  0.00     0.165 C 
BRANCH  52  53
HETATM   53  O1  UNL     1      72.119  85.484 112.573  1.00  0.00    -0.401 OA
ATOM     54  H1  UNL     1      72.480  85.918 111.809  1.00  0.00     0.209 HD
ENDBRANCH  52  53
ENDBRANCH  51  52
ENDBRANCH  50  51
ENDBRANCH  48  50
ENDBRANCH  41  48
ENDBRANCH   5  33
TORSDOF 13
ENDMDL
MODEL 5
REMARK VINA RESULT: -7.567565289      3.813     10.760
REMARK  13 active torsions:
REMARK  status: ('A' for Active; 'I' for Inactive)
REMARK       I    between atoms: N1_1  and  C1_4 
REMARK       I    between atoms: C1_4  and  N2_5 
REMARK       I    between atoms: C1_4  and  N14_47 
REMARK    1  A    between atoms: N2_5  and  C2_7 
REMARK    2  A    between atoms: N5_12  and  C3_13 
REMARK    3  A    between atoms: C4_17  and  N7_18 
REMARK    4  A    between atoms: C7_23  and  N9_24 
REMARK    5  A    between atoms: C8_29  and  N11_30 
REMARK    6  A    between atoms: N11_30  and  C9_32 
REMARK    7  A    between atoms: C9_32  and  C10_33 
REMARK    8  A    between atoms: C10_33  and  C11_34 
REMARK    9  A    between atoms: C11_34  and  O1_35 
REMARK   10  A    between atoms: C13_41  and  C14_42 
REMARK   11  A    between atoms: C14_42  and  O3_43 
REMARK   12  A    between atoms: N14_47  and  S1_49 
REMARK   13  A    between atoms: S1_49  and  N15_50 
ROOT
HETATM    1  C3  UNL     1      73.867  85.508 114.310  1.00  0.00     0.363 C 
HETATM    2  N6  UNL     1      73.222  85.032 113.099  1.00  0.00    -0.003 N 
ATOM      3  H61 UNL     1      73.846  84.726 112.352  1.00  0.00     0.285 HD
ATOM      4  H62 UNL     1      72.759  85.743 112.533  1.00  0.00     0.285 HD
HETATM    5  C4  UNL     1      72.355  84.006 113.664  1.00  0.00     0.440 C 
HETATM    6  O2  UNL     1      71.792  84.651 114.748  1.00  0.00    -0.332 OA
HETATM    7  C13 UNL     1      72.749  85.521 115.275  1.00  0.00     0.203 C 
ENDROOT
BRANCH   1   8
HETATM    8  N5  UNL     1      74.582  86.748 114.132  1.00  0.00    -0.170 N 
HETATM    9  N4  UNL     1      75.326  87.403 114.999  1.00  0.00    -0.209 N 
HETATM   10  N3  UNL     1      75.778  88.494 114.421  1.00  0.00    -0.114 N 
ATOM     11  H4  UNL     1      75.520  87.113 115.957  1.00  0.00     0.210 HD
HETATM   12  C2  UNL     1      75.332  88.565 113.159  1.00  0.00     0.728 A 
ATOM     13  H3  UNL     1      76.380  89.186 114.868  1.00  0.00     0.207 HD
HETATM   14  N13 UNL     1      74.589  87.458 113.013  1.00  0.00    -0.110 N 
ATOM     15  H13 UNL     1      74.096  87.199 112.159  1.00  0.00     0.207 HD
BRANCH  12  16
HETATM   16  N2  UNL     1      75.558  89.480 112.281  1.00  0.00    -0.019 N 
HETATM   17  C1  UNL     1      76.678  90.314 112.266  1.00  0.00     0.701 C 
HETATM   18  N1  UNL     1      76.537  91.594 112.438  1.00  0.00    -0.233 N 
HETATM   19  N14 UNL     1      77.961  89.730 112.057  1.00  0.00    -0.100 N 
ATOM     20  H12 UNL     1      75.619  92.012 112.588  1.00  0.00     0.174 HD
ATOM     21  H11 UNL     1      77.355  92.204 112.427  1.00  0.00     0.174 HD
ATOM     22  H14 UNL     1      78.244  88.889 112.561  1.00  0.00     0.199 HD
ATOM     23  H2  UNL     1      74.867  89.605 111.541  1.00  0.00     0.203 HD
BRANCH  19  24
HETATM   24  S1  UNL     1      79.023  90.489 110.926  1.00  0.00     0.330 S 
HETATM   25  O4  UNL     1      78.249  90.860 109.693  1.00  0.00    -0.182 OA
HETATM   26  O5  UNL     1      79.612  91.684 111.588  1.00  0.00    -0.182 OA
BRANCH  24  27
HETATM   27  N15 UNL     1      80.229  89.330 110.483  1.00  0.00    -0.311 N 
ATOM     28 2H15 UNL     1      80.215  88.339 110.724  1.00  0.00     0.170 HD
ATOM     29 1H15 UNL     1      80.944  89.820 109.945  1.00  0.00     0.170 HD
ENDBRANCH  24  27
ENDBRANCH  19  24
ENDBRANCH  12  16
ENDBRANCH   1   8
BRANCH   7  30
HETATM   30  C14 UNL     1      72.103  86.834 115.547  1.00  0.00     0.200 C 
BRANCH  30  31
HETATM   31  O3  UNL     1      72.623  87.430 116.674  1.00  0.00    -0.398 OA
ATOM     32  H3  UNL     1      72.677  88.374 116.577  1.00  0.00     0.209 HD
ENDBRANCH  30  31
ENDBRANCH   7  30
BRANCH   5  33
HETATM   33  N7  UNL     1      73.148  82.881 114.164  1.00  0.00    -0.276 N 
HETATM   34  C5  UNL     1      74.332  82.440 113.728  1.00  0.00     0.189 A 
HETATM   35  N8  UNL     1      74.658  81.390 114.495  1.00  0.00    -0.346 N 
HETATM   36  C6  UNL     1      73.693  81.170 115.402  1.00  0.00     0.123 A 
ATOM     37  H8  UNL     1      75.512  80.840 114.402  1.00  0.00     0.167 HD
HETATM   38  C7  UNL     1      73.503  80.250 116.418  1.00  0.00     0.145 A 
HETATM   39  C12 UNL     1      72.727  82.123 115.192  1.00  0.00     0.158 A 
HETATM   40  N10 UNL     1      72.384  80.323 117.158  1.00  0.00    -0.175 N 
HETATM   41  C8  UNL     1      71.427  81.247 116.969  1.00  0.00     0.681 A 
ATOM     42  H10 UNL     1      72.253  79.640 117.905  1.00  0.00     0.186 HD
HETATM   43  N12 UNL     1      71.629  82.132 115.978  1.00  0.00    -0.174 N 
ATOM     44  H12 UNL     1      70.918  82.846 115.812  1.00  0.00     0.186 HD
BRANCH  38  45
HETATM   45  N9  UNL     1      74.384  79.360 116.628  1.00  0.00    -0.383 N 
ATOM     46  H92 UNL     1      74.723  78.754 115.880  1.00  0.00     0.157 HD
ATOM     47  H91 UNL     1      74.768  79.245 117.565  1.00  0.00     0.157 HD
ENDBRANCH  38  45
BRANCH  41  48
HETATM   48  N11 UNL     1      70.354  81.303 117.693  1.00  0.00    -0.226 N 
ATOM     49  H11 UNL     1      69.488  81.695 117.322  1.00  0.00     0.177 HD
BRANCH  48  50
HETATM   50  C9  UNL     1      70.425  80.795 119.039  1.00  0.00     0.140 C 
BRANCH  50  51
HETATM   51  C10 UNL     1      69.640  81.647 120.011  1.00  0.00     0.046 C 
BRANCH  51  52
HETATM   52  C11 UNL     1      68.149  81.413 119.797  1.00  0.00     0.165 C 
BRANCH  52  53
HETATM   53  O1  UNL     1      67.449  82.299 120.638  1.00  0.00    -0.401 OA
ATOM     54  H1  UNL     1      67.344  83.120 120.171  1.00  0.00     0.209 HD
ENDBRANCH  52  53
ENDBRANCH  51  52
ENDBRANCH  50  51
ENDBRANCH  48  50
ENDBRANCH  41  48
ENDBRANCH   5  33
TORSDOF 13
ENDMDL
