MODEL 1
REMARK VINA RESULT: -7.684598011      0.000      0.000
REMARK  11 active torsions:
REMARK  status: ('A' for Active; 'I' for Inactive)
REMARK    1  A    between atoms: N1_1  and  C1_4 
REMARK    2  A    between atoms: C2_7  and  C3_8 
REMARK       I    between atoms: C3_8  and  N3_10 
REMARK    3  A    between atoms: C4_12  and  C5_13 
REMARK    4  A    between atoms: C5_13  and  N5_14 
REMARK    5  A    between atoms: C6_19  and  N6_20 
REMARK    6  A    between atoms: C9_26  and  N9_27 
REMARK    7  A    between atoms: C12_36  and  N12_37 
REMARK       I    between atoms: N12_37  and  C13_39 
REMARK    8  A    between atoms: C13_39  and  C14_41 
REMARK    9  A    between atoms: C14_41  and  N13_42 
REMARK   10  A    between atoms: C14_41  and  C15_46 
REMARK   11  A    between atoms: C15_46  and  N14_47 
ROOT
HETATM    1  C3  UNL     1      73.264  85.412 112.454  1.00  0.00     0.288 C 
HETATM    2  O1  UNL     1      72.778  85.874 111.354  1.00  0.00    -0.264 OA
HETATM    3  N3  UNL     1      74.229  86.215 113.055  1.00  0.00    -0.229 N 
HETATM    4  N4  UNL     1      74.873  85.845 114.253  1.00  0.00    -0.100 NA
HETATM    5  C4  UNL     1      76.254  85.604 113.787  1.00  0.00     0.262 C 
HETATM    6  O2  UNL     1      76.798  86.700 113.228  1.00  0.00    -0.337 OA
HETATM    7  C6  UNL     1      75.990  87.844 113.134  1.00  0.00     0.278 C 
HETATM    8  C12 UNL     1      74.677  87.486 112.523  1.00  0.00     0.258 C 
ENDROOT
BRANCH   7   9
HETATM    9  N6  UNL     1      76.693  88.937 112.542  1.00  0.00    -0.273 N 
HETATM   10  C7  UNL     1      76.686  90.234 112.810  1.00  0.00     0.199 A 
HETATM   11  N7  UNL     1      75.977  90.981 113.771  1.00  0.00    -0.063 NA
HETATM   12  N8  UNL     1      77.535  90.902 111.955  1.00  0.00    -0.324 N 
HETATM   13  C8  UNL     1      78.078  90.011 111.144  1.00  0.00     0.123 A 
ATOM     14  H8  UNL     1      77.713  91.906 111.950  1.00  0.00     0.169 HD
HETATM   15  C9  UNL     1      78.987  90.156 110.117  1.00  0.00     0.131 A 
HETATM   16  C11 UNL     1      77.560  88.775 111.501  1.00  0.00     0.144 A 
HETATM   17  N10 UNL     1      79.379  89.066 109.448  1.00  0.00    -0.337 N 
HETATM   18  C10 UNL     1      78.885  87.854 109.784  1.00  0.00     0.183 A 
ATOM     19  H10 UNL     1      80.051  89.150 108.685  1.00  0.00     0.168 HD
HETATM   20  N11 UNL     1      77.998  87.731 110.787  1.00  0.00    -0.336 N 
ATOM     21  H11 UNL     1      77.644  86.802 111.013  1.00  0.00     0.168 HD
BRANCH  15  22
HETATM   22  N9  UNL     1      79.456  91.298 109.764  1.00  0.00    -0.383 N 
ATOM     23  H92 UNL     1      80.465  91.404 109.664  1.00  0.00     0.157 HD
ATOM     24  H91 UNL     1      78.858  92.099 109.563  1.00  0.00     0.157 HD
ENDBRANCH  15  22
ENDBRANCH   7   9
BRANCH   8  25
HETATM   25  N12 UNL     1      73.626  88.429 112.641  1.00  0.00    -0.333 N 
HETATM   26  C13 UNL     1      73.076  89.070 113.752  1.00  0.00     0.251 C 
HETATM   27  O3  UNL     1      73.409  88.917 114.956  1.00  0.00    -0.271 OA
ATOM     28  H12 UNL     1      73.193  88.685 111.754  1.00  0.00     0.164 HD
BRANCH  26  29
HETATM   29  C14 UNL     1      71.963  90.074 113.566  1.00  0.00     0.299 C 
BRANCH  29  30
HETATM   30  N13 UNL     1      71.221  89.681 112.373  1.00  0.00    -0.065 N 
ATOM     31 3H13 UNL     1      70.408  90.271 112.195  1.00  0.00     0.275 HD
ATOM     32 2H13 UNL     1      71.721  89.883 111.507  1.00  0.00     0.275 HD
ATOM     33 1H13 UNL     1      70.984  88.695 112.476  1.00  0.00     0.275 HD
ENDBRANCH  29  30
BRANCH  29  34
HETATM   34  C15 UNL     1      71.000  89.958 114.740  1.00  0.00     0.272 C 
BRANCH  34  35
HETATM   35  N14 UNL     1      70.540  91.245 115.148  1.00  0.00    -0.077 N 
ATOM     36 3H14 UNL     1      71.151  91.988 114.810  1.00  0.00     0.274 HD
ATOM     37 2H14 UNL     1      69.686  91.512 114.659  1.00  0.00     0.274 HD
ATOM     38 1H14 UNL     1      70.422  91.284 116.160  1.00  0.00     0.274 HD
ENDBRANCH  34  35
ENDBRANCH  29  34
ENDBRANCH  26  29
ENDBRANCH   8  25
BRANCH   5  39
HETATM   39  C5  UNL     1      77.075  85.065 114.921  1.00  0.00     0.280 C 
BRANCH  39  40
HETATM   40  N5  UNL     1      76.436  85.321 116.204  1.00  0.00    -0.076 N 
ATOM     41  H53 UNL     1      76.203  86.307 116.317  1.00  0.00     0.274 HD
ATOM     42  H52 UNL     1      75.493  84.933 116.238  1.00  0.00     0.274 HD
ATOM     43  H51 UNL     1      77.008  84.981 116.977  1.00  0.00     0.274 HD
ENDBRANCH  39  40
ENDBRANCH   5  39
BRANCH   1  44
HETATM   44  C2  UNL     1      72.709  84.139 112.866  1.00  0.00     0.123 A 
HETATM   45  N2  UNL     1      72.436  83.913 114.191  1.00  0.00    -0.186 N 
HETATM   46  C1  UNL     1      71.939  82.768 114.660  1.00  0.00     0.679 A 
ATOM     47  H2  UNL     1      72.623  84.664 114.856  1.00  0.00     0.184 HD
HETATM   48  N15 UNL     1      71.686  81.761 113.790  1.00  0.00    -0.156 N 
HETATM   49  C17 UNL     1      71.929  81.913 112.492  1.00  0.00     0.261 A 
ATOM     50  H15 UNL     1      71.306  80.878 114.134  1.00  0.00     0.187 HD
HETATM   51  C16 UNL     1      72.442  83.101 112.005  1.00  0.00     0.110 A 
HETATM   52  O4  UNL     1      71.693  80.972 111.671  1.00  0.00    -0.268 OA
BRANCH  46  53
HETATM   53  N1  UNL     1      71.699  82.628 115.938  1.00  0.00    -0.234 N 
ATOM     54  H12 UNL     1      71.659  83.439 116.555  1.00  0.00     0.174 HD
ATOM     55  H11 UNL     1      71.552  81.701 116.334  1.00  0.00     0.174 HD
ENDBRANCH  46  53
ENDBRANCH   1  44
TORSDOF 11
ENDMDL
MODEL 2
REMARK VINA RESULT: -7.207544944      1.931      7.580
REMARK  11 active torsions:
REMARK  status: ('A' for Active; 'I' for Inactive)
REMARK    1  A    between atoms: N1_1  and  C1_4 
REMARK    2  A    between atoms: C2_7  and  C3_8 
REMARK       I    between atoms: C3_8  and  N3_10 
REMARK    3  A    between atoms: C4_12  and  C5_13 
REMARK    4  A    between atoms: C5_13  and  N5_14 
REMARK    5  A    between atoms: C6_19  and  N6_20 
REMARK    6  A    between atoms: C9_26  and  N9_27 
REMARK    7  A    between atoms: C12_36  and  N12_37 
REMARK       I    between atoms: N12_37  and  C13_39 
REMARK    8  A    between atoms: C13_39  and  C14_41 
REMARK    9  A    between atoms: C14_41  and  N13_42 
REMARK   10  A    between atoms: C14_41  and  C15_46 
REMARK   11  A    between atoms: C15_46  and  N14_47 
ROOT
HETATM    1  C3  UNL     1      77.109  89.731 112.542  1.00  0.00     0.288 C 
HETATM    2  O1  UNL     1      76.662  90.397 113.549  1.00  0.00    -0.264 OA
HETATM    3  N3  UNL     1      76.559  88.462 112.382  1.00  0.00    -0.229 N 
HETATM    4  N4  UNL     1      76.952  87.599 111.340  1.00  0.00    -0.100 NA
HETATM    5  C4  UNL     1      77.642  86.526 112.086  1.00  0.00     0.262 C 
HETATM    6  O2  UNL     1      76.831  85.924 112.974  1.00  0.00    -0.337 OA
HETATM    7  C6  UNL     1      75.520  86.416 113.085  1.00  0.00     0.278 C 
HETATM    8  C12 UNL     1      75.549  87.897 113.255  1.00  0.00     0.258 C 
ENDROOT
BRANCH   7   9
HETATM    9  N6  UNL     1      74.762  85.677 114.044  1.00  0.00    -0.273 N 
HETATM   10  C7  UNL     1      74.772  85.689 115.368  1.00  0.00     0.199 A 
HETATM   11  N7  UNL     1      75.539  86.433 116.286  1.00  0.00    -0.063 NA
HETATM   12  N8  UNL     1      73.856  84.786 115.860  1.00  0.00    -0.324 N 
HETATM   13  C8  UNL     1      73.267  84.203 114.830  1.00  0.00     0.123 A 
ATOM     14  H8  UNL     1      73.666  84.599 116.845  1.00  0.00     0.169 HD
HETATM   15  C9  UNL     1      72.285  83.236 114.775  1.00  0.00     0.131 A 
HETATM   16  C11 UNL     1      73.825  84.754 113.686  1.00  0.00     0.144 A 
HETATM   17  N10 UNL     1      71.859  82.821 113.577  1.00  0.00    -0.337 N 
HETATM   18  C10 UNL     1      72.392  83.348 112.452  1.00  0.00     0.183 A 
ATOM     19  H10 UNL     1      71.134  82.107 113.513  1.00  0.00     0.168 HD
HETATM   20  N11 UNL     1      73.349  84.288 112.524  1.00  0.00    -0.336 N 
ATOM     21  H11 UNL     1      73.730  84.663 111.656  1.00  0.00     0.168 HD
BRANCH  15  22
HETATM   22  N9  UNL     1      71.778  82.705 115.828  1.00  0.00    -0.383 N 
ATOM     23  H92 UNL     1      71.982  83.124 116.736  1.00  0.00     0.157 HD
ATOM     24  H91 UNL     1      71.166  81.890 115.792  1.00  0.00     0.157 HD
ENDBRANCH  15  22
ENDBRANCH   7   9
BRANCH   8  25
HETATM   25  N12 UNL     1      74.332  88.597 113.062  1.00  0.00    -0.333 N 
HETATM   26  C13 UNL     1      73.454  89.197 113.965  1.00  0.00     0.251 C 
HETATM   27  O3  UNL     1      73.559  89.224 115.219  1.00  0.00    -0.271 OA
ATOM     28  H12 UNL     1      74.046  88.676 112.086  1.00  0.00     0.164 HD
BRANCH  26  29
HETATM   29  C14 UNL     1      72.227  89.917 113.456  1.00  0.00     0.299 C 
BRANCH  29  30
HETATM   30  N13 UNL     1      71.747  89.183 112.291  1.00  0.00    -0.065 N 
ATOM     31 3H13 UNL     1      72.359  88.411 112.025  1.00  0.00     0.275 HD
ATOM     32 2H13 UNL     1      70.914  88.628 112.485  1.00  0.00     0.275 HD
ATOM     33 1H13 UNL     1      71.610  89.861 111.542  1.00  0.00     0.275 HD
ENDBRANCH  29  30
BRANCH  29  34
HETATM   34  C15 UNL     1      71.135  89.827 114.514  1.00  0.00     0.272 C 
BRANCH  34  35
HETATM   35  N14 UNL     1      70.799  91.122 115.008  1.00  0.00    -0.077 N 
ATOM     36 3H14 UNL     1      71.410  91.402 115.775  1.00  0.00     0.274 HD
ATOM     37 2H14 UNL     1      71.040  91.854 114.341  1.00  0.00     0.274 HD
ATOM     38 1H14 UNL     1      69.815  91.164 115.275  1.00  0.00     0.274 HD
ENDBRANCH  34  35
ENDBRANCH  29  34
ENDBRANCH  26  29
ENDBRANCH   8  25
BRANCH   5  39
HETATM   39  C5  UNL     1      78.257  85.561 111.117  1.00  0.00     0.280 C 
BRANCH  39  40
HETATM   40  N5  UNL     1      77.445  85.430 109.915  1.00  0.00    -0.076 N 
ATOM     41  H53 UNL     1      76.587  85.977 109.982  1.00  0.00     0.274 HD
ATOM     42  H52 UNL     1      77.872  85.905 109.120  1.00  0.00     0.274 HD
ATOM     43  H51 UNL     1      77.250  84.451 109.706  1.00  0.00     0.274 HD
ENDBRANCH  39  40
ENDBRANCH   5  39
BRANCH   1  44
HETATM   44  C2  UNL     1      78.104  90.430 111.755  1.00  0.00     0.123 A 
HETATM   45  N2  UNL     1      78.179  90.211 110.402  1.00  0.00    -0.186 N 
HETATM   46  C1  UNL     1      79.071  90.801 109.605  1.00  0.00     0.679 A 
ATOM     47  H2  UNL     1      77.515  89.561 109.983  1.00  0.00     0.184 HD
HETATM   48  N15 UNL     1      79.961  91.666 110.148  1.00  0.00    -0.156 N 
HETATM   49  C17 UNL     1      79.944  91.922 111.452  1.00  0.00     0.261 A 
ATOM     50  H15 UNL     1      80.649  92.124 109.551  1.00  0.00     0.187 HD
HETATM   51  C16 UNL     1      79.018  91.314 112.279  1.00  0.00     0.110 A 
HETATM   52  O4  UNL     1      80.775  92.734 111.966  1.00  0.00    -0.268 OA
BRANCH  46  53
HETATM   53  N1  UNL     1      79.077  90.545 108.323  1.00  0.00    -0.234 N 
ATOM     54  H12 UNL     1      79.269  91.280 107.642  1.00  0.00     0.174 HD
ATOM     55  H11 UNL     1      78.888  89.601 107.987  1.00  0.00     0.174 HD
ENDBRANCH  46  53
ENDBRANCH   1  44
TORSDOF 11
ENDMDL
MODEL 3
REMARK VINA RESULT: -7.071672436      1.430      1.630
REMARK  11 active torsions:
REMARK  status: ('A' for Active; 'I' for Inactive)
REMARK    1  A    between atoms: N1_1  and  C1_4 
REMARK    2  A    between atoms: C2_7  and  C3_8 
REMARK       I    between atoms: C3_8  and  N3_10 
REMARK    3  A    between atoms: C4_12  and  C5_13 
REMARK    4  A    between atoms: C5_13  and  N5_14 
REMARK    5  A    between atoms: C6_19  and  N6_20 
REMARK    6  A    between atoms: C9_26  and  N9_27 
REMARK    7  A    between atoms: C12_36  and  N12_37 
REMARK       I    between atoms: N12_37  and  C13_39 
REMARK    8  A    between atoms: C13_39  and  C14_41 
REMARK    9  A    between atoms: C14_41  and  N13_42 
REMARK   10  A    between atoms: C14_41  and  C15_46 
REMARK   11  A    between atoms: C15_46  and  N14_47 
ROOT
HETATM    1  C3  UNL     1      73.050  84.318 113.703  1.00  0.00     0.288 C 
HETATM    2  O1  UNL     1      72.258  84.994 112.944  1.00  0.00    -0.264 OA
HETATM    3  N3  UNL     1      74.208  84.986 114.091  1.00  0.00    -0.229 N 
HETATM    4  N4  UNL     1      75.186  84.382 114.906  1.00  0.00    -0.100 NA
HETATM    5  C4  UNL     1      76.319  84.254 113.966  1.00  0.00     0.262 C 
HETATM    6  O2  UNL     1      76.715  85.446 113.485  1.00  0.00    -0.337 OA
HETATM    7  C6  UNL     1      75.993  86.578 113.895  1.00  0.00     0.278 C 
HETATM    8  C12 UNL     1      74.534  86.344 113.702  1.00  0.00     0.258 C 
ENDROOT
BRANCH   7   9
HETATM    9  N6  UNL     1      76.529  87.776 113.330  1.00  0.00    -0.273 N 
HETATM   10  C7  UNL     1      76.475  89.036 113.732  1.00  0.00     0.199 A 
HETATM   11  N7  UNL     1      75.866  89.629 114.856  1.00  0.00    -0.063 NA
HETATM   12  N8  UNL     1      77.144  89.849 112.844  1.00  0.00    -0.324 N 
HETATM   13  C8  UNL     1      77.620  89.086 111.875  1.00  0.00     0.123 A 
ATOM     14  H8  UNL     1      77.252  90.860 112.919  1.00  0.00     0.169 HD
HETATM   15  C9  UNL     1      78.358  89.401 110.753  1.00  0.00     0.131 A 
HETATM   16  C11 UNL     1      77.243  87.784 112.169  1.00  0.00     0.144 A 
HETATM   17  N10 UNL     1      78.720  88.414 109.925  1.00  0.00    -0.337 N 
HETATM   18  C10 UNL     1      78.361  87.139 110.197  1.00  0.00     0.183 A 
ATOM     19  H10 UNL     1      79.265  88.624 109.090  1.00  0.00     0.168 HD
HETATM   20  N11 UNL     1      77.641  86.851 111.294  1.00  0.00    -0.336 N 
ATOM     21  H11 UNL     1      77.386  85.880 111.468  1.00  0.00     0.168 HD
BRANCH  15  22
HETATM   22  N9  UNL     1      78.693  90.605 110.461  1.00  0.00    -0.383 N 
ATOM     23  H92 UNL     1      78.333  91.367 111.036  1.00  0.00     0.157 HD
ATOM     24  H91 UNL     1      79.319  90.829 109.687  1.00  0.00     0.157 HD
ENDBRANCH  15  22
ENDBRANCH   7   9
BRANCH   8  25
HETATM   25  N12 UNL     1      73.641  87.233 114.350  1.00  0.00    -0.333 N 
HETATM   26  C13 UNL     1      72.796  88.226 113.853  1.00  0.00     0.251 C 
HETATM   27  O3  UNL     1      72.660  88.571 112.650  1.00  0.00    -0.271 OA
ATOM     28  H12 UNL     1      73.611  87.129 115.365  1.00  0.00     0.164 HD
BRANCH  26  29
HETATM   29  C14 UNL     1      71.915  89.008 114.799  1.00  0.00     0.299 C 
BRANCH  29  30
HETATM   30  N13 UNL     1      72.750  89.430 115.918  1.00  0.00    -0.065 N 
ATOM     31 3H13 UNL     1      73.671  89.758 115.627  1.00  0.00     0.275 HD
ATOM     32 2H13 UNL     1      72.431  90.298 116.348  1.00  0.00     0.275 HD
ATOM     33 1H13 UNL     1      72.792  88.651 116.574  1.00  0.00     0.275 HD
ENDBRANCH  29  30
BRANCH  29  34
HETATM   34  C15 UNL     1      71.447  90.275 114.096  1.00  0.00     0.272 C 
BRANCH  34  35
HETATM   35  N14 UNL     1      70.666  91.083 114.972  1.00  0.00    -0.077 N 
ATOM     36 3H14 UNL     1      69.741  90.682 115.131  1.00  0.00     0.274 HD
ATOM     37 2H14 UNL     1      71.016  91.048 115.929  1.00  0.00     0.274 HD
ATOM     38 1H14 UNL     1      70.607  92.041 114.627  1.00  0.00     0.274 HD
ENDBRANCH  34  35
ENDBRANCH  29  34
ENDBRANCH  26  29
ENDBRANCH   8  25
BRANCH   5  39
HETATM   39  C5  UNL     1      77.433  83.498 114.628  1.00  0.00     0.280 C 
BRANCH  39  40
HETATM   40  N5  UNL     1      77.725  84.038 115.948  1.00  0.00    -0.076 N 
ATOM     41  H53 UNL     1      78.722  83.996 116.158  1.00  0.00     0.274 HD
ATOM     42  H52 UNL     1      77.602  85.050 115.975  1.00  0.00     0.274 HD
ATOM     43  H51 UNL     1      77.172  83.575 116.668  1.00  0.00     0.274 HD
ENDBRANCH  39  40
ENDBRANCH   5  39
BRANCH   1  44
HETATM   44  C2  UNL     1      72.585  82.983 114.016  1.00  0.00     0.123 A 
HETATM   45  N2  UNL     1      72.484  82.588 115.327  1.00  0.00    -0.186 N 
HETATM   46  C1  UNL     1      72.079  81.375 115.705  1.00  0.00     0.679 A 
ATOM     47  H2  UNL     1      72.733  83.260 116.052  1.00  0.00     0.184 HD
HETATM   48  N15 UNL     1      71.746  80.470 114.753  1.00  0.00    -0.156 N 
HETATM   49  C17 UNL     1      71.823  80.788 113.465  1.00  0.00     0.261 A 
ATOM     50  H15 UNL     1      71.435  79.538 115.027  1.00  0.00     0.187 HD
HETATM   51  C16 UNL     1      72.240  82.046 113.071  1.00  0.00     0.110 A 
HETATM   52  O4  UNL     1      71.511  79.944 112.567  1.00  0.00    -0.268 OA
BRANCH  46  53
HETATM   53  N1  UNL     1      72.004  81.073 116.975  1.00  0.00    -0.234 N 
ATOM     54  H12 UNL     1      72.487  81.633 117.677  1.00  0.00     0.174 HD
ATOM     55  H11 UNL     1      71.459  80.266 117.279  1.00  0.00     0.174 HD
ENDBRANCH  46  53
ENDBRANCH   1  44
TORSDOF 11
ENDMDL
MODEL 4
REMARK VINA RESULT: -7.070336932      1.450      1.575
REMARK  11 active torsions:
REMARK  status: ('A' for Active; 'I' for Inactive)
REMARK    1  A    between atoms: N1_1  and  C1_4 
REMARK    2  A    between atoms: C2_7  and  C3_8 
REMARK       I    between atoms: C3_8  and  N3_10 
REMARK    3  A    between atoms: C4_12  and  C5_13 
REMARK    4  A    between atoms: C5_13  and  N5_14 
REMARK    5  A    between atoms: C6_19  and  N6_20 
REMARK    6  A    between atoms: C9_26  and  N9_27 
REMARK    7  A    between atoms: C12_36  and  N12_37 
REMARK       I    between atoms: N12_37  and  C13_39 
REMARK    8  A    between atoms: C13_39  and  C14_41 
REMARK    9  A    between atoms: C14_41  and  N13_42 
REMARK   10  A    between atoms: C14_41  and  C15_46 
REMARK   11  A    between atoms: C15_46  and  N14_47 
ROOT
HETATM    1  C3  UNL     1      73.179  84.800 112.090  1.00  0.00     0.288 C 
HETATM    2  O1  UNL     1      72.431  85.694 111.542  1.00  0.00    -0.264 OA
HETATM    3  N3  UNL     1      74.344  85.286 112.677  1.00  0.00    -0.229 N 
HETATM    4  N4  UNL     1      75.279  84.438 113.304  1.00  0.00    -0.100 NA
HETATM    5  C4  UNL     1      76.435  84.542 112.390  1.00  0.00     0.262 C 
HETATM    6  O2  UNL     1      76.881  85.806 112.279  1.00  0.00    -0.337 OA
HETATM    7  C6  UNL     1      76.182  86.800 112.983  1.00  0.00     0.278 C 
HETATM    8  C12 UNL     1      74.722  86.685 112.701  1.00  0.00     0.258 C 
ENDROOT
BRANCH   7   9
HETATM    9  N6  UNL     1      76.770  88.088 112.796  1.00  0.00    -0.273 N 
HETATM   10  C7  UNL     1      76.689  89.201 113.509  1.00  0.00     0.199 A 
HETATM   11  N7  UNL     1      75.991  89.497 114.696  1.00  0.00    -0.063 NA
HETATM   12  N8  UNL     1      77.435  90.199 112.920  1.00  0.00    -0.324 N 
HETATM   13  C8  UNL     1      77.987  89.702 111.827  1.00  0.00     0.123 A 
ATOM     14  H8  UNL     1      77.542  91.152 113.267  1.00  0.00     0.169 HD
HETATM   15  C9  UNL     1      78.818  90.278 110.889  1.00  0.00     0.131 A 
HETATM   16  C11 UNL     1      77.579  88.379 111.738  1.00  0.00     0.144 A 
HETATM   17  N10 UNL     1      79.243  89.532 109.864  1.00  0.00    -0.337 N 
HETATM   18  C10 UNL     1      78.856  88.240 109.762  1.00  0.00     0.183 A 
ATOM     19  H10 UNL     1      79.859  89.937 109.159  1.00  0.00     0.168 HD
HETATM   20  N11 UNL     1      78.044  87.696 110.685  1.00  0.00    -0.336 N 
ATOM     21  H11 UNL     1      77.770  86.720 110.577  1.00  0.00     0.168 HD
BRANCH  15  22
HETATM   22  N9  UNL     1      79.184  91.507 110.951  1.00  0.00    -0.383 N 
ATOM     23  H92 UNL     1      78.996  92.115 110.153  1.00  0.00     0.157 HD
ATOM     24  H91 UNL     1      79.639  91.904 111.772  1.00  0.00     0.157 HD
ENDBRANCH  15  22
ENDBRANCH   7   9
BRANCH   8  25
HETATM   25  N12 UNL     1      73.838  87.384 113.559  1.00  0.00    -0.333 N 
HETATM   26  C13 UNL     1      72.920  88.406 113.312  1.00  0.00     0.251 C 
HETATM   27  O3  UNL     1      72.690  88.967 112.208  1.00  0.00    -0.271 OA
ATOM     28  H12 UNL     1      73.879  87.087 114.534  1.00  0.00     0.164 HD
BRANCH  26  29
HETATM   29  C14 UNL     1      72.071  88.944 114.440  1.00  0.00     0.299 C 
BRANCH  29  30
HETATM   30  N13 UNL     1      72.978  89.348 115.509  1.00  0.00    -0.065 N 
ATOM     31 3H13 UNL     1      73.608  88.601 115.801  1.00  0.00     0.275 HD
ATOM     32 2H13 UNL     1      73.690  90.008 115.199  1.00  0.00     0.275 HD
ATOM     33 1H13 UNL     1      72.404  89.708 116.272  1.00  0.00     0.275 HD
ENDBRANCH  29  30
BRANCH  29  34
HETATM   34  C15 UNL     1      71.366  90.206 113.961  1.00  0.00     0.272 C 
BRANCH  34  35
HETATM   35  N14 UNL     1      70.814  90.927 115.060  1.00  0.00    -0.077 N 
ATOM     36 3H14 UNL     1      71.540  91.378 115.617  1.00  0.00     0.274 HD
ATOM     37 2H14 UNL     1      70.315  91.761 114.752  1.00  0.00     0.274 HD
ATOM     38 1H14 UNL     1      70.222  90.323 115.631  1.00  0.00     0.274 HD
ENDBRANCH  34  35
ENDBRANCH  29  34
ENDBRANCH  26  29
ENDBRANCH   8  25
BRANCH   5  39
HETATM   39  C5  UNL     1      77.506  83.587 112.830  1.00  0.00     0.280 C 
BRANCH  39  40
HETATM   40  N5  UNL     1      77.476  83.388 114.272  1.00  0.00    -0.076 N 
ATOM     41  H53 UNL     1      76.819  84.024 114.724  1.00  0.00     0.274 HD
ATOM     42  H52 UNL     1      77.033  82.503 114.520  1.00  0.00     0.274 HD
ATOM     43  H51 UNL     1      78.409  83.466 114.676  1.00  0.00     0.274 HD
ENDBRANCH  39  40
ENDBRANCH   5  39
BRANCH   1  44
HETATM   44  C2  UNL     1      72.665  83.450 111.998  1.00  0.00     0.123 A 
HETATM   45  N2  UNL     1      72.290  82.785 113.139  1.00  0.00    -0.186 N 
HETATM   46  C1  UNL     1      71.820  81.537 113.148  1.00  0.00     0.679 A 
ATOM     47  H2  UNL     1      72.376  83.274 114.030  1.00  0.00     0.184 HD
HETATM   48  N15 UNL     1      71.702  80.875 111.972  1.00  0.00    -0.156 N 
HETATM   49  C17 UNL     1      72.049  81.459 110.830  1.00  0.00     0.261 A 
ATOM     50  H15 UNL     1      71.345  79.919 111.963  1.00  0.00     0.187 HD
HETATM   51  C16 UNL     1      72.534  82.754 110.819  1.00  0.00     0.110 A 
HETATM   52  O4  UNL     1      71.939  80.844 109.724  1.00  0.00    -0.268 OA
BRANCH  46  53
HETATM   53  N1  UNL     1      71.479  80.971 114.276  1.00  0.00    -0.234 N 
ATOM     54  H12 UNL     1      72.163  80.463 114.836  1.00  0.00     0.174 HD
ATOM     55  H11 UNL     1      70.517  81.030 114.609  1.00  0.00     0.174 HD
ENDBRANCH  46  53
ENDBRANCH   1  44
TORSDOF 11
ENDMDL
MODEL 5
REMARK VINA RESULT: -7.052925115      2.909      8.767
REMARK  11 active torsions:
REMARK  status: ('A' for Active; 'I' for Inactive)
REMARK    1  A    between atoms: N1_1  and  C1_4 
REMARK    2  A    between atoms: C2_7  and  C3_8 
REMARK       I    between atoms: C3_8  and  N3_10 
REMARK    3  A    between atoms: C4_12  and  C5_13 
REMARK    4  A    between atoms: C5_13  and  N5_14 
REMARK    5  A    between atoms: C6_19  and  N6_20 
REMARK    6  A    between atoms: C9_26  and  N9_27 
REMARK    7  A    between atoms: C12_36  and  N12_37 
REMARK       I    between atoms: N12_37  and  C13_39 
REMARK    8  A    between atoms: C13_39  and  C14_41 
REMARK    9  A    between atoms: C14_41  and  N13_42 
REMARK   10  A    between atoms: C14_41  and  C15_46 
REMARK   11  A    between atoms: C15_46  and  N14_47 
ROOT
HETATM    1  C3  UNL     1      72.765  85.658 113.738  1.00  0.00     0.288 C 
HETATM    2  O1  UNL     1      71.595  85.359 113.292  1.00  0.00    -0.264 OA
HETATM    3  N3  UNL     1      73.591  84.569 114.004  1.00  0.00    -0.229 N 
HETATM    4  N4  UNL     1      74.896  84.723 114.513  1.00  0.00    -0.100 NA
HETATM    5  C4  UNL     1      74.755  84.157 115.871  1.00  0.00     0.262 C 
HETATM    6  O2  UNL     1      74.362  82.871 115.844  1.00  0.00    -0.337 OA
HETATM    7  C6  UNL     1      74.111  82.300 114.586  1.00  0.00     0.278 C 
HETATM    8  C12 UNL     1      73.206  83.187 113.800  1.00  0.00     0.258 C 
ENDROOT
BRANCH   7   9
HETATM    9  N6  UNL     1      73.723  80.930 114.700  1.00  0.00    -0.273 N 
HETATM   10  C7  UNL     1      73.872  79.904 113.876  1.00  0.00     0.199 A 
HETATM   11  N7  UNL     1      74.464  79.814 112.601  1.00  0.00    -0.063 NA
HETATM   12  N8  UNL     1      73.322  78.767 114.425  1.00  0.00    -0.324 N 
HETATM   13  C8  UNL     1      72.822  79.088 115.605  1.00  0.00     0.123 A 
ATOM     14  H8  UNL     1      73.303  77.842 113.996  1.00  0.00     0.169 HD
HETATM   15  C9  UNL     1      72.171  78.325 116.552  1.00  0.00     0.131 A 
HETATM   16  C11 UNL     1      73.067  80.441 115.791  1.00  0.00     0.144 A 
HETATM   17  N10 UNL     1      71.766  78.912 117.683  1.00  0.00    -0.337 N 
HETATM   18  C10 UNL     1      71.998  80.229 117.880  1.00  0.00     0.183 A 
ATOM     19  H10 UNL     1      71.283  78.367 118.397  1.00  0.00     0.168 HD
HETATM   20  N11 UNL     1      72.633  80.958 116.947  1.00  0.00    -0.336 N 
ATOM     21  H11 UNL     1      72.790  81.950 117.126  1.00  0.00     0.168 HD
BRANCH  15  22
HETATM   22  N9  UNL     1      71.919  77.077 116.381  1.00  0.00    -0.383 N 
ATOM     23  H92 UNL     1      70.998  76.805 116.037  1.00  0.00     0.157 HD
ATOM     24  H91 UNL     1      72.610  76.348 116.559  1.00  0.00     0.157 HD
ENDBRANCH  15  22
ENDBRANCH   7   9
BRANCH   8  25
HETATM   25  N12 UNL     1      73.102  82.940 112.409  1.00  0.00    -0.333 N 
HETATM   26  C13 UNL     1      72.091  82.360 111.642  1.00  0.00     0.251 C 
HETATM   27  O3  UNL     1      71.000  81.889 112.060  1.00  0.00    -0.271 OA
ATOM     28  H12 UNL     1      73.915  83.241 111.870  1.00  0.00     0.164 HD
BRANCH  26  29
HETATM   29  C14 UNL     1      72.246  82.260 110.143  1.00  0.00     0.299 C 
BRANCH  29  30
HETATM   30  N13 UNL     1      70.916  82.408 109.561  1.00  0.00    -0.065 N 
ATOM     31 3H13 UNL     1      70.203  82.644 110.250  1.00  0.00     0.275 HD
ATOM     32 2H13 UNL     1      70.824  83.244 108.984  1.00  0.00     0.275 HD
ATOM     33 1H13 UNL     1      70.712  81.548 109.052  1.00  0.00     0.275 HD
ENDBRANCH  29  30
BRANCH  29  34
HETATM   34  C15 UNL     1      73.072  83.444 109.658  1.00  0.00     0.272 C 
BRANCH  34  35
HETATM   35  N14 UNL     1      72.266  84.355 108.914  1.00  0.00    -0.077 N 
ATOM     36 3H14 UNL     1      72.551  85.322 109.068  1.00  0.00     0.274 HD
ATOM     37 2H14 UNL     1      72.455  84.294 107.914  1.00  0.00     0.274 HD
ATOM     38 1H14 UNL     1      71.277  84.216 109.120  1.00  0.00     0.274 HD
ENDBRANCH  34  35
ENDBRANCH  29  34
ENDBRANCH  26  29
ENDBRANCH   8  25
BRANCH   5  39
HETATM   39  C5  UNL     1      76.034  84.355 116.629  1.00  0.00     0.280 C 
BRANCH  39  40
HETATM   40  N5  UNL     1      75.815  84.267 118.066  1.00  0.00    -0.076 N 
ATOM     41  H53 UNL     1      76.632  84.581 118.589  1.00  0.00     0.274 HD
ATOM     42  H52 UNL     1      75.145  84.965 118.387  1.00  0.00     0.274 HD
ATOM     43  H51 UNL     1      75.535  83.325 118.340  1.00  0.00     0.274 HD
ENDBRANCH  39  40
ENDBRANCH   5  39
BRANCH   1  44
HETATM   44  C2  UNL     1      73.009  87.079 113.877  1.00  0.00     0.123 A 
HETATM   45  N2  UNL     1      74.031  87.666 113.173  1.00  0.00    -0.186 N 
HETATM   46  C1  UNL     1      74.334  88.963 113.251  1.00  0.00     0.679 A 
ATOM     47  H2  UNL     1      74.589  87.078 112.556  1.00  0.00     0.184 HD
HETATM   48  N15 UNL     1      73.602  89.757 114.068  1.00  0.00    -0.156 N 
HETATM   49  C17 UNL     1      72.599  89.252 114.779  1.00  0.00     0.261 A 
ATOM     50  H15 UNL     1      73.822  90.751 114.139  1.00  0.00     0.187 HD
HETATM   51  C16 UNL     1      72.281  87.909 114.697  1.00  0.00     0.110 A 
HETATM   52  O4  UNL     1      71.907  89.992 115.546  1.00  0.00    -0.268 OA
BRANCH  46  53
HETATM   53  N1  UNL     1      75.320  89.451 112.546  1.00  0.00    -0.234 N 
ATOM     54  H12 UNL     1      75.705  90.373 112.750  1.00  0.00     0.174 HD
ATOM     55  H11 UNL     1      75.717  88.912 111.777  1.00  0.00     0.174 HD
ENDBRANCH  46  53
ENDBRANCH   1  44
TORSDOF 11
ENDMDL
