MODEL 1
REMARK VINA RESULT: -8.872190109      0.000      0.000
REMARK  11 active torsions:
REMARK  status: ('A' for Active; 'I' for Inactive)
REMARK    1  A    between atoms: N1_1  and  C1_4 
REMARK    2  A    between atoms: C3_8  and  C4_9 
REMARK    3  A    between atoms: C5_14  and  N5_15 
REMARK    4  A    between atoms: N5_15  and  C6_17 
REMARK    5  A    between atoms: C9_25  and  N8_26 
REMARK    6  A    between atoms: C11_28  and  N9_29 
REMARK    7  A    between atoms: C12_33  and  C13_34 
REMARK    8  A    between atoms: C13_34  and  O3_35 
REMARK    9  A    between atoms: C13_34  and  C14_37 
REMARK   10  A    between atoms: C14_37  and  O4_38 
REMARK   11  A    between atoms: C14_37  and  C15_40 
ROOT
HETATM    1  C6  UNL     1      74.073  88.182 117.864  1.00  0.00     0.688 A 
HETATM    2  N6  UNL     1      75.203  87.476 117.857  1.00  0.00    -0.154 N 
ATOM      3  H6  UNL     1      75.398  86.838 117.085  1.00  0.00     0.187 HD
HETATM    4  C7  UNL     1      76.100  87.604 118.881  1.00  0.00     0.290 A 
HETATM    5  O2  UNL     1      77.153  86.921 118.832  1.00  0.00    -0.265 OA
HETATM    6  C8  UNL     1      75.872  88.459 119.948  1.00  0.00     0.148 A 
HETATM    7  N7  UNL     1      76.768  88.576 120.971  1.00  0.00    -0.333 N 
ATOM      8  H7  UNL     1      77.631  88.034 120.963  1.00  0.00     0.168 HD
HETATM    9  C9  UNL     1      76.500  89.420 122.000  1.00  0.00     0.135 A 
HETATM   10  C16 UNL     1      75.325  90.132 121.972  1.00  0.00     0.139 A 
HETATM   11  N11 UNL     1      74.448  90.012 120.963  1.00  0.00    -0.346 N 
ATOM     12  H11 UNL     1      73.586  90.556 120.977  1.00  0.00     0.167 HD
HETATM   13  C17 UNL     1      74.695  89.178 119.931  1.00  0.00     0.153 A 
HETATM   14  N12 UNL     1      73.833  89.039 118.923  1.00  0.00    -0.174 N 
ATOM     15  H12 UNL     1      72.970  89.583 118.932  1.00  0.00     0.186 HD
ENDROOT
BRANCH   9  16
HETATM   16  N8  UNL     1      77.425  89.562 123.095  1.00  0.00    -0.277 N 
HETATM   17  C10 UNL     1      78.855  89.750 122.993  1.00  0.00     0.181 C 
HETATM   18  C11 UNL     1      79.355  89.638 124.413  1.00  0.00     0.226 C 
HETATM   19  C12 UNL     1      78.167  89.313 125.260  1.00  0.00     0.163 C 
HETATM   20  N10 UNL     1      77.030  89.532 124.424  1.00  0.00    -0.127 NA
BRANCH  18  21
HETATM   21  N9  UNL     1      79.899  90.899 124.822  1.00  0.00    -0.072 N 
ATOM     22  H93 UNL     1      80.650  91.215 124.208  1.00  0.00     0.274 HD
ATOM     23  H92 UNL     1      79.250  91.670 124.665  1.00  0.00     0.274 HD
ATOM     24  H91 UNL     1      80.196  90.835 125.796  1.00  0.00     0.274 HD
ENDBRANCH  18  21
BRANCH  19  25
HETATM   25  C13 UNL     1      78.158  87.882 125.744  1.00  0.00     0.180 C 
BRANCH  25  26
HETATM   26  O3  UNL     1      76.896  87.410 125.986  1.00  0.00    -0.391 OA
ATOM     27  H3  UNL     1      76.702  87.332 126.913  1.00  0.00     0.210 HD
ENDBRANCH  25  26
BRANCH  25  28
HETATM   28  C14 UNL     1      78.998  86.952 124.905  1.00  0.00     0.249 C 
BRANCH  28  29
HETATM   29  O4  UNL     1      80.073  86.406 125.605  1.00  0.00    -0.382 OA
ATOM     30  H4  UNL     1      80.651  85.890 125.056  1.00  0.00     0.210 HD
ENDBRANCH  28  29
BRANCH  28  31
HETATM   31  C15 UNL     1      78.157  85.903 124.294  1.00  0.00     0.205 C 
HETATM   32  O5  UNL     1      78.115  84.774 124.814  1.00  0.00    -0.646 OA
HETATM   33  O6  UNL     1      77.435  86.185 123.152  1.00  0.00    -0.646 OA
ENDBRANCH  28  31
ENDBRANCH  25  28
ENDBRANCH  19  25
ENDBRANCH   9  16
BRANCH   1  34
HETATM   34  N5  UNL     1      73.200  88.109 116.948  1.00  0.00    -0.172 N 
ATOM     35  H5  UNL     1      72.296  87.737 117.240  1.00  0.00     0.186 HD
BRANCH  34  36
HETATM   36  C5  UNL     1      73.290  88.465 115.592  1.00  0.00     0.165 A 
HETATM   37  C1  UNL     1      72.288  88.136 114.715  1.00  0.00     0.144 A 
HETATM   38  N2  UNL     1      72.455  88.491 113.423  1.00  0.00    -0.347 N 
HETATM   39  C2  UNL     1      73.535  89.136 112.979  1.00  0.00     0.124 A 
ATOM     40  H2  UNL     1      71.721  88.255 112.754  1.00  0.00     0.167 HD
HETATM   41  C3  UNL     1      74.575  89.483 113.865  1.00  0.00     0.115 A 
HETATM   42  N4  UNL     1      74.400  89.128 115.136  1.00  0.00    -0.334 N 
ATOM     43  H4  UNL     1      75.131  89.362 115.808  1.00  0.00     0.168 HD
BRANCH  37  44
HETATM   44  N1  UNL     1      71.205  87.486 115.082  1.00  0.00    -0.382 N 
ATOM     45  H12 UNL     1      70.282  87.691 114.701  1.00  0.00     0.157 HD
ATOM     46  H11 UNL     1      71.267  86.751 115.788  1.00  0.00     0.157 HD
ENDBRANCH  37  44
BRANCH  41  47
HETATM   47  C4  UNL     1      75.759  90.170 113.375  1.00  0.00     0.282 C 
HETATM   48  N3  UNL     1      75.872  91.571 113.581  1.00  0.00    -0.056 NA
HETATM   49  O1  UNL     1      76.683  89.585 112.779  1.00  0.00    -0.269 OA
ENDBRANCH  41  47
ENDBRANCH  34  36
ENDBRANCH   1  34
TORSDOF 11
ENDMDL
MODEL 2
REMARK VINA RESULT: -8.602521891      0.652      1.097
REMARK  11 active torsions:
REMARK  status: ('A' for Active; 'I' for Inactive)
REMARK    1  A    between atoms: N1_1  and  C1_4 
REMARK    2  A    between atoms: C3_8  and  C4_9 
REMARK    3  A    between atoms: C5_14  and  N5_15 
REMARK    4  A    between atoms: N5_15  and  C6_17 
REMARK    5  A    between atoms: C9_25  and  N8_26 
REMARK    6  A    between atoms: C11_28  and  N9_29 
REMARK    7  A    between atoms: C12_33  and  C13_34 
REMARK    8  A    between atoms: C13_34  and  O3_35 
REMARK    9  A    between atoms: C13_34  and  C14_37 
REMARK   10  A    between atoms: C14_37  and  O4_38 
REMARK   11  A    between atoms: C14_37  and  C15_40 
ROOT
HETATM    1  C6  UNL     1      73.969  88.548 117.714  1.00  0.00     0.688 A 
HETATM    2  N6  UNL     1      75.055  87.779 117.658  1.00  0.00    -0.154 N 
ATOM      3  H6  UNL     1      75.219  87.191 116.841  1.00  0.00     0.187 HD
HETATM    4  C7  UNL     1      75.949  87.775 118.692  1.00  0.00     0.290 A 
HETATM    5  O2  UNL     1      76.960  87.037 118.597  1.00  0.00    -0.265 OA
HETATM    6  C8  UNL     1      75.762  88.560 119.821  1.00  0.00     0.148 A 
HETATM    7  N7  UNL     1      76.654  88.546 120.854  1.00  0.00    -0.333 N 
ATOM      8  H7  UNL     1      77.485  87.955 120.808  1.00  0.00     0.168 HD
HETATM    9  C9  UNL     1      76.428  89.323 121.942  1.00  0.00     0.135 A 
HETATM   10  C16 UNL     1      75.298  90.105 121.964  1.00  0.00     0.139 A 
HETATM   11  N11 UNL     1      74.424  90.114 120.945  1.00  0.00    -0.346 N 
ATOM     12  H11 UNL     1      73.595  90.705 120.996  1.00  0.00     0.167 HD
HETATM   13  C17 UNL     1      74.629  89.347 119.853  1.00  0.00     0.153 A 
HETATM   14  N12 UNL     1      73.770  89.336 118.834  1.00  0.00    -0.174 N 
ATOM     15  H12 UNL     1      72.941  89.928 118.880  1.00  0.00     0.186 HD
ENDROOT
BRANCH   9  16
HETATM   16  N8  UNL     1      77.350  89.327 123.049  1.00  0.00    -0.277 N 
HETATM   17  C10 UNL     1      78.665  89.927 123.070  1.00  0.00     0.181 C 
HETATM   18  C11 UNL     1      79.269  89.473 124.376  1.00  0.00     0.226 C 
HETATM   19  C12 UNL     1      78.273  88.559 125.013  1.00  0.00     0.163 C 
HETATM   20  N10 UNL     1      77.066  88.731 124.268  1.00  0.00    -0.127 NA
BRANCH  18  21
HETATM   21  N9  UNL     1      79.477  90.611 125.221  1.00  0.00    -0.072 N 
ATOM     22  H93 UNL     1      79.437  91.490 124.704  1.00  0.00     0.274 HD
ATOM     23  H92 UNL     1      78.690  90.777 125.848  1.00  0.00     0.274 HD
ATOM     24  H91 UNL     1      80.357  90.499 125.725  1.00  0.00     0.274 HD
ENDBRANCH  18  21
BRANCH  19  25
HETATM   25  C13 UNL     1      78.684  87.106 124.963  1.00  0.00     0.180 C 
BRANCH  25  26
HETATM   26  O3  UNL     1      79.299  86.687 126.112  1.00  0.00    -0.391 OA
ATOM     27  H3  UNL     1      78.746  86.771 126.880  1.00  0.00     0.210 HD
ENDBRANCH  25  26
BRANCH  25  28
HETATM   28  C14 UNL     1      77.589  86.181 124.495  1.00  0.00     0.249 C 
BRANCH  28  29
HETATM   29  O4  UNL     1      77.517  86.080 123.107  1.00  0.00    -0.382 OA
ATOM     30  H4  UNL     1      78.206  86.558 122.662  1.00  0.00     0.210 HD
ENDBRANCH  28  29
BRANCH  28  31
HETATM   31  C15 UNL     1      77.722  84.855 125.132  1.00  0.00     0.205 C 
HETATM   32  O5  UNL     1      76.984  84.561 126.089  1.00  0.00    -0.646 OA
HETATM   33  O6  UNL     1      78.667  83.965 124.665  1.00  0.00    -0.646 OA
ENDBRANCH  28  31
ENDBRANCH  25  28
ENDBRANCH  19  25
ENDBRANCH   9  16
BRANCH   1  34
HETATM   34  N5  UNL     1      73.101  88.597 116.792  1.00  0.00    -0.172 N 
ATOM     35  H5  UNL     1      72.131  88.612 117.109  1.00  0.00     0.186 HD
BRANCH  34  36
HETATM   36  C5  UNL     1      73.273  88.634 115.398  1.00  0.00     0.165 A 
HETATM   37  C1  UNL     1      72.428  87.941 114.570  1.00  0.00     0.144 A 
HETATM   38  N2  UNL     1      72.670  88.006 113.243  1.00  0.00    -0.347 N 
HETATM   39  C2  UNL     1      73.678  88.706 112.720  1.00  0.00     0.124 A 
ATOM     40  H2  UNL     1      72.052  87.495 112.610  1.00  0.00     0.167 HD
HETATM   41  C3  UNL     1      74.557  89.426 113.554  1.00  0.00     0.115 A 
HETATM   42  N4  UNL     1      74.309  89.354 114.861  1.00  0.00    -0.334 N 
ATOM     43  H4  UNL     1      74.924  89.862 115.497  1.00  0.00     0.168 HD
BRANCH  37  44
HETATM   44  N1  UNL     1      71.426  87.217 115.019  1.00  0.00    -0.382 N 
ATOM     45  H12 UNL     1      71.527  86.235 115.279  1.00  0.00     0.157 HD
ATOM     46  H11 UNL     1      70.498  87.631 115.105  1.00  0.00     0.157 HD
ENDBRANCH  37  44
BRANCH  41  47
HETATM   47  C4  UNL     1      75.665  90.173 112.984  1.00  0.00     0.282 C 
HETATM   48  N3  UNL     1      76.041  91.405 113.582  1.00  0.00    -0.056 NA
HETATM   49  O1  UNL     1      76.304  89.783 111.988  1.00  0.00    -0.269 OA
ENDBRANCH  41  47
ENDBRANCH  34  36
ENDBRANCH   1  34
TORSDOF 11
ENDMDL
MODEL 3
REMARK VINA RESULT: -8.506784075      2.103      2.768
REMARK  11 active torsions:
REMARK  status: ('A' for Active; 'I' for Inactive)
REMARK    1  A    between atoms: N1_1  and  C1_4 
REMARK    2  A    between atoms: C3_8  and  C4_9 
REMARK    3  A    between atoms: C5_14  and  N5_15 
REMARK    4  A    between atoms: N5_15  and  C6_17 
REMARK    5  A    between atoms: C9_25  and  N8_26 
REMARK    6  A    between atoms: C11_28  and  N9_29 
REMARK    7  A    between atoms: C12_33  and  C13_34 
REMARK    8  A    between atoms: C13_34  and  O3_35 
REMARK    9  A    between atoms: C13_34  and  C14_37 
REMARK   10  A    between atoms: C14_37  and  O4_38 
REMARK   11  A    between atoms: C14_37  and  C15_40 
ROOT
HETATM    1  C6  UNL     1      74.001  88.600 117.707  1.00  0.00     0.688 A 
HETATM    2  N6  UNL     1      75.075  87.816 117.620  1.00  0.00    -0.154 N 
ATOM      3  H6  UNL     1      75.230  87.258 116.781  1.00  0.00     0.187 HD
HETATM    4  C7  UNL     1      75.969  87.759 118.653  1.00  0.00     0.290 A 
HETATM    5  O2  UNL     1      76.968  87.009 118.529  1.00  0.00    -0.265 OA
HETATM    6  C8  UNL     1      75.795  88.502 119.812  1.00  0.00     0.148 A 
HETATM    7  N7  UNL     1      76.687  88.434 120.843  1.00  0.00    -0.333 N 
ATOM      8  H7  UNL     1      77.507  87.833 120.773  1.00  0.00     0.168 HD
HETATM    9  C9  UNL     1      76.473  89.172 121.960  1.00  0.00     0.135 A 
HETATM   10  C16 UNL     1      75.355  89.970 122.013  1.00  0.00     0.139 A 
HETATM   11  N11 UNL     1      74.481  90.032 120.996  1.00  0.00    -0.346 N 
ATOM     12  H11 UNL     1      73.662  90.635 121.070  1.00  0.00     0.167 HD
HETATM   13  C17 UNL     1      74.675  89.305 119.875  1.00  0.00     0.153 A 
HETATM   14  N12 UNL     1      73.815  89.347 118.856  1.00  0.00    -0.174 N 
ATOM     15  H12 UNL     1      72.995  89.950 118.927  1.00  0.00     0.186 HD
ENDROOT
BRANCH   9  16
HETATM   16  N8  UNL     1      77.395  89.119 123.066  1.00  0.00    -0.277 N 
HETATM   17  C10 UNL     1      77.057  89.179 124.470  1.00  0.00     0.181 C 
HETATM   18  C11 UNL     1      78.387  89.284 125.176  1.00  0.00     0.226 C 
HETATM   19  C12 UNL     1      79.432  89.352 124.111  1.00  0.00     0.163 C 
HETATM   20  N10 UNL     1      78.766  88.999 122.898  1.00  0.00    -0.127 NA
BRANCH  18  21
HETATM   21  N9  UNL     1      78.593  88.109 125.970  1.00  0.00    -0.072 N 
ATOM     22  H93 UNL     1      78.285  87.260 125.494  1.00  0.00     0.274 HD
ATOM     23  H92 UNL     1      79.581  87.872 126.062  1.00  0.00     0.274 HD
ATOM     24  H91 UNL     1      78.138  88.232 126.875  1.00  0.00     0.274 HD
ENDBRANCH  18  21
BRANCH  19  25
HETATM   25  C13 UNL     1      80.037  90.728 123.962  1.00  0.00     0.180 C 
BRANCH  25  26
HETATM   26  O3  UNL     1      80.503  91.237 125.145  1.00  0.00    -0.391 OA
ATOM     27  H3  UNL     1      81.057  92.000 125.027  1.00  0.00     0.210 HD
ENDBRANCH  25  26
BRANCH  25  28
HETATM   28  C14 UNL     1      81.026  90.837 122.829  1.00  0.00     0.249 C 
BRANCH  28  29
HETATM   29  O4  UNL     1      81.310  92.155 122.476  1.00  0.00    -0.382 OA
ATOM     30  H4  UNL     1      82.209  92.402 122.653  1.00  0.00     0.210 HD
ENDBRANCH  28  29
BRANCH  28  31
HETATM   31  C15 UNL     1      82.255  90.079 123.139  1.00  0.00     0.205 C 
HETATM   32  O5  UNL     1      82.964  90.432 124.098  1.00  0.00    -0.646 OA
HETATM   33  O6  UNL     1      82.605  88.995 122.360  1.00  0.00    -0.646 OA
ENDBRANCH  28  31
ENDBRANCH  25  28
ENDBRANCH  19  25
ENDBRANCH   9  16
BRANCH   1  34
HETATM   34  N5  UNL     1      73.134  88.699 116.788  1.00  0.00    -0.172 N 
ATOM     35  H5  UNL     1      72.169  88.777 117.109  1.00  0.00     0.186 HD
BRANCH  34  36
HETATM   36  C5  UNL     1      73.302  88.716 115.393  1.00  0.00     0.165 A 
HETATM   37  C1  UNL     1      72.454  88.012 114.578  1.00  0.00     0.144 A 
HETATM   38  N2  UNL     1      72.691  88.058 113.249  1.00  0.00    -0.347 N 
HETATM   39  C2  UNL     1      73.699  88.749 112.713  1.00  0.00     0.124 A 
ATOM     40  H2  UNL     1      72.071  87.540 112.625  1.00  0.00     0.167 HD
HETATM   41  C3  UNL     1      74.582  89.479 113.535  1.00  0.00     0.115 A 
HETATM   42  N4  UNL     1      74.338  89.426 114.843  1.00  0.00    -0.334 N 
ATOM     43  H4  UNL     1      74.955  89.942 115.470  1.00  0.00     0.168 HD
BRANCH  37  44
HETATM   44  N1  UNL     1      71.451  87.297 115.040  1.00  0.00    -0.382 N 
ATOM     45  H12 UNL     1      70.990  86.572 114.490  1.00  0.00     0.157 HD
ATOM     46  H11 UNL     1      71.095  87.468 115.981  1.00  0.00     0.157 HD
ENDBRANCH  37  44
BRANCH  41  47
HETATM   47  C4  UNL     1      75.689  90.215 112.950  1.00  0.00     0.282 C 
HETATM   48  N3  UNL     1      76.055  91.466 113.516  1.00  0.00    -0.056 NA
HETATM   49  O1  UNL     1      76.337  89.801 111.970  1.00  0.00    -0.269 OA
ENDBRANCH  41  47
ENDBRANCH  34  36
ENDBRANCH   1  34
TORSDOF 11
ENDMDL
MODEL 4
REMARK VINA RESULT: -8.417998022      1.764      1.970
REMARK  11 active torsions:
REMARK  status: ('A' for Active; 'I' for Inactive)
REMARK    1  A    between atoms: N1_1  and  C1_4 
REMARK    2  A    between atoms: C3_8  and  C4_9 
REMARK    3  A    between atoms: C5_14  and  N5_15 
REMARK    4  A    between atoms: N5_15  and  C6_17 
REMARK    5  A    between atoms: C9_25  and  N8_26 
REMARK    6  A    between atoms: C11_28  and  N9_29 
REMARK    7  A    between atoms: C12_33  and  C13_34 
REMARK    8  A    between atoms: C13_34  and  O3_35 
REMARK    9  A    between atoms: C13_34  and  C14_37 
REMARK   10  A    between atoms: C14_37  and  O4_38 
REMARK   11  A    between atoms: C14_37  and  C15_40 
ROOT
HETATM    1  C6  UNL     1      73.500  87.950 117.000  1.00  0.00     0.688 A 
HETATM    2  N6  UNL     1      74.710  87.396 116.949  1.00  0.00    -0.154 N 
ATOM      3  H6  UNL     1      74.975  86.824 116.147  1.00  0.00     0.187 HD
HETATM    4  C7  UNL     1      75.599  87.593 117.970  1.00  0.00     0.290 A 
HETATM    5  O2  UNL     1      76.730  87.054 117.881  1.00  0.00    -0.265 OA
HETATM    6  C8  UNL     1      75.279  88.364 119.078  1.00  0.00     0.148 A 
HETATM    7  N7  UNL     1      76.167  88.550 120.097  1.00  0.00    -0.333 N 
ATOM      8  H7  UNL     1      77.093  88.124 120.056  1.00  0.00     0.168 HD
HETATM    9  C9  UNL     1      75.809  89.305 121.166  1.00  0.00     0.135 A 
HETATM   10  C16 UNL     1      74.552  89.861 121.182  1.00  0.00     0.139 A 
HETATM   11  N11 UNL     1      73.683  89.673 120.176  1.00  0.00    -0.346 N 
ATOM     12  H11 UNL     1      72.758  90.101 120.222  1.00  0.00     0.167 HD
HETATM   13  C17 UNL     1      74.019  88.925 119.104  1.00  0.00     0.153 A 
HETATM   14  N12 UNL     1      73.167  88.721 118.098  1.00  0.00    -0.174 N 
ATOM     15  H12 UNL     1      72.242  89.148 118.141  1.00  0.00     0.186 HD
ENDROOT
BRANCH   9  16
HETATM   16  N8  UNL     1      76.724  89.516 122.258  1.00  0.00    -0.277 N 
HETATM   17  C10 UNL     1      78.166  89.422 122.202  1.00  0.00     0.181 C 
HETATM   18  C11 UNL     1      78.610  89.535 123.640  1.00  0.00     0.226 C 
HETATM   19  C12 UNL     1      77.368  89.617 124.465  1.00  0.00     0.163 C 
HETATM   20  N10 UNL     1      76.306  89.846 123.538  1.00  0.00    -0.127 NA
BRANCH  18  21
HETATM   21  N9  UNL     1      79.371  90.738 123.805  1.00  0.00    -0.072 N 
ATOM     22  H93 UNL     1      78.952  91.371 124.487  1.00  0.00     0.274 HD
ATOM     23  H92 UNL     1      80.256  90.574 124.284  1.00  0.00     0.274 HD
ATOM     24  H91 UNL     1      79.500  91.180 122.894  1.00  0.00     0.274 HD
ENDBRANCH  18  21
BRANCH  19  25
HETATM   25  C13 UNL     1      77.085  88.350 125.239  1.00  0.00     0.180 C 
BRANCH  25  26
HETATM   26  O3  UNL     1      75.870  87.798 124.932  1.00  0.00    -0.391 OA
ATOM     27  H3  UNL     1      75.601  87.130 125.550  1.00  0.00     0.210 HD
ENDBRANCH  25  26
BRANCH  25  28
HETATM   28  C14 UNL     1      78.221  87.358 125.214  1.00  0.00     0.249 C 
BRANCH  28  29
HETATM   29  O4  UNL     1      78.937  87.319 126.409  1.00  0.00    -0.382 OA
ATOM     30  H4  UNL     1      78.842  88.109 126.926  1.00  0.00     0.210 HD
ENDBRANCH  28  29
BRANCH  28  31
HETATM   31  C15 UNL     1      77.731  86.019 124.828  1.00  0.00     0.205 C 
HETATM   32  O5  UNL     1      77.463  85.188 125.714  1.00  0.00    -0.646 OA
HETATM   33  O6  UNL     1      77.583  85.704 123.493  1.00  0.00    -0.646 OA
ENDBRANCH  28  31
ENDBRANCH  25  28
ENDBRANCH  19  25
ENDBRANCH   9  16
BRANCH   1  34
HETATM   34  N5  UNL     1      72.630  87.806 116.089  1.00  0.00    -0.172 N 
ATOM     35  H5  UNL     1      71.747  87.396 116.394  1.00  0.00     0.186 HD
BRANCH  34  36
HETATM   36  C5  UNL     1      72.698  88.127 114.723  1.00  0.00     0.165 A 
HETATM   37  C1  UNL     1      72.153  89.293 114.250  1.00  0.00     0.144 A 
HETATM   38  N2  UNL     1      72.238  89.522 112.921  1.00  0.00    -0.347 N 
HETATM   39  C2  UNL     1      72.820  88.673 112.072  1.00  0.00     0.124 A 
ATOM     40  H2  UNL     1      71.837  90.384 112.550  1.00  0.00     0.167 HD
HETATM   41  C3  UNL     1      73.387  87.470 112.539  1.00  0.00     0.115 A 
HETATM   42  N4  UNL     1      73.297  87.255 113.851  1.00  0.00    -0.334 N 
ATOM     43  H4  UNL     1      73.695  86.394 114.227  1.00  0.00     0.168 HD
BRANCH  37  44
HETATM   44  N1  UNL     1      71.549  90.164 115.028  1.00  0.00    -0.382 N 
ATOM     45  H12 UNL     1      72.048  90.727 115.718  1.00  0.00     0.157 HD
ATOM     46  H11 UNL     1      70.539  90.287 114.967  1.00  0.00     0.157 HD
ENDBRANCH  37  44
BRANCH  41  47
HETATM   47  C4  UNL     1      74.004  86.540 111.610  1.00  0.00     0.282 C 
HETATM   48  N3  UNL     1      75.213  86.916 110.966  1.00  0.00    -0.056 NA
HETATM   49  O1  UNL     1      73.521  85.422 111.348  1.00  0.00    -0.269 OA
ENDBRANCH  41  47
ENDBRANCH  34  36
ENDBRANCH   1  34
TORSDOF 11
ENDMDL
MODEL 5
REMARK VINA RESULT: -8.349384083      1.737      2.091
REMARK  11 active torsions:
REMARK  status: ('A' for Active; 'I' for Inactive)
REMARK    1  A    between atoms: N1_1  and  C1_4 
REMARK    2  A    between atoms: C3_8  and  C4_9 
REMARK    3  A    between atoms: C5_14  and  N5_15 
REMARK    4  A    between atoms: N5_15  and  C6_17 
REMARK    5  A    between atoms: C9_25  and  N8_26 
REMARK    6  A    between atoms: C11_28  and  N9_29 
REMARK    7  A    between atoms: C12_33  and  C13_34 
REMARK    8  A    between atoms: C13_34  and  O3_35 
REMARK    9  A    between atoms: C13_34  and  C14_37 
REMARK   10  A    between atoms: C14_37  and  O4_38 
REMARK   11  A    between atoms: C14_37  and  C15_40 
ROOT
HETATM    1  C6  UNL     1      74.006  88.598 117.692  1.00  0.00     0.688 A 
HETATM    2  N6  UNL     1      75.083  87.820 117.595  1.00  0.00    -0.154 N 
ATOM      3  H6  UNL     1      75.235  87.264 116.754  1.00  0.00     0.187 HD
HETATM    4  C7  UNL     1      75.986  87.766 118.621  1.00  0.00     0.290 A 
HETATM    5  O2  UNL     1      76.988  87.022 118.487  1.00  0.00    -0.265 OA
HETATM    6  C8  UNL     1      75.817  88.506 119.782  1.00  0.00     0.148 A 
HETATM    7  N7  UNL     1      76.717  88.442 120.805  1.00  0.00    -0.333 N 
ATOM      8  H7  UNL     1      77.541  87.846 120.728  1.00  0.00     0.168 HD
HETATM    9  C9  UNL     1      76.508  89.177 121.926  1.00  0.00     0.135 A 
HETATM   10  C16 UNL     1      75.386  89.968 121.989  1.00  0.00     0.139 A 
HETATM   11  N11 UNL     1      74.504  90.026 120.979  1.00  0.00    -0.346 N 
ATOM     12  H11 UNL     1      73.682  90.624 121.061  1.00  0.00     0.167 HD
HETATM   13  C17 UNL     1      74.692  89.302 119.856  1.00  0.00     0.153 A 
HETATM   14  N12 UNL     1      73.824  89.341 118.844  1.00  0.00    -0.174 N 
ATOM     15  H12 UNL     1      73.002  89.939 118.922  1.00  0.00     0.186 HD
ENDROOT
BRANCH   9  16
HETATM   16  N8  UNL     1      77.439  89.127 123.024  1.00  0.00    -0.277 N 
HETATM   17  C10 UNL     1      77.638  90.147 124.029  1.00  0.00     0.181 C 
HETATM   18  C11 UNL     1      78.847  89.684 124.805  1.00  0.00     0.226 C 
HETATM   19  C12 UNL     1      79.328  88.434 124.143  1.00  0.00     0.163 C 
HETATM   20  N10 UNL     1      78.283  88.050 123.248  1.00  0.00    -0.127 NA
BRANCH  18  21
HETATM   21  N9  UNL     1      78.457  89.388 126.152  1.00  0.00    -0.072 N 
ATOM     22  H93 UNL     1      78.599  90.180 126.780  1.00  0.00     0.274 HD
ATOM     23  H92 UNL     1      77.446  89.303 126.252  1.00  0.00     0.274 HD
ATOM     24  H91 UNL     1      78.949  88.552 126.467  1.00  0.00     0.274 HD
ENDBRANCH  18  21
BRANCH  19  25
HETATM   25  C13 UNL     1      80.604  88.632 123.359  1.00  0.00     0.180 C 
BRANCH  25  26
HETATM   26  O3  UNL     1      81.458  89.526 123.948  1.00  0.00    -0.391 OA
ATOM     27  H3  UNL     1      82.359  89.225 123.960  1.00  0.00     0.210 HD
ENDBRANCH  25  26
BRANCH  25  28
HETATM   28  C14 UNL     1      81.271  87.342 122.951  1.00  0.00     0.249 C 
BRANCH  28  29
HETATM   29  O4  UNL     1      80.665  86.215 123.501  1.00  0.00    -0.382 OA
ATOM     30  H4  UNL     1      80.297  86.374 124.362  1.00  0.00     0.210 HD
ENDBRANCH  28  29
BRANCH  28  31
HETATM   31  C15 UNL     1      81.362  87.249 121.479  1.00  0.00     0.205 C 
HETATM   32  O5  UNL     1      82.416  87.584 120.910  1.00  0.00    -0.646 OA
HETATM   33  O6  UNL     1      80.276  86.801 120.755  1.00  0.00    -0.646 OA
ENDBRANCH  28  31
ENDBRANCH  25  28
ENDBRANCH  19  25
ENDBRANCH   9  16
BRANCH   1  34
HETATM   34  N5  UNL     1      73.131  88.692 116.780  1.00  0.00    -0.172 N 
ATOM     35  H5  UNL     1      72.168  88.769 117.109  1.00  0.00     0.186 HD
BRANCH  34  36
HETATM   36  C5  UNL     1      73.287  88.707 115.384  1.00  0.00     0.165 A 
HETATM   37  C1  UNL     1      72.425  88.011 114.576  1.00  0.00     0.144 A 
HETATM   38  N2  UNL     1      72.652  88.054 113.245  1.00  0.00    -0.347 N 
HETATM   39  C2  UNL     1      73.661  88.736 112.701  1.00  0.00     0.124 A 
ATOM     40  H2  UNL     1      72.022  87.541 112.627  1.00  0.00     0.167 HD
HETATM   41  C3  UNL     1      74.557  89.458 113.514  1.00  0.00     0.115 A 
HETATM   42  N4  UNL     1      74.324  89.408 114.824  1.00  0.00    -0.334 N 
ATOM     43  H4  UNL     1      74.951  89.919 115.446  1.00  0.00     0.168 HD
BRANCH  37  44
HETATM   44  N1  UNL     1      71.421  87.304 115.048  1.00  0.00    -0.382 N 
ATOM     45  H12 UNL     1      70.579  87.731 115.435  1.00  0.00     0.157 HD
ATOM     46  H11 UNL     1      71.472  86.285 115.050  1.00  0.00     0.157 HD
ENDBRANCH  37  44
BRANCH  41  47
HETATM   47  C4  UNL     1      75.666  90.185 112.920  1.00  0.00     0.282 C 
HETATM   48  N3  UNL     1      76.075  91.412 113.507  1.00  0.00    -0.056 NA
HETATM   49  O1  UNL     1      76.279  89.782 111.913  1.00  0.00    -0.269 OA
ENDBRANCH  41  47
ENDBRANCH  34  36
ENDBRANCH   1  34
TORSDOF 11
ENDMDL
