MODEL 1
REMARK VINA RESULT: -7.389505787      0.000      0.000
REMARK  19 active torsions:
REMARK  status: ('A' for Active; 'I' for Inactive)
REMARK    1  A    between atoms: C3_6  and  O1_7 
REMARK    2  A    between atoms: O1_7  and  C4_8 
REMARK    3  A    between atoms: C4_8  and  C5_9 
REMARK    4  A    between atoms: C8_12  and  O2_13 
REMARK    5  A    between atoms: O2_13  and  C9_14 
REMARK    6  A    between atoms: C9_14  and  C10_15 
REMARK    7  A    between atoms: C10_15  and  C11_16 
REMARK    8  A    between atoms: C11_16  and  C12_17 
REMARK    9  A    between atoms: C12_17  and  C13_18 
REMARK   10  A    between atoms: C13_18  and  C14_19 
REMARK   11  A    between atoms: C14_19  and  N2_20 
REMARK   12  A    between atoms: N2_20  and  C15_23 
REMARK   13  A    between atoms: C15_23  and  C17_25 
REMARK   14  A    between atoms: C19_29  and  O3_30 
REMARK   15  A    between atoms: C20_32  and  O4_33 
REMARK   16  A    between atoms: C21_35  and  O5_36 
REMARK   17  A    between atoms: C22_38  and  O6_39 
REMARK   18  A    between atoms: C23_41  and  O7_42 
REMARK   19  A    between atoms: C24_44  and  O8_45 
ROOT
HETATM    1  C5  UNL     1      73.125  21.352  29.176  1.00  0.00     0.047 C 
HETATM    2  C6  UNL     1      72.874  21.890  30.526  1.00  0.00     0.022 C 
HETATM    3  C7  UNL     1      73.591  21.025  31.563  1.00  0.00     0.013 C 
HETATM    4  C8  UNL     1      71.464  22.159  30.933  1.00  0.00     0.157 C 
HETATM    5  C19 UNL     1      70.413  21.491  30.138  1.00  0.00     0.178 C 
HETATM    6  C20 UNL     1      70.776  21.413  28.649  1.00  0.00     0.178 C 
HETATM    7  C21 UNL     1      71.999  20.527  28.606  1.00  0.00     0.156 C 
ENDROOT
BRANCH   1   8
HETATM    8  C4  UNL     1      73.544  22.443  28.181  1.00  0.00     0.178 C 
BRANCH   8   9
HETATM    9  O1  UNL     1      74.448  21.885  27.316  1.00  0.00    -0.357 OA
BRANCH   9  10
HETATM   10  C3  UNL     1      75.531  22.670  27.003  1.00  0.00     0.353 C 
HETATM   11  N1  UNL     1      74.993  23.967  26.596  1.00  0.00    -0.040 N 
HETATM   12  C2  UNL     1      76.079  24.891  26.305  1.00  0.00     0.216 C 
ATOM     13  H12 UNL     1      74.346  24.345  27.287  1.00  0.00     0.280 HD
ATOM     14  H11 UNL     1      74.345  23.882  25.813  1.00  0.00     0.280 HD
HETATM   15  C1  UNL     1      75.469  26.196  25.866  1.00  0.00     0.043 C 
HETATM   16  C24 UNL     1      76.950  25.123  27.493  1.00  0.00     0.179 C 
HETATM   17  C23 UNL     1      77.456  23.866  28.126  1.00  0.00     0.181 C 
HETATM   18  C22 UNL     1      76.359  22.865  28.248  1.00  0.00     0.205 C 
BRANCH  16  19
HETATM   19  O8  UNL     1      76.289  25.891  28.470  1.00  0.00    -0.391 OA
ATOM     20  H8  UNL     1      76.909  26.322  29.048  1.00  0.00     0.210 HD
ENDBRANCH  16  19
BRANCH  17  21
HETATM   21  O7  UNL     1      78.592  23.350  27.501  1.00  0.00    -0.390 OA
ATOM     22  H7  UNL     1      79.385  23.489  28.006  1.00  0.00     0.210 HD
ENDBRANCH  17  21
BRANCH  18  23
HETATM   23  O6  UNL     1      76.846  21.641  28.717  1.00  0.00    -0.388 OA
ATOM     24  H6  UNL     1      77.744  21.728  29.015  1.00  0.00     0.210 HD
ENDBRANCH  18  23
ENDBRANCH   9  10
ENDBRANCH   8   9
ENDBRANCH   1   8
BRANCH   7  25
HETATM   25  O5  UNL     1      72.303  20.021  27.379  1.00  0.00    -0.392 OA
ATOM     26  H5  UNL     1      71.562  19.581  26.979  1.00  0.00     0.210 HD
ENDBRANCH   7  25
BRANCH   4  27
HETATM   27  O2  UNL     1      71.196  23.524  31.052  1.00  0.00    -0.383 OA
BRANCH  27  28
HETATM   28  C9  UNL     1      72.211  24.258  31.603  1.00  0.00     0.168 C 
BRANCH  28  29
HETATM   29  C10 UNL     1      72.339  24.224  33.088  1.00  0.00     0.026 C 
BRANCH  29  30
HETATM   30  C11 UNL     1      72.493  25.667  33.575  1.00  0.00     0.002 C 
BRANCH  30  31
HETATM   31  C12 UNL     1      73.875  25.949  34.107  1.00  0.00     0.002 C 
BRANCH  31  32
HETATM   32  C13 UNL     1      74.246  27.394  34.037  1.00  0.00     0.027 C 
BRANCH  32  33
HETATM   33  C14 UNL     1      73.024  28.245  34.330  1.00  0.00     0.233 C 
BRANCH  33  34
HETATM   34  N2  UNL     1      72.901  29.345  33.415  1.00  0.00    -0.066 N 
ATOM     35  H22 UNL     1      73.566  30.084  33.643  1.00  0.00     0.277 HD
ATOM     36  H21 UNL     1      73.245  29.090  32.490  1.00  0.00     0.277 HD
BRANCH  34  37
HETATM   37  C15 UNL     1      71.556  29.867  33.339  1.00  0.00     0.253 C 
HETATM   38  C16 UNL     1      70.520  28.840  33.672  1.00  0.00     0.046 C 
BRANCH  37  39
HETATM   39  C17 UNL     1      71.305  30.397  31.945  1.00  0.00     0.267 C 
HETATM   40  C18 UNL     1      72.523  31.178  31.451  1.00  0.00     0.092 C 
HETATM   41  F1  UNL     1      71.124  29.346  31.041  1.00  0.00    -0.204 F 
HETATM   42  F2  UNL     1      70.176  31.184  31.891  1.00  0.00    -0.204 F 
ENDBRANCH  37  39
ENDBRANCH  34  37
ENDBRANCH  33  34
ENDBRANCH  32  33
ENDBRANCH  31  32
ENDBRANCH  30  31
ENDBRANCH  29  30
ENDBRANCH  28  29
ENDBRANCH  27  28
ENDBRANCH   4  27
BRANCH   6  43
HETATM   43  O4  UNL     1      69.736  20.955  27.883  1.00  0.00    -0.390 OA
ATOM     44  H4  UNL     1      69.803  20.025  27.702  1.00  0.00     0.210 HD
ENDBRANCH   6  43
BRANCH   5  45
HETATM   45  O3  UNL     1      69.194  22.113  30.218  1.00  0.00    -0.390 OA
ATOM     46  H3  UNL     1      68.509  21.660  29.741  1.00  0.00     0.210 HD
ENDBRANCH   5  45
TORSDOF 19
ENDMDL
MODEL 2
REMARK VINA RESULT: -7.292910030      3.166      4.185
REMARK  19 active torsions:
REMARK  status: ('A' for Active; 'I' for Inactive)
REMARK    1  A    between atoms: C3_6  and  O1_7 
REMARK    2  A    between atoms: O1_7  and  C4_8 
REMARK    3  A    between atoms: C4_8  and  C5_9 
REMARK    4  A    between atoms: C8_12  and  O2_13 
REMARK    5  A    between atoms: O2_13  and  C9_14 
REMARK    6  A    between atoms: C9_14  and  C10_15 
REMARK    7  A    between atoms: C10_15  and  C11_16 
REMARK    8  A    between atoms: C11_16  and  C12_17 
REMARK    9  A    between atoms: C12_17  and  C13_18 
REMARK   10  A    between atoms: C13_18  and  C14_19 
REMARK   11  A    between atoms: C14_19  and  N2_20 
REMARK   12  A    between atoms: N2_20  and  C15_23 
REMARK   13  A    between atoms: C15_23  and  C17_25 
REMARK   14  A    between atoms: C19_29  and  O3_30 
REMARK   15  A    between atoms: C20_32  and  O4_33 
REMARK   16  A    between atoms: C21_35  and  O5_36 
REMARK   17  A    between atoms: C22_38  and  O6_39 
REMARK   18  A    between atoms: C23_41  and  O7_42 
REMARK   19  A    between atoms: C24_44  and  O8_45 
ROOT
HETATM    1  C5  UNL     1      73.143  21.373  29.173  1.00  0.00     0.047 C 
HETATM    2  C6  UNL     1      72.891  21.932  30.515  1.00  0.00     0.022 C 
HETATM    3  C7  UNL     1      73.619  21.091  31.564  1.00  0.00     0.013 C 
HETATM    4  C8  UNL     1      71.480  22.195  30.920  1.00  0.00     0.157 C 
HETATM    5  C19 UNL     1      70.433  21.504  30.140  1.00  0.00     0.178 C 
HETATM    6  C20 UNL     1      70.793  21.404  28.652  1.00  0.00     0.178 C 
HETATM    7  C21 UNL     1      72.024  20.529  28.620  1.00  0.00     0.156 C 
ENDROOT
BRANCH   1   8
HETATM    8  C4  UNL     1      73.550  22.452  28.158  1.00  0.00     0.178 C 
BRANCH   8   9
HETATM    9  O1  UNL     1      74.465  21.890  27.307  1.00  0.00    -0.357 OA
BRANCH   9  10
HETATM   10  C3  UNL     1      75.547  22.677  26.997  1.00  0.00     0.353 C 
HETATM   11  N1  UNL     1      75.008  23.967  26.571  1.00  0.00    -0.040 N 
HETATM   12  C2  UNL     1      76.091  24.893  26.282  1.00  0.00     0.216 C 
ATOM     13  H12 UNL     1      74.350  24.349  27.250  1.00  0.00     0.280 HD
ATOM     14  H11 UNL     1      74.368  23.871  25.782  1.00  0.00     0.280 HD
HETATM   15  C1  UNL     1      75.480  26.191  25.822  1.00  0.00     0.043 C 
HETATM   16  C24 UNL     1      76.949  25.143  27.477  1.00  0.00     0.179 C 
HETATM   17  C23 UNL     1      77.453  23.895  28.128  1.00  0.00     0.181 C 
HETATM   18  C22 UNL     1      76.360  22.890  28.250  1.00  0.00     0.205 C 
BRANCH  16  19
HETATM   19  O8  UNL     1      76.273  25.918  28.438  1.00  0.00    -0.391 OA
ATOM     20  H8  UNL     1      76.860  26.195  29.132  1.00  0.00     0.210 HD
ENDBRANCH  16  19
BRANCH  17  21
HETATM   21  O7  UNL     1      78.599  23.379  27.522  1.00  0.00    -0.390 OA
ATOM     22  H7  UNL     1      79.071  24.028  27.014  1.00  0.00     0.210 HD
ENDBRANCH  17  21
BRANCH  18  23
HETATM   23  O6  UNL     1      76.848  21.674  28.737  1.00  0.00    -0.388 OA
ATOM     24  H6  UNL     1      76.179  21.001  28.695  1.00  0.00     0.210 HD
ENDBRANCH  18  23
ENDBRANCH   9  10
ENDBRANCH   8   9
ENDBRANCH   1   8
BRANCH   7  25
HETATM   25  O5  UNL     1      72.329  20.005  27.400  1.00  0.00    -0.392 OA
ATOM     26  H5  UNL     1      71.717  19.328  27.138  1.00  0.00     0.210 HD
ENDBRANCH   7  25
BRANCH   4  27
HETATM   27  O2  UNL     1      71.200  23.559  31.017  1.00  0.00    -0.383 OA
BRANCH  27  28
HETATM   28  C9  UNL     1      72.174  24.299  31.630  1.00  0.00     0.168 C 
BRANCH  28  29
HETATM   29  C10 UNL     1      72.251  24.216  33.116  1.00  0.00     0.026 C 
BRANCH  29  30
HETATM   30  C11 UNL     1      73.180  25.334  33.597  1.00  0.00     0.002 C 
BRANCH  30  31
HETATM   31  C12 UNL     1      72.796  25.853  34.959  1.00  0.00     0.002 C 
BRANCH  31  32
HETATM   32  C13 UNL     1      71.618  25.146  35.545  1.00  0.00     0.027 C 
BRANCH  32  33
HETATM   33  C14 UNL     1      72.035  24.443  36.823  1.00  0.00     0.233 C 
BRANCH  33  34
HETATM   34  N2  UNL     1      72.156  23.023  36.644  1.00  0.00    -0.066 N 
ATOM     35  H22 UNL     1      71.438  22.527  37.172  1.00  0.00     0.277 HD
ATOM     36  H21 UNL     1      71.884  22.751  35.699  1.00  0.00     0.277 HD
BRANCH  34  37
HETATM   37  C15 UNL     1      73.472  22.524  36.965  1.00  0.00     0.253 C 
HETATM   38  C16 UNL     1      74.412  23.608  37.389  1.00  0.00     0.046 C 
BRANCH  37  39
HETATM   39  C17 UNL     1      74.043  21.809  35.761  1.00  0.00     0.267 C 
HETATM   40  C18 UNL     1      75.160  22.643  35.134  1.00  0.00     0.092 C 
HETATM   41  F1  UNL     1      74.627  20.596  36.137  1.00  0.00    -0.204 F 
HETATM   42  F2  UNL     1      73.073  21.525  34.825  1.00  0.00    -0.204 F 
ENDBRANCH  37  39
ENDBRANCH  34  37
ENDBRANCH  33  34
ENDBRANCH  32  33
ENDBRANCH  31  32
ENDBRANCH  30  31
ENDBRANCH  29  30
ENDBRANCH  28  29
ENDBRANCH  27  28
ENDBRANCH   4  27
BRANCH   6  43
HETATM   43  O4  UNL     1      69.755  20.924  27.896  1.00  0.00    -0.390 OA
ATOM     44  H4  UNL     1      69.982  20.123  27.439  1.00  0.00     0.210 HD
ENDBRANCH   6  43
BRANCH   5  45
HETATM   45  O3  UNL     1      69.208  22.117  30.213  1.00  0.00    -0.390 OA
ATOM     46  H3  UNL     1      68.958  22.553  29.407  1.00  0.00     0.210 HD
ENDBRANCH   5  45
TORSDOF 19
ENDMDL
MODEL 3
REMARK VINA RESULT: -7.246666130      3.592      5.038
REMARK  19 active torsions:
REMARK  status: ('A' for Active; 'I' for Inactive)
REMARK    1  A    between atoms: C3_6  and  O1_7 
REMARK    2  A    between atoms: O1_7  and  C4_8 
REMARK    3  A    between atoms: C4_8  and  C5_9 
REMARK    4  A    between atoms: C8_12  and  O2_13 
REMARK    5  A    between atoms: O2_13  and  C9_14 
REMARK    6  A    between atoms: C9_14  and  C10_15 
REMARK    7  A    between atoms: C10_15  and  C11_16 
REMARK    8  A    between atoms: C11_16  and  C12_17 
REMARK    9  A    between atoms: C12_17  and  C13_18 
REMARK   10  A    between atoms: C13_18  and  C14_19 
REMARK   11  A    between atoms: C14_19  and  N2_20 
REMARK   12  A    between atoms: N2_20  and  C15_23 
REMARK   13  A    between atoms: C15_23  and  C17_25 
REMARK   14  A    between atoms: C19_29  and  O3_30 
REMARK   15  A    between atoms: C20_32  and  O4_33 
REMARK   16  A    between atoms: C21_35  and  O5_36 
REMARK   17  A    between atoms: C22_38  and  O6_39 
REMARK   18  A    between atoms: C23_41  and  O7_42 
REMARK   19  A    between atoms: C24_44  and  O8_45 
ROOT
HETATM    1  C5  UNL     1      73.164  21.419  29.200  1.00  0.00     0.047 C 
HETATM    2  C6  UNL     1      72.901  21.980  30.539  1.00  0.00     0.022 C 
HETATM    3  C7  UNL     1      73.635  21.152  31.594  1.00  0.00     0.013 C 
HETATM    4  C8  UNL     1      71.485  22.228  30.938  1.00  0.00     0.157 C 
HETATM    5  C19 UNL     1      70.449  21.522  30.157  1.00  0.00     0.178 C 
HETATM    6  C20 UNL     1      70.815  21.421  28.670  1.00  0.00     0.178 C 
HETATM    7  C21 UNL     1      72.057  20.560  28.646  1.00  0.00     0.156 C 
ENDROOT
BRANCH   1   8
HETATM    8  C4  UNL     1      73.562  22.499  28.183  1.00  0.00     0.178 C 
BRANCH   8   9
HETATM    9  O1  UNL     1      74.460  21.935  27.316  1.00  0.00    -0.357 OA
BRANCH   9  10
HETATM   10  C3  UNL     1      75.544  22.715  26.996  1.00  0.00     0.353 C 
HETATM   11  N1  UNL     1      75.010  24.011  26.581  1.00  0.00    -0.040 N 
HETATM   12  C2  UNL     1      76.097  24.930  26.283  1.00  0.00     0.216 C 
ATOM     13  H12 UNL     1      74.364  24.395  27.270  1.00  0.00     0.280 HD
ATOM     14  H11 UNL     1      74.361  23.923  25.800  1.00  0.00     0.280 HD
HETATM   15  C1  UNL     1      75.491  26.234  25.836  1.00  0.00     0.043 C 
HETATM   16  C24 UNL     1      76.971  25.167  27.469  1.00  0.00     0.179 C 
HETATM   17  C23 UNL     1      77.474  23.913  28.109  1.00  0.00     0.181 C 
HETATM   18  C22 UNL     1      76.375  22.916  28.240  1.00  0.00     0.205 C 
BRANCH  16  19
HETATM   19  O8  UNL     1      76.313  25.944  28.441  1.00  0.00    -0.391 OA
ATOM     20  H8  UNL     1      76.933  26.354  29.033  1.00  0.00     0.210 HD
ENDBRANCH  16  19
BRANCH  17  21
HETATM   21  O7  UNL     1      78.608  23.390  27.487  1.00  0.00    -0.390 OA
ATOM     22  H7  UNL     1      79.417  23.733  27.848  1.00  0.00     0.210 HD
ENDBRANCH  17  21
BRANCH  18  23
HETATM   23  O6  UNL     1      76.859  21.694  28.716  1.00  0.00    -0.388 OA
ATOM     24  H6  UNL     1      77.778  21.762  28.944  1.00  0.00     0.210 HD
ENDBRANCH  18  23
ENDBRANCH   9  10
ENDBRANCH   8   9
ENDBRANCH   1   8
BRANCH   7  25
HETATM   25  O5  UNL     1      72.372  20.035  27.430  1.00  0.00    -0.392 OA
ATOM     26  H5  UNL     1      72.248  19.094  27.402  1.00  0.00     0.210 HD
ENDBRANCH   7  25
BRANCH   4  27
HETATM   27  O2  UNL     1      71.189  23.589  31.029  1.00  0.00    -0.383 OA
BRANCH  27  28
HETATM   28  C9  UNL     1      72.160  24.345  31.627  1.00  0.00     0.168 C 
BRANCH  28  29
HETATM   29  C10 UNL     1      72.230  24.300  33.115  1.00  0.00     0.026 C 
BRANCH  29  30
HETATM   30  C11 UNL     1      73.143  25.441  33.572  1.00  0.00     0.002 C 
BRANCH  30  31
HETATM   31  C12 UNL     1      74.091  25.015  34.665  1.00  0.00     0.002 C 
BRANCH  31  32
HETATM   32  C13 UNL     1      74.006  23.558  34.979  1.00  0.00     0.027 C 
BRANCH  32  33
HETATM   33  C14 UNL     1      75.302  23.102  35.623  1.00  0.00     0.233 C 
BRANCH  33  34
HETATM   34  N2  UNL     1      75.458  21.676  35.574  1.00  0.00    -0.066 N 
ATOM     35  H22 UNL     1      75.121  21.304  34.686  1.00  0.00     0.277 HD
ATOM     36  H21 UNL     1      76.443  21.420  35.499  1.00  0.00     0.277 HD
BRANCH  34  37
HETATM   37  C15 UNL     1      74.833  21.001  36.687  1.00  0.00     0.253 C 
HETATM   38  C16 UNL     1      75.820  20.275  37.547  1.00  0.00     0.046 C 
BRANCH  37  39
HETATM   39  C17 UNL     1      73.808  20.020  36.164  1.00  0.00     0.267 C 
HETATM   40  C18 UNL     1      72.498  20.166  36.937  1.00  0.00     0.092 C 
HETATM   41  F1  UNL     1      73.503  20.289  34.827  1.00  0.00    -0.204 F 
HETATM   42  F2  UNL     1      74.261  18.721  36.229  1.00  0.00    -0.204 F 
ENDBRANCH  37  39
ENDBRANCH  34  37
ENDBRANCH  33  34
ENDBRANCH  32  33
ENDBRANCH  31  32
ENDBRANCH  30  31
ENDBRANCH  29  30
ENDBRANCH  28  29
ENDBRANCH  27  28
ENDBRANCH   4  27
BRANCH   6  43
HETATM   43  O4  UNL     1      69.786  20.925  27.913  1.00  0.00    -0.390 OA
ATOM     44  H4  UNL     1      69.265  21.614  27.517  1.00  0.00     0.210 HD
ENDBRANCH   6  43
BRANCH   5  45
HETATM   45  O3  UNL     1      69.217  22.120  30.224  1.00  0.00    -0.390 OA
ATOM     46  H3  UNL     1      69.260  23.069  30.234  1.00  0.00     0.210 HD
ENDBRANCH   5  45
TORSDOF 19
ENDMDL
MODEL 4
REMARK VINA RESULT: -7.239427510      3.773      4.873
REMARK  19 active torsions:
REMARK  status: ('A' for Active; 'I' for Inactive)
REMARK    1  A    between atoms: C3_6  and  O1_7 
REMARK    2  A    between atoms: O1_7  and  C4_8 
REMARK    3  A    between atoms: C4_8  and  C5_9 
REMARK    4  A    between atoms: C8_12  and  O2_13 
REMARK    5  A    between atoms: O2_13  and  C9_14 
REMARK    6  A    between atoms: C9_14  and  C10_15 
REMARK    7  A    between atoms: C10_15  and  C11_16 
REMARK    8  A    between atoms: C11_16  and  C12_17 
REMARK    9  A    between atoms: C12_17  and  C13_18 
REMARK   10  A    between atoms: C13_18  and  C14_19 
REMARK   11  A    between atoms: C14_19  and  N2_20 
REMARK   12  A    between atoms: N2_20  and  C15_23 
REMARK   13  A    between atoms: C15_23  and  C17_25 
REMARK   14  A    between atoms: C19_29  and  O3_30 
REMARK   15  A    between atoms: C20_32  and  O4_33 
REMARK   16  A    between atoms: C21_35  and  O5_36 
REMARK   17  A    between atoms: C22_38  and  O6_39 
REMARK   18  A    between atoms: C23_41  and  O7_42 
REMARK   19  A    between atoms: C24_44  and  O8_45 
ROOT
HETATM    1  C5  UNL     1      73.188  21.369  29.189  1.00  0.00     0.047 C 
HETATM    2  C6  UNL     1      72.908  21.942  30.520  1.00  0.00     0.022 C 
HETATM    3  C7  UNL     1      73.604  21.106  31.594  1.00  0.00     0.013 C 
HETATM    4  C8  UNL     1      71.489  22.218  30.889  1.00  0.00     0.157 C 
HETATM    5  C19 UNL     1      70.456  21.528  30.090  1.00  0.00     0.178 C 
HETATM    6  C20 UNL     1      70.851  21.412  28.611  1.00  0.00     0.178 C 
HETATM    7  C21 UNL     1      72.076  20.527  28.618  1.00  0.00     0.156 C 
ENDROOT
BRANCH   1   8
HETATM    8  C4  UNL     1      73.627  22.435  28.175  1.00  0.00     0.178 C 
BRANCH   8   9
HETATM    9  O1  UNL     1      74.589  21.873  27.379  1.00  0.00    -0.357 OA
BRANCH   9  10
HETATM   10  C3  UNL     1      75.615  22.708  27.009  1.00  0.00     0.353 C 
HETATM   11  N1  UNL     1      74.996  23.981  26.645  1.00  0.00    -0.040 N 
HETATM   12  C2  UNL     1      76.020  24.955  26.299  1.00  0.00     0.216 C 
ATOM     13  H12 UNL     1      74.374  24.326  27.376  1.00  0.00     0.280 HD
ATOM     14  H11 UNL     1      74.308  23.872  25.901  1.00  0.00     0.280 HD
HETATM   15  C1  UNL     1      75.328  26.234  25.908  1.00  0.00     0.043 C 
HETATM   16  C24 UNL     1      76.949  25.220  27.436  1.00  0.00     0.179 C 
HETATM   17  C23 UNL     1      77.547  23.984  28.027  1.00  0.00     0.181 C 
HETATM   18  C22 UNL     1      76.505  22.933  28.206  1.00  0.00     0.205 C 
BRANCH  16  19
HETATM   19  O8  UNL     1      76.312  25.952  28.456  1.00  0.00    -0.391 OA
ATOM     20  H8  UNL     1      75.932  25.375  29.109  1.00  0.00     0.210 HD
ENDBRANCH  16  19
BRANCH  17  21
HETATM   21  O7  UNL     1      78.666  23.524  27.333  1.00  0.00    -0.390 OA
ATOM     22  H7  UNL     1      79.246  24.226  27.063  1.00  0.00     0.210 HD
ENDBRANCH  17  21
BRANCH  18  23
HETATM   23  O6  UNL     1      77.074  21.730  28.635  1.00  0.00    -0.388 OA
ATOM     24  H6  UNL     1      76.863  21.564  29.546  1.00  0.00     0.210 HD
ENDBRANCH  18  23
ENDBRANCH   9  10
ENDBRANCH   8   9
ENDBRANCH   1   8
BRANCH   7  25
HETATM   25  O5  UNL     1      72.407  19.990  27.410  1.00  0.00    -0.392 OA
ATOM     26  H5  UNL     1      72.594  19.061  27.470  1.00  0.00     0.210 HD
ENDBRANCH   7  25
BRANCH   4  27
HETATM   27  O2  UNL     1      71.216  23.586  30.966  1.00  0.00    -0.383 OA
BRANCH  27  28
HETATM   28  C9  UNL     1      72.192  24.328  31.574  1.00  0.00     0.168 C 
BRANCH  28  29
HETATM   29  C10 UNL     1      72.153  24.405  33.062  1.00  0.00     0.026 C 
BRANCH  29  30
HETATM   30  C11 UNL     1      73.520  24.904  33.538  1.00  0.00     0.002 C 
BRANCH  30  31
HETATM   31  C12 UNL     1      74.060  24.089  34.686  1.00  0.00     0.002 C 
BRANCH  31  32
HETATM   32  C13 UNL     1      73.174  22.947  35.062  1.00  0.00     0.027 C 
BRANCH  32  33
HETATM   33  C14 UNL     1      74.025  21.771  35.505  1.00  0.00     0.233 C 
BRANCH  33  34
HETATM   34  N2  UNL     1      75.430  22.047  35.390  1.00  0.00    -0.066 N 
ATOM     35  H22 UNL     1      75.825  21.585  34.571  1.00  0.00     0.277 HD
ATOM     36  H21 UNL     1      75.589  23.020  35.126  1.00  0.00     0.277 HD
BRANCH  34  37
HETATM   37  C15 UNL     1      76.171  21.708  36.581  1.00  0.00     0.253 C 
HETATM   38  C16 UNL     1      75.435  22.058  37.837  1.00  0.00     0.046 C 
BRANCH  37  39
HETATM   39  C17 UNL     1      77.500  22.428  36.564  1.00  0.00     0.267 C 
HETATM   40  C18 UNL     1      77.283  23.931  36.389  1.00  0.00     0.092 C 
HETATM   41  F1  UNL     1      78.165  22.270  37.784  1.00  0.00    -0.204 F 
HETATM   42  F2  UNL     1      78.332  21.946  35.577  1.00  0.00    -0.204 F 
ENDBRANCH  37  39
ENDBRANCH  34  37
ENDBRANCH  33  34
ENDBRANCH  32  33
ENDBRANCH  31  32
ENDBRANCH  30  31
ENDBRANCH  29  30
ENDBRANCH  28  29
ENDBRANCH  27  28
ENDBRANCH   4  27
BRANCH   6  43
HETATM   43  O4  UNL     1      69.828  20.932  27.835  1.00  0.00    -0.390 OA
ATOM     44  H4  UNL     1      69.097  21.536  27.788  1.00  0.00     0.210 HD
ENDBRANCH   6  43
BRANCH   5  45
HETATM   45  O3  UNL     1      69.234  22.149  30.128  1.00  0.00    -0.390 OA
ATOM     46  H3  UNL     1      68.701  21.885  30.868  1.00  0.00     0.210 HD
ENDBRANCH   5  45
TORSDOF 19
ENDMDL
MODEL 5
REMARK VINA RESULT: -7.230437700      2.815      3.994
REMARK  19 active torsions:
REMARK  status: ('A' for Active; 'I' for Inactive)
REMARK    1  A    between atoms: C3_6  and  O1_7 
REMARK    2  A    between atoms: O1_7  and  C4_8 
REMARK    3  A    between atoms: C4_8  and  C5_9 
REMARK    4  A    between atoms: C8_12  and  O2_13 
REMARK    5  A    between atoms: O2_13  and  C9_14 
REMARK    6  A    between atoms: C9_14  and  C10_15 
REMARK    7  A    between atoms: C10_15  and  C11_16 
REMARK    8  A    between atoms: C11_16  and  C12_17 
REMARK    9  A    between atoms: C12_17  and  C13_18 
REMARK   10  A    between atoms: C13_18  and  C14_19 
REMARK   11  A    between atoms: C14_19  and  N2_20 
REMARK   12  A    between atoms: N2_20  and  C15_23 
REMARK   13  A    between atoms: C15_23  and  C17_25 
REMARK   14  A    between atoms: C19_29  and  O3_30 
REMARK   15  A    between atoms: C20_32  and  O4_33 
REMARK   16  A    between atoms: C21_35  and  O5_36 
REMARK   17  A    between atoms: C22_38  and  O6_39 
REMARK   18  A    between atoms: C23_41  and  O7_42 
REMARK   19  A    between atoms: C24_44  and  O8_45 
ROOT
HETATM    1  C5  UNL     1      73.164  21.400  29.199  1.00  0.00     0.047 C 
HETATM    2  C6  UNL     1      72.901  21.946  30.544  1.00  0.00     0.022 C 
HETATM    3  C7  UNL     1      73.621  21.097  31.592  1.00  0.00     0.013 C 
HETATM    4  C8  UNL     1      71.486  22.205  30.940  1.00  0.00     0.157 C 
HETATM    5  C19 UNL     1      70.447  21.520  30.146  1.00  0.00     0.178 C 
HETATM    6  C20 UNL     1      70.818  21.434  28.659  1.00  0.00     0.178 C 
HETATM    7  C21 UNL     1      72.050  20.559  28.630  1.00  0.00     0.156 C 
ENDROOT
BRANCH   1   8
HETATM    8  C4  UNL     1      73.579  22.487  28.198  1.00  0.00     0.178 C 
BRANCH   8   9
HETATM    9  O1  UNL     1      74.475  21.925  27.328  1.00  0.00    -0.357 OA
BRANCH   9  10
HETATM   10  C3  UNL     1      75.546  22.715  26.987  1.00  0.00     0.353 C 
HETATM   11  N1  UNL     1      74.991  24.011  26.599  1.00  0.00    -0.040 N 
HETATM   12  C2  UNL     1      76.064  24.940  26.280  1.00  0.00     0.216 C 
ATOM     13  H12 UNL     1      74.362  24.384  27.308  1.00  0.00     0.280 HD
ATOM     14  H11 UNL     1      74.322  23.925  25.834  1.00  0.00     0.280 HD
HETATM   15  C1  UNL     1      75.437  26.244  25.862  1.00  0.00     0.043 C 
HETATM   16  C24 UNL     1      76.968  25.173  27.444  1.00  0.00     0.179 C 
HETATM   17  C23 UNL     1      77.496  23.917  28.058  1.00  0.00     0.181 C 
HETATM   18  C22 UNL     1      76.408  22.911  28.209  1.00  0.00     0.205 C 
BRANCH  16  19
HETATM   19  O8  UNL     1      76.331  25.936  28.441  1.00  0.00    -0.391 OA
ATOM     20  H8  UNL     1      76.935  26.168  29.137  1.00  0.00     0.210 HD
ENDBRANCH  16  19
BRANCH  17  21
HETATM   21  O7  UNL     1      78.616  23.408  27.401  1.00  0.00    -0.390 OA
ATOM     22  H7  UNL     1      79.427  23.582  27.865  1.00  0.00     0.210 HD
ENDBRANCH  17  21
BRANCH  18  23
HETATM   23  O6  UNL     1      76.913  21.688  28.661  1.00  0.00    -0.388 OA
ATOM     24  H6  UNL     1      76.270  20.997  28.552  1.00  0.00     0.210 HD
ENDBRANCH  18  23
ENDBRANCH   9  10
ENDBRANCH   8   9
ENDBRANCH   1   8
BRANCH   7  25
HETATM   25  O5  UNL     1      72.365  20.046  27.408  1.00  0.00    -0.392 OA
ATOM     26  H5  UNL     1      71.594  19.882  26.878  1.00  0.00     0.210 HD
ENDBRANCH   7  25
BRANCH   4  27
HETATM   27  O2  UNL     1      71.205  23.568  31.047  1.00  0.00    -0.383 OA
BRANCH  27  28
HETATM   28  C9  UNL     1      72.200  24.313  31.620  1.00  0.00     0.168 C 
BRANCH  28  29
HETATM   29  C10 UNL     1      72.311  24.261  33.105  1.00  0.00     0.026 C 
BRANCH  29  30
HETATM   30  C11 UNL     1      72.405  25.702  33.614  1.00  0.00     0.002 C 
BRANCH  30  31
HETATM   31  C12 UNL     1      73.821  26.105  33.939  1.00  0.00     0.002 C 
BRANCH  31  32
HETATM   32  C13 UNL     1      74.071  26.238  35.406  1.00  0.00     0.027 C 
BRANCH  32  33
HETATM   33  C14 UNL     1      75.064  25.180  35.849  1.00  0.00     0.233 C 
BRANCH  33  34
HETATM   34  N2  UNL     1      74.493  24.265  36.796  1.00  0.00    -0.066 N 
ATOM     35  H22 UNL     1      74.934  24.365  37.710  1.00  0.00     0.277 HD
ATOM     36  H21 UNL     1      73.541  24.539  37.039  1.00  0.00     0.277 HD
BRANCH  34  37
HETATM   37  C15 UNL     1      74.535  22.892  36.351  1.00  0.00     0.253 C 
HETATM   38  C16 UNL     1      75.248  22.732  35.044  1.00  0.00     0.046 C 
BRANCH  37  39
HETATM   39  C17 UNL     1      73.124  22.366  36.218  1.00  0.00     0.267 C 
HETATM   40  C18 UNL     1      72.784  21.463  37.404  1.00  0.00     0.092 C 
HETATM   41  F1  UNL     1      72.200  23.415  36.250  1.00  0.00    -0.204 F 
HETATM   42  F2  UNL     1      72.937  21.691  35.032  1.00  0.00    -0.204 F 
ENDBRANCH  37  39
ENDBRANCH  34  37
ENDBRANCH  33  34
ENDBRANCH  32  33
ENDBRANCH  31  32
ENDBRANCH  30  31
ENDBRANCH  29  30
ENDBRANCH  28  29
ENDBRANCH  27  28
ENDBRANCH   4  27
BRANCH   6  43
HETATM   43  O4  UNL     1      69.787  20.960  27.891  1.00  0.00    -0.390 OA
ATOM     44  H4  UNL     1      70.046  20.218  27.357  1.00  0.00     0.210 HD
ENDBRANCH   6  43
BRANCH   5  45
HETATM   45  O3  UNL     1      69.221  22.131  30.214  1.00  0.00    -0.390 OA
ATOM     46  H3  UNL     1      68.512  21.589  29.889  1.00  0.00     0.210 HD
ENDBRANCH   5  45
TORSDOF 19
ENDMDL
