MODEL 1
REMARK VINA RESULT: -7.857978481      0.000      0.000
REMARK  14 active torsions:
REMARK  status: ('A' for Active; 'I' for Inactive)
REMARK       I    between atoms: C1_4  and  N2_5 
REMARK       I    between atoms: C1_4  and  N5_18 
REMARK    1  A    between atoms: N2_5  and  C2_7 
REMARK    2  A    between atoms: N5_18  and  C6_20 
REMARK    3  A    between atoms: C6_20  and  C7_21 
REMARK    4  A    between atoms: C7_21  and  O1_22 
REMARK    5  A    between atoms: O1_22  and  C8_23 
REMARK    6  A    between atoms: C8_23  and  C9_24 
REMARK    7  A    between atoms: C9_24  and  O2_25 
REMARK    8  A    between atoms: O2_25  and  C10_26 
REMARK    9  A    between atoms: C10_26  and  C11_27 
REMARK   10  A    between atoms: C11_27  and  O3_28 
REMARK   11  A    between atoms: O3_28  and  C12_29 
REMARK   12  A    between atoms: C12_29  and  C13_30 
REMARK   13  A    between atoms: C13_30  and  C14_31 
REMARK   14  A    between atoms: C16_36  and  N7_37 
ROOT
HETATM    1  O1  UNL     1      72.800  23.219  30.840  1.00  0.00    -0.387 OA
ENDROOT
BRANCH   1   2
HETATM    2  C7  UNL     1      71.412  23.381  30.846  1.00  0.00     0.188 C 
BRANCH   2   3
HETATM    3  C6  UNL     1      70.796  22.269  30.064  1.00  0.00     0.164 C 
BRANCH   3   4
HETATM    4  N5  UNL     1      71.804  21.527  29.352  1.00  0.00    -0.224 N 
HETATM    5  C1  UNL     1      71.544  20.579  28.336  1.00  0.00     0.686 C 
HETATM    6  N1  UNL     1      72.555  19.884  27.882  1.00  0.00    -0.234 N 
HETATM    7  N2  UNL     1      70.247  20.391  27.820  1.00  0.00    -0.023 N 
ATOM      8  H12 UNL     1      72.366  19.201  27.149  1.00  0.00     0.174 HD
ATOM      9  H11 UNL     1      73.494  20.021  28.256  1.00  0.00     0.174 HD
ATOM     10  H2  UNL     1      69.845  21.058  27.162  1.00  0.00     0.203 HD
ATOM     11  H5  UNL     1      72.779  21.698  29.599  1.00  0.00     0.177 HD
BRANCH   7  12
HETATM   12  C2  UNL     1      69.568  19.337  28.208  1.00  0.00     0.699 A 
HETATM   13  N3  UNL     1      69.503  18.273  27.360  1.00  0.00    -0.179 N 
HETATM   14  C3  UNL     1      68.825  17.183  27.717  1.00  0.00     0.144 A 
ATOM     15  H3  UNL     1      69.972  18.311  26.455  1.00  0.00     0.185 HD
HETATM   16 CL1  UNL     1      68.706  15.774  26.657  1.00  0.00    -0.062 Cl
HETATM   17  C4  UNL     1      68.174  17.078  28.928  1.00  0.00     0.112 A 
HETATM   18 CL2  UNL     1      67.280  15.665  29.424  1.00  0.00    -0.077 Cl
HETATM   19  C5  UNL     1      68.253  18.167  29.770  1.00  0.00     0.144 A 
HETATM   20 CL3  UNL     1      67.457  18.146  31.352  1.00  0.00    -0.062 Cl
HETATM   21  N4  UNL     1      68.943  19.255  29.386  1.00  0.00    -0.179 N 
ATOM     22  H4  UNL     1      68.990  20.052  30.021  1.00  0.00     0.185 HD
ENDBRANCH   7  12
ENDBRANCH   3   4
ENDBRANCH   2   3
ENDBRANCH   1   2
BRANCH   1  23
HETATM   23  C8  UNL     1      73.113  22.882  32.187  1.00  0.00     0.193 C 
BRANCH  23  24
HETATM   24  C9  UNL     1      74.066  21.741  32.138  1.00  0.00     0.193 C 
BRANCH  24  25
HETATM   25  O2  UNL     1      74.242  21.189  30.887  1.00  0.00    -0.387 OA
BRANCH  25  26
HETATM   26  C10 UNL     1      75.435  21.577  30.352  1.00  0.00     0.193 C 
BRANCH  26  27
HETATM   27  C11 UNL     1      75.525  21.569  28.858  1.00  0.00     0.193 C 
BRANCH  27  28
HETATM   28  O3  UNL     1      74.583  22.234  28.165  1.00  0.00    -0.389 OA
BRANCH  28  29
HETATM   29  C12 UNL     1      74.773  23.475  27.702  1.00  0.00     0.172 C 
BRANCH  29  30
HETATM   30  C13 UNL     1      75.942  23.561  26.759  1.00  0.00     0.073 C 
BRANCH  30  31
HETATM   31  C14 UNL     1      76.871  24.643  27.140  1.00  0.00     0.047 A 
HETATM   32  C15 UNL     1      76.664  25.957  26.844  1.00  0.00     0.109 A 
HETATM   33  S1  UNL     1      75.272  26.458  25.869  1.00  0.00    -0.032 SA
HETATM   34  N6  UNL     1      77.558  26.881  27.265  1.00  0.00    -0.184 N 
HETATM   35  C16 UNL     1      78.633  26.497  27.967  1.00  0.00     0.679 A 
ATOM     36  H6  UNL     1      77.413  27.867  27.049  1.00  0.00     0.185 HD
HETATM   37  N8  UNL     1      78.857  25.210  28.269  1.00  0.00    -0.156 N 
HETATM   38  C17 UNL     1      78.003  24.286  27.873  1.00  0.00     0.268 A 
ATOM     39  H8  UNL     1      79.685  24.946  28.803  1.00  0.00     0.187 HD
HETATM   40  O4  UNL     1      78.200  23.084  28.148  1.00  0.00    -0.267 OA
BRANCH  35  41
HETATM   41  N7  UNL     1      79.486  27.374  28.367  1.00  0.00    -0.234 N 
ATOM     42  H72 UNL     1      79.155  28.136  28.959  1.00  0.00     0.174 HD
ATOM     43  H71 UNL     1      80.465  27.294  28.093  1.00  0.00     0.174 HD
ENDBRANCH  35  41
ENDBRANCH  30  31
ENDBRANCH  29  30
ENDBRANCH  28  29
ENDBRANCH  27  28
ENDBRANCH  26  27
ENDBRANCH  25  26
ENDBRANCH  24  25
ENDBRANCH  23  24
ENDBRANCH   1  23
TORSDOF 14
ENDMDL
MODEL 2
REMARK VINA RESULT: -7.416214259      1.508      2.377
REMARK  14 active torsions:
REMARK  status: ('A' for Active; 'I' for Inactive)
REMARK       I    between atoms: C1_4  and  N2_5 
REMARK       I    between atoms: C1_4  and  N5_18 
REMARK    1  A    between atoms: N2_5  and  C2_7 
REMARK    2  A    between atoms: N5_18  and  C6_20 
REMARK    3  A    between atoms: C6_20  and  C7_21 
REMARK    4  A    between atoms: C7_21  and  O1_22 
REMARK    5  A    between atoms: O1_22  and  C8_23 
REMARK    6  A    between atoms: C8_23  and  C9_24 
REMARK    7  A    between atoms: C9_24  and  O2_25 
REMARK    8  A    between atoms: O2_25  and  C10_26 
REMARK    9  A    between atoms: C10_26  and  C11_27 
REMARK   10  A    between atoms: C11_27  and  O3_28 
REMARK   11  A    between atoms: O3_28  and  C12_29 
REMARK   12  A    between atoms: C12_29  and  C13_30 
REMARK   13  A    between atoms: C13_30  and  C14_31 
REMARK   14  A    between atoms: C16_36  and  N7_37 
ROOT
HETATM    1  O1  UNL     1      71.185  23.189  31.355  1.00  0.00    -0.387 OA
ENDROOT
BRANCH   1   2
HETATM    2  C7  UNL     1      71.138  22.822  30.007  1.00  0.00     0.188 C 
BRANCH   2   3
HETATM    3  C6  UNL     1      70.693  21.401  29.912  1.00  0.00     0.164 C 
BRANCH   3   4
HETATM    4  N5  UNL     1      71.595  20.639  29.086  1.00  0.00    -0.224 N 
HETATM    5  C1  UNL     1      71.198  19.677  28.130  1.00  0.00     0.686 C 
HETATM    6  N1  UNL     1      72.136  18.967  27.560  1.00  0.00    -0.234 N 
HETATM    7  N2  UNL     1      69.843  19.490  27.793  1.00  0.00    -0.023 N 
ATOM      8  H12 UNL     1      71.849  18.272  26.870  1.00  0.00     0.174 HD
ATOM      9  H11 UNL     1      73.118  19.102  27.804  1.00  0.00     0.174 HD
ATOM     10  H2  UNL     1      69.362  20.149  27.182  1.00  0.00     0.203 HD
ATOM     11  H5  UNL     1      72.595  20.807  29.200  1.00  0.00     0.177 HD
BRANCH   7  12
HETATM   12  C2  UNL     1      69.215  18.448  28.285  1.00  0.00     0.699 A 
HETATM   13  N3  UNL     1      68.547  18.604  29.461  1.00  0.00    -0.179 N 
HETATM   14  C3  UNL     1      67.894  17.570  29.993  1.00  0.00     0.144 A 
ATOM     15  H3  UNL     1      68.546  19.508  29.934  1.00  0.00     0.185 HD
HETATM   16 CL1  UNL     1      67.013  17.714  31.518  1.00  0.00    -0.062 Cl
HETATM   17  C4  UNL     1      67.862  16.328  29.397  1.00  0.00     0.112 A 
HETATM   18 CL2  UNL     1      67.017  14.958  30.068  1.00  0.00    -0.077 Cl
HETATM   19  C5  UNL     1      68.545  16.194  28.207  1.00  0.00     0.144 A 
HETATM   20 CL3  UNL     1      68.572  14.645  27.349  1.00  0.00    -0.062 Cl
HETATM   21  N4  UNL     1      69.196  17.251  27.692  1.00  0.00    -0.179 N 
ATOM     22  H4  UNL     1      69.696  17.134  26.811  1.00  0.00     0.185 HD
ENDBRANCH   7  12
ENDBRANCH   3   4
ENDBRANCH   2   3
ENDBRANCH   1   2
BRANCH   1  23
HETATM   23  C8  UNL     1      72.536  23.585  31.557  1.00  0.00     0.193 C 
BRANCH  23  24
HETATM   24  C9  UNL     1      73.082  22.724  32.640  1.00  0.00     0.193 C 
BRANCH  24  25
HETATM   25  O2  UNL     1      74.276  22.103  32.338  1.00  0.00    -0.387 OA
BRANCH  25  26
HETATM   26  C10 UNL     1      74.156  21.353  31.205  1.00  0.00     0.193 C 
BRANCH  26  27
HETATM   27  C11 UNL     1      75.027  21.749  30.054  1.00  0.00     0.193 C 
BRANCH  27  28
HETATM   28  O3  UNL     1      74.448  21.915  28.851  1.00  0.00    -0.389 OA
BRANCH  28  29
HETATM   29  C12 UNL     1      74.331  23.114  28.269  1.00  0.00     0.172 C 
BRANCH  29  30
HETATM   30  C13 UNL     1      75.196  23.243  27.045  1.00  0.00     0.073 C 
BRANCH  30  31
HETATM   31  C14 UNL     1      76.264  24.244  27.235  1.00  0.00     0.047 A 
HETATM   32  C15 UNL     1      77.524  23.937  27.650  1.00  0.00     0.109 A 
HETATM   33  S1  UNL     1      77.952  22.276  28.094  1.00  0.00    -0.032 SA
HETATM   34  N6  UNL     1      78.445  24.922  27.763  1.00  0.00    -0.184 N 
HETATM   35  C16 UNL     1      78.109  26.186  27.467  1.00  0.00     0.679 A 
ATOM     36  H6  UNL     1      79.392  24.704  28.072  1.00  0.00     0.185 HD
HETATM   37  N8  UNL     1      76.874  26.510  27.058  1.00  0.00    -0.156 N 
HETATM   38  C17 UNL     1      75.955  25.572  26.937  1.00  0.00     0.268 A 
ATOM     39  H8  UNL     1      76.646  27.481  26.841  1.00  0.00     0.187 HD
HETATM   40  O4  UNL     1      74.802  25.862  26.557  1.00  0.00    -0.267 OA
BRANCH  35  41
HETATM   41  N7  UNL     1      78.982  27.125  27.576  1.00  0.00    -0.234 N 
ATOM     42  H72 UNL     1      78.987  27.683  28.430  1.00  0.00     0.174 HD
ATOM     43  H71 UNL     1      79.646  27.293  26.821  1.00  0.00     0.174 HD
ENDBRANCH  35  41
ENDBRANCH  30  31
ENDBRANCH  29  30
ENDBRANCH  28  29
ENDBRANCH  27  28
ENDBRANCH  26  27
ENDBRANCH  25  26
ENDBRANCH  24  25
ENDBRANCH  23  24
ENDBRANCH   1  23
TORSDOF 14
ENDMDL
MODEL 3
REMARK VINA RESULT: -7.341235295      5.657     10.532
REMARK  14 active torsions:
REMARK  status: ('A' for Active; 'I' for Inactive)
REMARK       I    between atoms: C1_4  and  N2_5 
REMARK       I    between atoms: C1_4  and  N5_18 
REMARK    1  A    between atoms: N2_5  and  C2_7 
REMARK    2  A    between atoms: N5_18  and  C6_20 
REMARK    3  A    between atoms: C6_20  and  C7_21 
REMARK    4  A    between atoms: C7_21  and  O1_22 
REMARK    5  A    between atoms: O1_22  and  C8_23 
REMARK    6  A    between atoms: C8_23  and  C9_24 
REMARK    7  A    between atoms: C9_24  and  O2_25 
REMARK    8  A    between atoms: O2_25  and  C10_26 
REMARK    9  A    between atoms: C10_26  and  C11_27 
REMARK   10  A    between atoms: C11_27  and  O3_28 
REMARK   11  A    between atoms: O3_28  and  C12_29 
REMARK   12  A    between atoms: C12_29  and  C13_30 
REMARK   13  A    between atoms: C13_30  and  C14_31 
REMARK   14  A    between atoms: C16_36  and  N7_37 
ROOT
HETATM    1  O1  UNL     1      69.289  19.284  29.264  1.00  0.00    -0.387 OA
ENDROOT
BRANCH   1   2
HETATM    2  C7  UNL     1      69.788  20.504  28.801  1.00  0.00     0.188 C 
BRANCH   2   3
HETATM    3  C6  UNL     1      71.229  20.608  29.178  1.00  0.00     0.164 C 
BRANCH   3   4
HETATM    4  N5  UNL     1      71.400  21.506  30.291  1.00  0.00    -0.224 N 
HETATM    5  C1  UNL     1      71.985  22.790  30.210  1.00  0.00     0.686 C 
HETATM    6  N1  UNL     1      72.200  23.429  31.331  1.00  0.00    -0.234 N 
HETATM    7  N2  UNL     1      72.321  23.369  28.971  1.00  0.00    -0.023 N 
ATOM      8  H12 UNL     1      72.623  24.356  31.272  1.00  0.00     0.174 HD
ATOM      9  H11 UNL     1      71.957  23.010  32.229  1.00  0.00     0.174 HD
ATOM     10  H2  UNL     1      71.601  23.770  28.370  1.00  0.00     0.203 HD
ATOM     11  H5  UNL     1      71.074  21.193  31.205  1.00  0.00     0.177 HD
BRANCH   7  12
HETATM   12  C2  UNL     1      73.582  23.380  28.607  1.00  0.00     0.699 A 
HETATM   13  N3  UNL     1      74.094  24.543  28.118  1.00  0.00    -0.179 N 
HETATM   14  C3  UNL     1      75.371  24.596  27.740  1.00  0.00     0.144 A 
ATOM     15  H3  UNL     1      73.502  25.370  28.041  1.00  0.00     0.185 HD
HETATM   16 CL1  UNL     1      76.088  26.077  27.095  1.00  0.00    -0.062 Cl
HETATM   17  C4  UNL     1      76.215  23.509  27.823  1.00  0.00     0.112 A 
HETATM   18 CL2  UNL     1      77.889  23.547  27.337  1.00  0.00    -0.077 Cl
HETATM   19  C5  UNL     1      75.675  22.343  28.322  1.00  0.00     0.144 A 
HETATM   20 CL3  UNL     1      76.664  20.881  28.477  1.00  0.00    -0.062 Cl
HETATM   21  N4  UNL     1      74.384  22.315  28.696  1.00  0.00    -0.179 N 
ATOM     22  H4  UNL     1      74.001  21.443  29.062  1.00  0.00     0.185 HD
ENDBRANCH   7  12
ENDBRANCH   3   4
ENDBRANCH   2   3
ENDBRANCH   1   2
BRANCH   1  23
HETATM   23  C8  UNL     1      68.398  19.652  30.311  1.00  0.00     0.193 C 
BRANCH  23  24
HETATM   24  C9  UNL     1      67.916  18.390  30.934  1.00  0.00     0.193 C 
BRANCH  24  25
HETATM   25  O2  UNL     1      66.547  18.223  30.916  1.00  0.00    -0.387 OA
BRANCH  25  26
HETATM   26  C10 UNL     1      66.132  17.521  32.008  1.00  0.00     0.193 C 
BRANCH  26  27
HETATM   27  C11 UNL     1      64.880  16.718  31.843  1.00  0.00     0.193 C 
BRANCH  27  28
HETATM   28  O3  UNL     1      65.001  15.403  31.586  1.00  0.00    -0.389 OA
BRANCH  28  29
HETATM   29  C12 UNL     1      66.185  14.820  31.365  1.00  0.00     0.172 C 
BRANCH  29  30
HETATM   30  C13 UNL     1      66.285  14.235  29.983  1.00  0.00     0.073 C 
BRANCH  30  31
HETATM   31  C14 UNL     1      66.840  15.206  29.019  1.00  0.00     0.047 A 
HETATM   32  C15 UNL     1      66.076  15.981  28.200  1.00  0.00     0.109 A 
HETATM   33  S1  UNL     1      64.314  15.801  28.168  1.00  0.00    -0.032 SA
HETATM   34  N6  UNL     1      66.677  16.867  27.373  1.00  0.00    -0.184 N 
HETATM   35  C16 UNL     1      68.013  16.973  27.367  1.00  0.00     0.679 A 
ATOM     36  H6  UNL     1      66.115  17.452  26.755  1.00  0.00     0.185 HD
HETATM   37  N8  UNL     1      68.785  16.219  28.164  1.00  0.00    -0.156 N 
HETATM   38  C17 UNL     1      68.228  15.348  28.983  1.00  0.00     0.268 A 
ATOM     39  H8  UNL     1      69.799  16.320  28.137  1.00  0.00     0.187 HD
HETATM   40  O4  UNL     1      68.935  14.641  29.730  1.00  0.00    -0.267 OA
BRANCH  35  41
HETATM   41  N7  UNL     1      68.588  17.813  26.579  1.00  0.00    -0.234 N 
ATOM     42  H72 UNL     1      69.341  18.390  26.954  1.00  0.00     0.174 HD
ATOM     43  H71 UNL     1      68.289  17.886  25.608  1.00  0.00     0.174 HD
ENDBRANCH  35  41
ENDBRANCH  30  31
ENDBRANCH  29  30
ENDBRANCH  28  29
ENDBRANCH  27  28
ENDBRANCH  26  27
ENDBRANCH  25  26
ENDBRANCH  24  25
ENDBRANCH  23  24
ENDBRANCH   1  23
TORSDOF 14
ENDMDL
MODEL 4
REMARK VINA RESULT: -7.323303998      2.616      3.826
REMARK  14 active torsions:
REMARK  status: ('A' for Active; 'I' for Inactive)
REMARK       I    between atoms: C1_4  and  N2_5 
REMARK       I    between atoms: C1_4  and  N5_18 
REMARK    1  A    between atoms: N2_5  and  C2_7 
REMARK    2  A    between atoms: N5_18  and  C6_20 
REMARK    3  A    between atoms: C6_20  and  C7_21 
REMARK    4  A    between atoms: C7_21  and  O1_22 
REMARK    5  A    between atoms: O1_22  and  C8_23 
REMARK    6  A    between atoms: C8_23  and  C9_24 
REMARK    7  A    between atoms: C9_24  and  O2_25 
REMARK    8  A    between atoms: O2_25  and  C10_26 
REMARK    9  A    between atoms: C10_26  and  C11_27 
REMARK   10  A    between atoms: C11_27  and  O3_28 
REMARK   11  A    between atoms: O3_28  and  C12_29 
REMARK   12  A    between atoms: C12_29  and  C13_30 
REMARK   13  A    between atoms: C13_30  and  C14_31 
REMARK   14  A    between atoms: C16_36  and  N7_37 
ROOT
HETATM    1  O1  UNL     1      69.208  19.906  29.515  1.00  0.00    -0.387 OA
ENDROOT
BRANCH   1   2
HETATM    2  C7  UNL     1      69.904  19.897  28.303  1.00  0.00     0.188 C 
BRANCH   2   3
HETATM    3  C6  UNL     1      70.365  18.504  28.025  1.00  0.00     0.164 C 
BRANCH   3   4
HETATM    4  N5  UNL     1      69.497  17.861  27.072  1.00  0.00    -0.224 N 
HETATM    5  C1  UNL     1      68.254  17.264  27.386  1.00  0.00     0.686 C 
HETATM    6  N1  UNL     1      67.648  16.596  26.440  1.00  0.00    -0.234 N 
HETATM    7  N2  UNL     1      67.681  17.388  28.666  1.00  0.00    -0.023 N 
ATOM      8  H12 UNL     1      66.751  16.165  26.666  1.00  0.00     0.174 HD
ATOM      9  H11 UNL     1      68.064  16.506  25.512  1.00  0.00     0.174 HD
ATOM     10  H2  UNL     1      67.223  18.253  28.952  1.00  0.00     0.203 HD
ATOM     11  H5  UNL     1      69.801  17.834  26.099  1.00  0.00     0.177 HD
BRANCH   7  12
HETATM   12  C2  UNL     1      67.750  16.364  29.483  1.00  0.00     0.699 A 
HETATM   13  N3  UNL     1      66.583  15.805  29.906  1.00  0.00    -0.179 N 
HETATM   14  C3  UNL     1      66.609  14.761  30.735  1.00  0.00     0.144 A 
ATOM     15  H3  UNL     1      65.690  16.184  29.589  1.00  0.00     0.185 HD
HETATM   16 CL1  UNL     1      65.125  13.999  31.317  1.00  0.00    -0.062 Cl
HETATM   17  C4  UNL     1      67.786  14.209  31.192  1.00  0.00     0.112 A 
HETATM   18 CL2  UNL     1      67.854  12.844  32.276  1.00  0.00    -0.077 Cl
HETATM   19  C5  UNL     1      68.956  14.790  30.752  1.00  0.00     0.144 A 
HETATM   20 CL3  UNL     1      70.529  14.165  31.273  1.00  0.00    -0.062 Cl
HETATM   21  N4  UNL     1      68.902  15.842  29.917  1.00  0.00    -0.179 N 
ATOM     22  H4  UNL     1      69.777  16.260  29.601  1.00  0.00     0.185 HD
ENDBRANCH   7  12
ENDBRANCH   3   4
ENDBRANCH   2   3
ENDBRANCH   1   2
BRANCH   1  23
HETATM   23  C8  UNL     1      69.359  21.240  29.988  1.00  0.00     0.193 C 
BRANCH  23  24
HETATM   24  C9  UNL     1      70.796  21.419  30.329  1.00  0.00     0.193 C 
BRANCH  24  25
HETATM   25  O2  UNL     1      71.193  22.731  30.483  1.00  0.00    -0.387 OA
BRANCH  25  26
HETATM   26  C10 UNL     1      72.390  22.947  29.866  1.00  0.00     0.193 C 
BRANCH  26  27
HETATM   27  C11 UNL     1      72.559  22.327  28.515  1.00  0.00     0.193 C 
BRANCH  27  28
HETATM   28  O3  UNL     1      73.659  22.643  27.807  1.00  0.00    -0.389 OA
BRANCH  28  29
HETATM   29  C12 UNL     1      73.949  23.901  27.454  1.00  0.00     0.172 C 
BRANCH  29  30
HETATM   30  C13 UNL     1      75.112  23.974  26.503  1.00  0.00     0.073 C 
BRANCH  30  31
HETATM   31  C14 UNL     1      76.223  24.769  27.061  1.00  0.00     0.047 A 
HETATM   32  C15 UNL     1      77.220  24.244  27.826  1.00  0.00     0.109 A 
HETATM   33  S1  UNL     1      77.196  22.536  28.298  1.00  0.00    -0.032 SA
HETATM   34  N6  UNL     1      78.215  25.049  28.265  1.00  0.00    -0.184 N 
HETATM   35  C16 UNL     1      78.211  26.350  27.943  1.00  0.00     0.679 A 
ATOM     36  H6  UNL     1      78.966  24.667  28.839  1.00  0.00     0.185 HD
HETATM   37  N8  UNL     1      77.239  26.888  27.191  1.00  0.00    -0.156 N 
HETATM   38  C17 UNL     1      76.256  26.129  26.748  1.00  0.00     0.268 A 
ATOM     39  H8  UNL     1      77.260  27.882  26.964  1.00  0.00     0.187 HD
HETATM   40  O4  UNL     1      75.346  26.617  26.047  1.00  0.00    -0.267 OA
BRANCH  35  41
HETATM   41  N7  UNL     1      79.154  27.119  28.361  1.00  0.00    -0.234 N 
ATOM     42  H72 UNL     1      79.150  28.094  28.064  1.00  0.00     0.174 HD
ATOM     43  H71 UNL     1      79.878  26.748  28.976  1.00  0.00     0.174 HD
ENDBRANCH  35  41
ENDBRANCH  30  31
ENDBRANCH  29  30
ENDBRANCH  28  29
ENDBRANCH  27  28
ENDBRANCH  26  27
ENDBRANCH  25  26
ENDBRANCH  24  25
ENDBRANCH  23  24
ENDBRANCH   1  23
TORSDOF 14
ENDMDL
MODEL 5
REMARK VINA RESULT: -7.186318347      5.789     10.896
REMARK  14 active torsions:
REMARK  status: ('A' for Active; 'I' for Inactive)
REMARK       I    between atoms: C1_4  and  N2_5 
REMARK       I    between atoms: C1_4  and  N5_18 
REMARK    1  A    between atoms: N2_5  and  C2_7 
REMARK    2  A    between atoms: N5_18  and  C6_20 
REMARK    3  A    between atoms: C6_20  and  C7_21 
REMARK    4  A    between atoms: C7_21  and  O1_22 
REMARK    5  A    between atoms: O1_22  and  C8_23 
REMARK    6  A    between atoms: C8_23  and  C9_24 
REMARK    7  A    between atoms: C9_24  and  O2_25 
REMARK    8  A    between atoms: O2_25  and  C10_26 
REMARK    9  A    between atoms: C10_26  and  C11_27 
REMARK   10  A    between atoms: C11_27  and  O3_28 
REMARK   11  A    between atoms: O3_28  and  C12_29 
REMARK   12  A    between atoms: C12_29  and  C13_30 
REMARK   13  A    between atoms: C13_30  and  C14_31 
REMARK   14  A    between atoms: C16_36  and  N7_37 
ROOT
HETATM    1  O1  UNL     1      69.085  21.090  29.408  1.00  0.00    -0.387 OA
ENDROOT
BRANCH   1   2
HETATM    2  C7  UNL     1      69.981  20.289  28.695  1.00  0.00     0.188 C 
BRANCH   2   3
HETATM    3  C6  UNL     1      71.328  20.931  28.726  1.00  0.00     0.164 C 
BRANCH   3   4
HETATM    4  N5  UNL     1      71.538  21.615  29.976  1.00  0.00    -0.224 N 
HETATM    5  C1  UNL     1      72.201  22.855  30.117  1.00  0.00     0.686 C 
HETATM    6  N1  UNL     1      72.439  23.280  31.331  1.00  0.00    -0.234 N 
HETATM    7  N2  UNL     1      72.586  23.615  28.996  1.00  0.00    -0.023 N 
ATOM      8  H12 UNL     1      72.917  24.175  31.433  1.00  0.00     0.174 HD
ATOM      9  H11 UNL     1      72.160  22.729  32.144  1.00  0.00     0.174 HD
ATOM     10  H2  UNL     1      71.899  24.156  28.471  1.00  0.00     0.203 HD
ATOM     11  H5  UNL     1      71.183  21.170  30.823  1.00  0.00     0.177 HD
BRANCH   7  12
HETATM   12  C2  UNL     1      73.850  23.610  28.643  1.00  0.00     0.699 A 
HETATM   13  N3  UNL     1      74.523  22.428  28.699  1.00  0.00    -0.179 N 
HETATM   14  C3  UNL     1      75.808  22.380  28.346  1.00  0.00     0.144 A 
ATOM     15  H3  UNL     1      74.046  21.582  29.010  1.00  0.00     0.185 HD
HETATM   16 CL1  UNL     1      76.731  20.875  28.402  1.00  0.00    -0.062 Cl
HETATM   17  C4  UNL     1      76.500  23.492  27.918  1.00  0.00     0.112 A 
HETATM   18 CL2  UNL     1      78.180  23.462  27.449  1.00  0.00    -0.077 Cl
HETATM   19  C5  UNL     1      75.799  24.678  27.869  1.00  0.00     0.144 A 
HETATM   20 CL3  UNL     1      76.584  26.172  27.332  1.00  0.00    -0.062 Cl
HETATM   21  N4  UNL     1      74.504  24.700  28.230  1.00  0.00    -0.179 N 
ATOM     22  H4  UNL     1      74.001  25.586  28.188  1.00  0.00     0.185 HD
ENDBRANCH   7  12
ENDBRANCH   3   4
ENDBRANCH   2   3
ENDBRANCH   1   2
BRANCH   1  23
HETATM   23  C8  UNL     1      68.472  20.191  30.325  1.00  0.00     0.193 C 
BRANCH  23  24
HETATM   24  C9  UNL     1      68.464  18.851  29.679  1.00  0.00     0.193 C 
BRANCH  24  25
HETATM   25  O2  UNL     1      67.515  17.979  30.170  1.00  0.00    -0.387 OA
BRANCH  25  26
HETATM   26  C10 UNL     1      67.793  17.642  31.462  1.00  0.00     0.193 C 
BRANCH  26  27
HETATM   27  C11 UNL     1      66.628  17.213  32.299  1.00  0.00     0.193 C 
BRANCH  27  28
HETATM   28  O3  UNL     1      66.309  15.906  32.316  1.00  0.00    -0.389 OA
BRANCH  28  29
HETATM   29  C12 UNL     1      65.131  15.448  31.878  1.00  0.00     0.172 C 
BRANCH  29  30
HETATM   30  C13 UNL     1      65.284  14.446  30.766  1.00  0.00     0.073 C 
BRANCH  30  31
HETATM   31  C14 UNL     1      66.021  15.013  29.619  1.00  0.00     0.047 A 
HETATM   32  C15 UNL     1      67.320  14.720  29.335  1.00  0.00     0.109 A 
HETATM   33  S1  UNL     1      68.270  13.680  30.409  1.00  0.00    -0.032 SA
HETATM   34  N6  UNL     1      67.900  15.265  28.240  1.00  0.00    -0.184 N 
HETATM   35  C16 UNL     1      67.193  16.085  27.450  1.00  0.00     0.679 A 
ATOM     36  H6  UNL     1      68.872  15.052  28.018  1.00  0.00     0.185 HD
HETATM   37  N8  UNL     1      65.913  16.388  27.712  1.00  0.00    -0.156 N 
HETATM   38  C17 UNL     1      65.320  15.872  28.771  1.00  0.00     0.268 A 
ATOM     39  H8  UNL     1      65.400  17.017  27.094  1.00  0.00     0.187 HD
HETATM   40  O4  UNL     1      64.129  16.146  29.026  1.00  0.00    -0.267 OA
BRANCH  35  41
HETATM   41  N7  UNL     1      67.742  16.607  26.410  1.00  0.00    -0.234 N 
ATOM     42  H72 UNL     1      68.671  16.283  26.141  1.00  0.00     0.174 HD
ATOM     43  H71 UNL     1      67.248  17.322  25.878  1.00  0.00     0.174 HD
ENDBRANCH  35  41
ENDBRANCH  30  31
ENDBRANCH  29  30
ENDBRANCH  28  29
ENDBRANCH  27  28
ENDBRANCH  26  27
ENDBRANCH  25  26
ENDBRANCH  24  25
ENDBRANCH  23  24
ENDBRANCH   1  23
TORSDOF 14
ENDMDL
