MODEL 1
REMARK VINA RESULT: -5.796328501      0.000      0.000
REMARK  15 active torsions:
REMARK  status: ('A' for Active; 'I' for Inactive)
REMARK    1  A    between atoms: C2_2  and  C3_3 
REMARK       I    between atoms: C3_3  and  N1_5 
REMARK    2  A    between atoms: N1_5  and  C4_7 
REMARK    3  A    between atoms: C5_8  and  S1_9 
REMARK    4  A    between atoms: S1_9  and  C6_10 
REMARK    5  A    between atoms: C6_10  and  C7_11 
REMARK    6  A    between atoms: C7_11  and  C8_12 
REMARK    7  A    between atoms: C9_16  and  C10_17 
REMARK    8  A    between atoms: C12_20  and  N3_21 
REMARK    9  A    between atoms: N3_21  and  N4_23 
REMARK       I    between atoms: N4_23  and  C13_25 
REMARK   10  A    between atoms: C14_28  and  N6_29 
REMARK   11  A    between atoms: N6_29  and  C15_30 
REMARK   12  A    between atoms: N6_29  and  C17_33 
REMARK   13  A    between atoms: C15_30  and  C16_31 
REMARK   14  A    between atoms: C18_34  and  O4_35 
REMARK   15  A    between atoms: C20_40  and  O5_41 
ROOT
HETATM    1  C4  UNL     1      67.786  16.081  32.668  1.00  0.00     0.169 C 
HETATM    2  C5  UNL     1      66.417  16.488  33.226  1.00  0.00     0.172 C 
HETATM    3  N2  UNL     1      65.466  16.582  32.183  1.00  0.00    -0.372 N 
ATOM      4  H2  UNL     1      64.998  15.753  31.816  1.00  0.00     0.161 HD
HETATM    5  C9  UNL     1      65.196  17.842  31.679  1.00  0.00     0.069 C 
HETATM    6  C11 UNL     1      66.259  18.294  30.764  1.00  0.00     0.065 C 
HETATM    7  C12 UNL     1      67.654  17.939  30.897  1.00  0.00     0.075 C 
HETATM    8  C14 UNL     1      68.161  16.624  31.380  1.00  0.00     0.066 C 
ENDROOT
BRANCH   8   9
HETATM    9  N6  UNL     1      68.477  15.629  30.356  1.00  0.00    -0.340 N 
BRANCH   9  10
HETATM   10  C15 UNL     1      69.468  14.616  30.429  1.00  0.00     0.144 C 
BRANCH  10  11
HETATM   11  C16 UNL     1      68.954  13.214  30.509  1.00  0.00     0.135 C 
HETATM   12 CL1  UNL     1      68.999  12.432  28.892  1.00  0.00    -0.129 Cl
ENDBRANCH  10  11
ENDBRANCH   9  10
BRANCH   9  13
HETATM   13  C17 UNL     1      67.670  15.591  29.171  1.00  0.00     0.121 A 
HETATM   14  C18 UNL     1      66.371  15.177  29.011  1.00  0.00     0.112 A 
HETATM   15  C19 UNL     1      65.996  15.325  27.698  1.00  0.00     0.129 A 
HETATM   16  N7  UNL     1      67.029  15.828  27.023  1.00  0.00    -0.342 N 
HETATM   17  C20 UNL     1      68.063  16.001  27.893  1.00  0.00     0.170 A 
ATOM     18  H7  UNL     1      67.043  16.047  26.027  1.00  0.00     0.167 HD
BRANCH  14  19
HETATM   19  O4  UNL     1      65.569  14.688  30.015  1.00  0.00    -0.357 OA
ATOM     20  H4  UNL     1      64.632  14.550  29.946  1.00  0.00     0.217 HD
ENDBRANCH  14  19
BRANCH  17  21
HETATM   21  O5  UNL     1      69.263  16.500  27.524  1.00  0.00    -0.344 OA
ATOM     22  H5  UNL     1      69.810  16.213  26.803  1.00  0.00     0.219 HD
ENDBRANCH  17  21
ENDBRANCH   9  13
ENDBRANCH   8   9
BRANCH   1  23
HETATM   23  N1  UNL     1      68.719  16.502  33.752  1.00  0.00    -0.348 N 
HETATM   24  C3  UNL     1      69.618  15.660  34.414  1.00  0.00     0.217 C 
HETATM   25  O1  UNL     1      69.746  14.427  34.150  1.00  0.00    -0.274 OA
ATOM     26  H1  UNL     1      68.701  17.481  34.034  1.00  0.00     0.163 HD
BRANCH  24  27
HETATM   27  C2  UNL     1      70.491  16.197  35.495  1.00  0.00     0.098 C 
HETATM   28  C1  UNL     1      71.565  15.216  35.904  1.00  0.00     0.014 C 
ENDBRANCH  24  27
ENDBRANCH   1  23
BRANCH   7  29
HETATM   29  N3  UNL     1      68.407  19.008  31.481  1.00  0.00    -0.295 N 
ATOM     30  H3  UNL     1      68.652  18.987  32.471  1.00  0.00     0.187 HD
BRANCH  29  31
HETATM   31  N4  UNL     1      68.794  20.055  30.696  1.00  0.00    -0.254 N 
HETATM   32  C13 UNL     1      69.360  20.134  29.427  1.00  0.00     0.347 C 
HETATM   33  N5  UNL     1      69.659  21.447  28.885  1.00  0.00    -0.038 NA
HETATM   34  O3  UNL     1      69.668  19.212  28.635  1.00  0.00    -0.249 OA
ATOM     35  H4  UNL     1      68.637  20.966  31.127  1.00  0.00     0.191 HD
ENDBRANCH  29  31
ENDBRANCH   7  29
BRANCH   2  36
HETATM   36  S1  UNL     1      65.706  15.243  34.355  1.00  0.00    -0.141 SA
BRANCH  36  37
HETATM   37  C6  UNL     1      64.423  16.107  35.312  1.00  0.00     0.078 C 
BRANCH  37  38
HETATM   38  C7  UNL     1      64.864  17.397  35.938  1.00  0.00     0.041 C 
BRANCH  38  39
HETATM   39  C8  UNL     1      63.564  18.111  36.350  1.00  0.00     0.222 C 
HETATM   40  F1  UNL     1      63.293  19.200  35.577  1.00  0.00    -0.255 F 
ENDBRANCH  38  39
ENDBRANCH  37  38
ENDBRANCH  36  37
ENDBRANCH   2  36
BRANCH   5  41
HETATM   41  C10 UNL     1      64.668  18.869  32.626  1.00  0.00     0.287 C 
HETATM   42  O2  UNL     1      64.044  19.815  32.204  1.00  0.00    -0.300 OA
ENDBRANCH   5  41
TORSDOF 15
ENDMDL
MODEL 2
REMARK VINA RESULT: -5.698018112      1.940      2.270
REMARK  15 active torsions:
REMARK  status: ('A' for Active; 'I' for Inactive)
REMARK    1  A    between atoms: C2_2  and  C3_3 
REMARK       I    between atoms: C3_3  and  N1_5 
REMARK    2  A    between atoms: N1_5  and  C4_7 
REMARK    3  A    between atoms: C5_8  and  S1_9 
REMARK    4  A    between atoms: S1_9  and  C6_10 
REMARK    5  A    between atoms: C6_10  and  C7_11 
REMARK    6  A    between atoms: C7_11  and  C8_12 
REMARK    7  A    between atoms: C9_16  and  C10_17 
REMARK    8  A    between atoms: C12_20  and  N3_21 
REMARK    9  A    between atoms: N3_21  and  N4_23 
REMARK       I    between atoms: N4_23  and  C13_25 
REMARK   10  A    between atoms: C14_28  and  N6_29 
REMARK   11  A    between atoms: N6_29  and  C15_30 
REMARK   12  A    between atoms: N6_29  and  C17_33 
REMARK   13  A    between atoms: C15_30  and  C16_31 
REMARK   14  A    between atoms: C18_34  and  O4_35 
REMARK   15  A    between atoms: C20_40  and  O5_41 
ROOT
HETATM    1  C4  UNL     1      67.425  15.712  32.852  1.00  0.00     0.169 C 
HETATM    2  C5  UNL     1      66.174  16.197  33.595  1.00  0.00     0.172 C 
HETATM    3  N2  UNL     1      65.097  16.367  32.693  1.00  0.00    -0.372 N 
ATOM      4  H2  UNL     1      64.530  15.574  32.390  1.00  0.00     0.161 HD
HETATM    5  C9  UNL     1      64.843  17.648  32.238  1.00  0.00     0.069 C 
HETATM    6  C11 UNL     1      65.797  18.045  31.187  1.00  0.00     0.065 C 
HETATM    7  C12 UNL     1      67.171  17.600  31.125  1.00  0.00     0.075 C 
HETATM    8  C14 UNL     1      67.653  16.249  31.527  1.00  0.00     0.066 C 
ENDROOT
BRANCH   8   9
HETATM    9  N6  UNL     1      67.761  15.250  30.463  1.00  0.00    -0.340 N 
BRANCH   9  10
HETATM   10  C15 UNL     1      68.501  14.040  30.502  1.00  0.00     0.144 C 
BRANCH  10  11
HETATM   11  C16 UNL     1      69.986  14.193  30.582  1.00  0.00     0.135 C 
HETATM   12 CL1  UNL     1      70.796  12.604  30.361  1.00  0.00    -0.129 Cl
ENDBRANCH  10  11
ENDBRANCH   9  10
BRANCH   9  13
HETATM   13  C17 UNL     1      66.987  15.439  29.271  1.00  0.00     0.121 A 
HETATM   14  C18 UNL     1      65.634  15.313  29.078  1.00  0.00     0.112 A 
HETATM   15  C19 UNL     1      65.324  15.601  27.770  1.00  0.00     0.129 A 
HETATM   16  N7  UNL     1      66.452  15.909  27.133  1.00  0.00    -0.342 N 
HETATM   17  C20 UNL     1      67.482  15.820  28.019  1.00  0.00     0.170 A 
ATOM     18  H7  UNL     1      66.531  16.169  26.149  1.00  0.00     0.167 HD
BRANCH  14  19
HETATM   19  O4  UNL     1      64.728  14.954  30.047  1.00  0.00    -0.357 OA
ATOM     20  H4  UNL     1      63.997  14.361  29.919  1.00  0.00     0.217 HD
ENDBRANCH  14  19
BRANCH  17  21
HETATM   21  O5  UNL     1      68.766  16.075  27.688  1.00  0.00    -0.344 OA
ATOM     22  H5  UNL     1      69.352  15.525  27.182  1.00  0.00     0.219 HD
ENDBRANCH  17  21
ENDBRANCH   9  13
ENDBRANCH   8   9
BRANCH   1  23
HETATM   23  N1  UNL     1      68.523  16.058  33.799  1.00  0.00    -0.348 N 
HETATM   24  C3  UNL     1      69.451  15.152  34.322  1.00  0.00     0.217 C 
HETATM   25  O1  UNL     1      69.464  13.919  34.033  1.00  0.00    -0.274 OA
ATOM     26  H1  UNL     1      68.604  17.032  34.088  1.00  0.00     0.163 HD
BRANCH  24  27
HETATM   27  C2  UNL     1      70.496  15.618  35.276  1.00  0.00     0.098 C 
HETATM   28  C1  UNL     1      70.234  17.021  35.772  1.00  0.00     0.014 C 
ENDBRANCH  24  27
ENDBRANCH   1  23
BRANCH   7  29
HETATM   29  N3  UNL     1      68.065  18.610  31.605  1.00  0.00    -0.295 N 
ATOM     30  H3  UNL     1      68.423  18.572  32.559  1.00  0.00     0.187 HD
BRANCH  29  31
HETATM   31  N4  UNL     1      68.433  19.625  30.769  1.00  0.00    -0.254 N 
HETATM   32  C13 UNL     1      68.995  19.653  29.496  1.00  0.00     0.347 C 
HETATM   33  N5  UNL     1      69.270  20.942  28.891  1.00  0.00    -0.038 NA
HETATM   34  O3  UNL     1      69.318  18.698  28.750  1.00  0.00    -0.249 OA
ATOM     35  H4  UNL     1      68.260  20.553  31.156  1.00  0.00     0.191 HD
ENDBRANCH  29  31
ENDBRANCH   7  29
BRANCH   2  36
HETATM   36  S1  UNL     1      65.545  14.985  34.805  1.00  0.00    -0.141 SA
BRANCH  36  37
HETATM   37  C6  UNL     1      65.904  13.345  34.107  1.00  0.00     0.078 C 
BRANCH  37  38
HETATM   38  C7  UNL     1      64.702  12.474  33.890  1.00  0.00     0.041 C 
BRANCH  38  39
HETATM   39  C8  UNL     1      64.585  12.320  32.362  1.00  0.00     0.222 C 
HETATM   40  F1  UNL     1      65.755  12.586  31.715  1.00  0.00    -0.255 F 
ENDBRANCH  38  39
ENDBRANCH  37  38
ENDBRANCH  36  37
ENDBRANCH   2  36
BRANCH   5  41
HETATM   41  C10 UNL     1      64.517  18.693  33.253  1.00  0.00     0.287 C 
HETATM   42  O2  UNL     1      63.671  19.524  33.015  1.00  0.00    -0.300 OA
ENDBRANCH   5  41
TORSDOF 15
ENDMDL
MODEL 3
REMARK VINA RESULT: -5.599470256      2.929      5.126
REMARK  15 active torsions:
REMARK  status: ('A' for Active; 'I' for Inactive)
REMARK    1  A    between atoms: C2_2  and  C3_3 
REMARK       I    between atoms: C3_3  and  N1_5 
REMARK    2  A    between atoms: N1_5  and  C4_7 
REMARK    3  A    between atoms: C5_8  and  S1_9 
REMARK    4  A    between atoms: S1_9  and  C6_10 
REMARK    5  A    between atoms: C6_10  and  C7_11 
REMARK    6  A    between atoms: C7_11  and  C8_12 
REMARK    7  A    between atoms: C9_16  and  C10_17 
REMARK    8  A    between atoms: C12_20  and  N3_21 
REMARK    9  A    between atoms: N3_21  and  N4_23 
REMARK       I    between atoms: N4_23  and  C13_25 
REMARK   10  A    between atoms: C14_28  and  N6_29 
REMARK   11  A    between atoms: N6_29  and  C15_30 
REMARK   12  A    between atoms: N6_29  and  C17_33 
REMARK   13  A    between atoms: C15_30  and  C16_31 
REMARK   14  A    between atoms: C18_34  and  O4_35 
REMARK   15  A    between atoms: C20_40  and  O5_41 
ROOT
HETATM    1  C4  UNL     1      67.983  15.486  30.837  1.00  0.00     0.169 C 
HETATM    2  C5  UNL     1      67.122  14.320  31.339  1.00  0.00     0.172 C 
HETATM    3  N2  UNL     1      65.878  14.298  30.667  1.00  0.00    -0.372 N 
ATOM      4  H2  UNL     1      65.784  13.883  29.739  1.00  0.00     0.161 HD
HETATM    5  C9  UNL     1      64.794  14.861  31.315  1.00  0.00     0.069 C 
HETATM    6  C11 UNL     1      64.822  16.333  31.233  1.00  0.00     0.065 C 
HETATM    7  C12 UNL     1      66.033  17.122  31.196  1.00  0.00     0.075 C 
HETATM    8  C14 UNL     1      67.298  16.721  30.519  1.00  0.00     0.066 C 
ENDROOT
BRANCH   8   9
HETATM    9  N6  UNL     1      67.487  17.201  29.150  1.00  0.00    -0.340 N 
BRANCH   9  10
HETATM   10  C15 UNL     1      66.710  16.861  28.012  1.00  0.00     0.144 C 
BRANCH  10  11
HETATM   11  C16 UNL     1      66.055  15.518  28.054  1.00  0.00     0.135 C 
HETATM   12 CL1  UNL     1      64.280  15.676  27.819  1.00  0.00    -0.129 Cl
ENDBRANCH  10  11
ENDBRANCH   9  10
BRANCH   9  13
HETATM   13  C17 UNL     1      68.505  18.181  28.907  1.00  0.00     0.121 A 
HETATM   14  C18 UNL     1      68.810  19.319  29.612  1.00  0.00     0.112 A 
HETATM   15  C19 UNL     1      69.874  19.958  29.023  1.00  0.00     0.129 A 
HETATM   16  N7  UNL     1      70.252  19.246  27.962  1.00  0.00    -0.342 N 
HETATM   17  C20 UNL     1      69.438  18.158  27.865  1.00  0.00     0.170 A 
ATOM     18  H7  UNL     1      71.020  19.476  27.331  1.00  0.00     0.167 HD
BRANCH  14  19
HETATM   19  O4  UNL     1      68.148  19.752  30.736  1.00  0.00    -0.357 OA
ATOM     20  H4  UNL     1      67.248  19.542  30.954  1.00  0.00     0.217 HD
ENDBRANCH  14  19
BRANCH  17  21
HETATM   21  O5  UNL     1      69.560  17.229  26.893  1.00  0.00    -0.344 OA
ATOM     22  H5  UNL     1      70.359  16.933  26.474  1.00  0.00     0.219 HD
ENDBRANCH  17  21
ENDBRANCH   9  13
ENDBRANCH   8   9
BRANCH   1  23
HETATM   23  N1  UNL     1      68.976  15.657  31.936  1.00  0.00    -0.348 N 
HETATM   24  C3  UNL     1      68.681  15.617  33.302  1.00  0.00     0.217 C 
HETATM   25  O1  UNL     1      67.517  15.417  33.761  1.00  0.00    -0.274 OA
ATOM     26  H1  UNL     1      69.947  15.815  31.670  1.00  0.00     0.163 HD
BRANCH  24  27
HETATM   27  C2  UNL     1      69.762  15.818  34.308  1.00  0.00     0.098 C 
HETATM   28  C1  UNL     1      69.951  14.607  35.193  1.00  0.00     0.014 C 
ENDBRANCH  24  27
ENDBRANCH   1  23
BRANCH   7  29
HETATM   29  N3  UNL     1      66.315  17.698  32.477  1.00  0.00    -0.295 N 
ATOM     30  H3  UNL     1      67.269  17.958  32.727  1.00  0.00     0.187 HD
BRANCH  29  31
HETATM   31  N4  UNL     1      65.291  17.895  33.358  1.00  0.00    -0.254 N 
HETATM   32  C13 UNL     1      64.212  18.773  33.380  1.00  0.00     0.347 C 
HETATM   33  N5  UNL     1      63.296  18.713  34.505  1.00  0.00    -0.038 NA
HETATM   34  O3  UNL     1      63.883  19.651  32.547  1.00  0.00    -0.249 OA
ATOM     35  H4  UNL     1      65.323  17.271  34.164  1.00  0.00     0.191 HD
ENDBRANCH  29  31
ENDBRANCH   7  29
BRANCH   2  36
HETATM   36  S1  UNL     1      67.847  12.686  30.972  1.00  0.00    -0.141 SA
BRANCH  36  37
HETATM   37  C6  UNL     1      68.883  12.915  29.495  1.00  0.00     0.078 C 
BRANCH  37  38
HETATM   38  C7  UNL     1      70.357  12.766  29.729  1.00  0.00     0.041 C 
BRANCH  38  39
HETATM   39  C8  UNL     1      70.495  12.403  31.219  1.00  0.00     0.222 C 
HETATM   40  F1  UNL     1      71.448  13.140  31.855  1.00  0.00    -0.255 F 
ENDBRANCH  38  39
ENDBRANCH  37  38
ENDBRANCH  36  37
ENDBRANCH   2  36
BRANCH   5  41
HETATM   41  C10 UNL     1      64.401  14.288  32.637  1.00  0.00     0.287 C 
HETATM   42  O2  UNL     1      64.601  14.917  33.651  1.00  0.00    -0.300 OA
ENDBRANCH   5  41
TORSDOF 15
ENDMDL
MODEL 4
REMARK VINA RESULT: -5.578334313      3.014      6.570
REMARK  15 active torsions:
REMARK  status: ('A' for Active; 'I' for Inactive)
REMARK    1  A    between atoms: C2_2  and  C3_3 
REMARK       I    between atoms: C3_3  and  N1_5 
REMARK    2  A    between atoms: N1_5  and  C4_7 
REMARK    3  A    between atoms: C5_8  and  S1_9 
REMARK    4  A    between atoms: S1_9  and  C6_10 
REMARK    5  A    between atoms: C6_10  and  C7_11 
REMARK    6  A    between atoms: C7_11  and  C8_12 
REMARK    7  A    between atoms: C9_16  and  C10_17 
REMARK    8  A    between atoms: C12_20  and  N3_21 
REMARK    9  A    between atoms: N3_21  and  N4_23 
REMARK       I    between atoms: N4_23  and  C13_25 
REMARK   10  A    between atoms: C14_28  and  N6_29 
REMARK   11  A    between atoms: N6_29  and  C15_30 
REMARK   12  A    between atoms: N6_29  and  C17_33 
REMARK   13  A    between atoms: C15_30  and  C16_31 
REMARK   14  A    between atoms: C18_34  and  O4_35 
REMARK   15  A    between atoms: C20_40  and  O5_41 
ROOT
HETATM    1  C4  UNL     1      67.732  16.608  31.157  1.00  0.00     0.169 C 
HETATM    2  C5  UNL     1      68.742  15.463  31.304  1.00  0.00     0.172 C 
HETATM    3  N2  UNL     1      68.222  14.450  32.143  1.00  0.00    -0.372 N 
ATOM      4  H2  UNL     1      67.575  13.746  31.786  1.00  0.00     0.161 HD
HETATM    5  C9  UNL     1      68.625  14.450  33.466  1.00  0.00     0.069 C 
HETATM    6  C11 UNL     1      67.910  15.475  34.247  1.00  0.00     0.065 C 
HETATM    7  C12 UNL     1      67.460  16.740  33.709  1.00  0.00     0.075 C 
HETATM    8  C14 UNL     1      66.951  16.951  32.326  1.00  0.00     0.066 C 
ENDROOT
BRANCH   8   9
HETATM    9  N6  UNL     1      65.501  16.880  32.146  1.00  0.00    -0.340 N 
BRANCH   9  10
HETATM   10  C15 UNL     1      64.800  16.164  31.141  1.00  0.00     0.144 C 
BRANCH  10  11
HETATM   11  C16 UNL     1      64.781  16.800  29.788  1.00  0.00     0.135 C 
HETATM   12 CL1  UNL     1      64.096  15.671  28.570  1.00  0.00    -0.129 Cl
ENDBRANCH  10  11
ENDBRANCH   9  10
BRANCH   9  13
HETATM   13  C17 UNL     1      64.662  17.523  33.115  1.00  0.00     0.121 A 
HETATM   14  C18 UNL     1      64.160  18.801  33.128  1.00  0.00     0.112 A 
HETATM   15  C19 UNL     1      63.391  18.986  34.251  1.00  0.00     0.129 A 
HETATM   16  N7  UNL     1      63.390  17.850  34.948  1.00  0.00    -0.342 N 
HETATM   17  C20 UNL     1      64.155  16.940  34.282  1.00  0.00     0.170 A 
ATOM     18  H7  UNL     1      62.901  17.689  35.828  1.00  0.00     0.167 HD
BRANCH  14  19
HETATM   19  O4  UNL     1      64.395  19.750  32.162  1.00  0.00    -0.357 OA
ATOM     20  H4  UNL     1      64.505  20.680  32.325  1.00  0.00     0.217 HD
ENDBRANCH  14  19
BRANCH  17  21
HETATM   21  O5  UNL     1      64.358  15.681  34.725  1.00  0.00    -0.344 OA
ATOM     22  H5  UNL     1      64.791  15.414  35.527  1.00  0.00     0.219 HD
ENDBRANCH  17  21
ENDBRANCH   9  13
ENDBRANCH   8   9
BRANCH   1  23
HETATM   23  N1  UNL     1      68.585  17.740  30.695  1.00  0.00    -0.348 N 
HETATM   24  C3  UNL     1      68.143  19.050  30.490  1.00  0.00     0.217 C 
HETATM   25  O1  UNL     1      66.951  19.426  30.690  1.00  0.00    -0.274 OA
ATOM     26  H1  UNL     1      69.568  17.542  30.513  1.00  0.00     0.163 HD
BRANCH  24  27
HETATM   27  C2  UNL     1      69.092  20.094  30.010  1.00  0.00     0.098 C 
HETATM   28  C1  UNL     1      69.710  19.736  28.678  1.00  0.00     0.014 C 
ENDBRANCH  24  27
ENDBRANCH   1  23
BRANCH   7  29
HETATM   29  N3  UNL     1      68.344  17.804  34.082  1.00  0.00    -0.295 N 
ATOM     30  H3  UNL     1      68.877  18.305  33.372  1.00  0.00     0.187 HD
BRANCH  29  31
HETATM   31  N4  UNL     1      68.463  18.139  35.400  1.00  0.00    -0.254 N 
HETATM   32  C13 UNL     1      67.541  18.515  36.373  1.00  0.00     0.347 C 
HETATM   33  N5  UNL     1      68.029  18.817  37.706  1.00  0.00    -0.038 NA
HETATM   34  O3  UNL     1      66.297  18.640  36.282  1.00  0.00    -0.249 OA
ATOM     35  H4  UNL     1      69.424  18.108  35.742  1.00  0.00     0.191 HD
ENDBRANCH  29  31
ENDBRANCH   7  29
BRANCH   2  36
HETATM   36  S1  UNL     1      69.078  14.600  29.732  1.00  0.00    -0.141 SA
BRANCH  36  37
HETATM   37  C6  UNL     1      67.463  14.368  28.929  1.00  0.00     0.078 C 
BRANCH  37  38
HETATM   38  C7  UNL     1      67.405  14.799  27.494  1.00  0.00     0.041 C 
BRANCH  38  39
HETATM   39  C8  UNL     1      68.149  16.146  27.446  1.00  0.00     0.222 C 
HETATM   40  F1  UNL     1      67.343  17.205  27.744  1.00  0.00    -0.255 F 
ENDBRANCH  38  39
ENDBRANCH  37  38
ENDBRANCH  36  37
ENDBRANCH   2  36
BRANCH   5  41
HETATM   41  C10 UNL     1      70.086  14.316  33.746  1.00  0.00     0.287 C 
HETATM   42  O2  UNL     1      70.685  13.334  33.373  1.00  0.00    -0.300 OA
ENDBRANCH   5  41
TORSDOF 15
ENDMDL
MODEL 5
REMARK VINA RESULT: -5.510110213      1.349      2.228
REMARK  15 active torsions:
REMARK  status: ('A' for Active; 'I' for Inactive)
REMARK    1  A    between atoms: C2_2  and  C3_3 
REMARK       I    between atoms: C3_3  and  N1_5 
REMARK    2  A    between atoms: N1_5  and  C4_7 
REMARK    3  A    between atoms: C5_8  and  S1_9 
REMARK    4  A    between atoms: S1_9  and  C6_10 
REMARK    5  A    between atoms: C6_10  and  C7_11 
REMARK    6  A    between atoms: C7_11  and  C8_12 
REMARK    7  A    between atoms: C9_16  and  C10_17 
REMARK    8  A    between atoms: C12_20  and  N3_21 
REMARK    9  A    between atoms: N3_21  and  N4_23 
REMARK       I    between atoms: N4_23  and  C13_25 
REMARK   10  A    between atoms: C14_28  and  N6_29 
REMARK   11  A    between atoms: N6_29  and  C15_30 
REMARK   12  A    between atoms: N6_29  and  C17_33 
REMARK   13  A    between atoms: C15_30  and  C16_31 
REMARK   14  A    between atoms: C18_34  and  O4_35 
REMARK   15  A    between atoms: C20_40  and  O5_41 
ROOT
HETATM    1  C4  UNL     1      67.792  16.367  32.663  1.00  0.00     0.169 C 
HETATM    2  C5  UNL     1      66.407  16.728  33.213  1.00  0.00     0.172 C 
HETATM    3  N2  UNL     1      65.432  16.646  32.192  1.00  0.00    -0.372 N 
ATOM      4  H2  UNL     1      65.020  15.751  31.924  1.00  0.00     0.161 HD
HETATM    5  C9  UNL     1      65.058  17.823  31.571  1.00  0.00     0.069 C 
HETATM    6  C11 UNL     1      66.066  18.256  30.586  1.00  0.00     0.065 C 
HETATM    7  C12 UNL     1      67.486  18.018  30.717  1.00  0.00     0.075 C 
HETATM    8  C14 UNL     1      68.099  16.801  31.316  1.00  0.00     0.066 C 
ENDROOT
BRANCH   8   9
HETATM    9  N6  UNL     1      68.470  15.731  30.390  1.00  0.00    -0.340 N 
BRANCH   9  10
HETATM   10  C15 UNL     1      68.847  15.875  29.029  1.00  0.00     0.144 C 
BRANCH  10  11
HETATM   11  C16 UNL     1      68.028  15.101  28.047  1.00  0.00     0.135 C 
HETATM   12 CL1  UNL     1      66.320  15.660  28.071  1.00  0.00    -0.129 Cl
ENDBRANCH  10  11
ENDBRANCH   9  10
BRANCH   9  13
HETATM   13  C17 UNL     1      68.551  14.391  30.894  1.00  0.00     0.121 A 
HETATM   14  C18 UNL     1      67.547  13.493  31.154  1.00  0.00     0.112 A 
HETATM   15  C19 UNL     1      68.085  12.317  31.618  1.00  0.00     0.129 A 
HETATM   16  N7  UNL     1      69.411  12.451  31.653  1.00  0.00    -0.342 N 
HETATM   17  C20 UNL     1      69.725  13.703  31.218  1.00  0.00     0.170 A 
ATOM     18  H7  UNL     1      70.076  11.739  31.954  1.00  0.00     0.167 HD
BRANCH  14  19
HETATM   19  O4  UNL     1      66.205  13.735  30.977  1.00  0.00    -0.357 OA
ATOM     20  H4  UNL     1      65.715  13.537  30.188  1.00  0.00     0.217 HD
ENDBRANCH  14  19
BRANCH  17  21
HETATM   21  O5  UNL     1      70.994  14.158  31.130  1.00  0.00    -0.344 OA
ATOM     22  H5  UNL     1      71.518  14.543  31.821  1.00  0.00     0.219 HD
ENDBRANCH  17  21
ENDBRANCH   9  13
ENDBRANCH   8   9
BRANCH   1  23
HETATM   23  N1  UNL     1      68.712  16.964  33.673  1.00  0.00    -0.348 N 
HETATM   24  C3  UNL     1      69.535  16.241  34.541  1.00  0.00     0.217 C 
HETATM   25  O1  UNL     1      69.597  14.976  34.554  1.00  0.00    -0.274 OA
ATOM     26  H1  UNL     1      68.743  17.981  33.736  1.00  0.00     0.163 HD
BRANCH  24  27
HETATM   27  C2  UNL     1      70.402  16.954  35.520  1.00  0.00     0.098 C 
HETATM   28  C1  UNL     1      69.669  18.072  36.225  1.00  0.00     0.014 C 
ENDBRANCH  24  27
ENDBRANCH   1  23
BRANCH   7  29
HETATM   29  N3  UNL     1      68.168  19.194  31.169  1.00  0.00    -0.295 N 
ATOM     30  H3  UNL     1      68.325  19.349  32.164  1.00  0.00     0.187 HD
BRANCH  29  31
HETATM   31  N4  UNL     1      68.605  20.104  30.250  1.00  0.00    -0.254 N 
HETATM   32  C13 UNL     1      69.341  19.991  29.074  1.00  0.00     0.347 C 
HETATM   33  N5  UNL     1      69.641  21.199  28.328  1.00  0.00    -0.038 NA
HETATM   34  O3  UNL     1      69.809  18.965  28.526  1.00  0.00    -0.249 OA
ATOM     35  H4  UNL     1      68.337  21.064  30.470  1.00  0.00     0.191 HD
ENDBRANCH  29  31
ENDBRANCH   7  29
BRANCH   2  36
HETATM   36  S1  UNL     1      65.814  15.559  34.482  1.00  0.00    -0.141 SA
BRANCH  36  37
HETATM   37  C6  UNL     1      64.743  16.521  35.593  1.00  0.00     0.078 C 
BRANCH  37  38
HETATM   38  C7  UNL     1      65.383  17.744  36.182  1.00  0.00     0.041 C 
BRANCH  38  39
HETATM   39  C8  UNL     1      64.211  18.660  36.581  1.00  0.00     0.222 C 
HETATM   40  F1  UNL     1      63.335  18.870  35.558  1.00  0.00    -0.255 F 
ENDBRANCH  38  39
ENDBRANCH  37  38
ENDBRANCH  36  37
ENDBRANCH   2  36
BRANCH   5  41
HETATM   41  C10 UNL     1      64.472  18.901  32.422  1.00  0.00     0.287 C 
HETATM   42  O2  UNL     1      64.156  19.958  31.926  1.00  0.00    -0.300 OA
ENDBRANCH   5  41
TORSDOF 15
ENDMDL
