MODEL 1
REMARK VINA RESULT: -6.109219183      0.000      0.000
REMARK  20 active torsions:
REMARK  status: ('A' for Active; 'I' for Inactive)
REMARK    1  A    between atoms: C4_4  and  C5_5 
REMARK    2  A    between atoms: C5_5  and  O1_6 
REMARK    3  A    between atoms: C6_8  and  O2_9 
REMARK    4  A    between atoms: N1_12  and  N2_13 
REMARK    5  A    between atoms: C8_16  and  O3_17 
REMARK    6  A    between atoms: C9_19  and  O4_20 
REMARK    7  A    between atoms: C12_26  and  O5_27 
REMARK    8  A    between atoms: C14_30  and  O6_31 
REMARK    9  A    between atoms: C14_30  and  C15_33 
REMARK   10  A    between atoms: C15_33  and  O8_35 
REMARK   11  A    between atoms: O8_35  and  C16_36 
REMARK   12  A    between atoms: C16_36  and  C17_37 
REMARK   13  A    between atoms: C17_37  and  C18_38 
REMARK   14  A    between atoms: C18_38  and  C19_39 
REMARK   15  A    between atoms: C19_39  and  C20_40 
REMARK   16  A    between atoms: C20_40  and  C21_41 
REMARK   17  A    between atoms: C21_41  and  C22_42 
REMARK   18  A    between atoms: C22_42  and  C23_43 
REMARK   19  A    between atoms: C23_43  and  C24_44 
REMARK   20  A    between atoms: C24_44  and  C25_45 
ROOT
HETATM    1  C1  UNL     1      73.953  26.131  34.023  1.00  0.00     0.024 C 
HETATM    2  C2  UNL     1      73.771  25.201  35.167  1.00  0.00     0.027 C 
HETATM    3  C3  UNL     1      75.054  24.457  35.337  1.00  0.00    -0.003 C 
HETATM    4  C4  UNL     1      75.840  24.486  36.400  1.00  0.00     0.002 C 
HETATM    5  C8  UNL     1      75.437  25.318  37.556  1.00  0.00     0.180 C 
HETATM    6  C9  UNL     1      74.498  26.450  37.194  1.00  0.00     0.162 C 
HETATM    7  C10 UNL     1      73.368  25.841  36.449  1.00  0.00     0.107 C 
HETATM    8  C11 UNL     1      72.154  26.715  36.289  1.00  0.00     0.276 C 
HETATM    9  F1  UNL     1      71.710  27.047  37.555  1.00  0.00    -0.203 F 
HETATM   10  F2  UNL     1      72.495  27.903  35.674  1.00  0.00    -0.203 F 
HETATM   11  C12 UNL     1      71.066  26.033  35.507  1.00  0.00     0.194 C 
HETATM   12  C13 UNL     1      71.318  24.584  35.263  1.00  0.00     0.087 C 
HETATM   13  C14 UNL     1      72.676  24.186  34.831  1.00  0.00     0.159 C 
ENDROOT
BRANCH  13  14
HETATM   14  O6  UNL     1      73.036  23.058  35.627  1.00  0.00    -0.378 OA
ATOM     15  H6  UNL     1      72.199  22.756  35.956  1.00  0.00     0.211 HD
ENDBRANCH  13  14
BRANCH  13  16
HETATM   16  C15 UNL     1      72.704  23.760  33.412  1.00  0.00     0.294 C 
HETATM   17  O7  UNL     1      71.871  24.214  32.594  1.00  0.00    -0.262 OA
BRANCH  16  18
HETATM   18  O8  UNL     1      73.636  22.863  32.947  1.00  0.00    -0.319 OA
BRANCH  18  19
HETATM   19  C16 UNL     1      73.419  21.740  32.159  1.00  0.00     0.178 C 
BRANCH  19  20
HETATM   20  C17 UNL     1      74.215  21.700  30.897  1.00  0.00     0.027 C 
BRANCH  20  21
HETATM   21  C18 UNL     1      73.369  21.655  29.644  1.00  0.00     0.002 C 
BRANCH  21  22
HETATM   22  C19 UNL     1      72.878  23.032  29.239  1.00  0.00     0.000 C 
BRANCH  22  23
HETATM   23  C20 UNL     1      73.979  23.928  28.852  1.00  0.00     0.000 C 
BRANCH  23  24
HETATM   24  C21 UNL     1      74.324  24.139  27.443  1.00  0.00     0.000 C 
BRANCH  24  25
HETATM   25  C22 UNL     1      75.554  24.816  27.015  1.00  0.00     0.000 C 
BRANCH  25  26
HETATM   26  C23 UNL     1      76.416  25.475  28.026  1.00  0.00     0.002 C 
BRANCH  26  27
HETATM   27  C24 UNL     1      77.852  24.934  27.818  1.00  0.00     0.031 C 
BRANCH  27  28
HETATM   28  C25 UNL     1      77.796  23.434  27.778  1.00  0.00     0.222 C 
HETATM   29  F3  UNL     1      77.190  22.910  28.910  1.00  0.00    -0.255 F 
ENDBRANCH  27  28
ENDBRANCH  26  27
ENDBRANCH  25  26
ENDBRANCH  24  25
ENDBRANCH  23  24
ENDBRANCH  22  23
ENDBRANCH  21  22
ENDBRANCH  20  21
ENDBRANCH  19  20
ENDBRANCH  18  19
ENDBRANCH  16  18
ENDBRANCH  13  16
BRANCH  11  30
HETATM   30  O5  UNL     1      69.893  26.107  36.287  1.00  0.00    -0.389 OA
ATOM     31  H5  UNL     1      69.411  26.870  35.989  1.00  0.00     0.210 HD
ENDBRANCH  11  30
BRANCH   4  32
HETATM   32  C5  UNL     1      77.068  23.671  36.360  1.00  0.00     0.184 C 
HETATM   33  C6  UNL     1      77.029  22.359  35.668  1.00  0.00     0.189 C 
HETATM   34  C7  UNL     1      76.408  21.884  36.937  1.00  0.00     0.153 C 
HETATM   35  N1  UNL     1      77.181  22.923  37.598  1.00  0.00    -0.194 NA
BRANCH  32  36
HETATM   36  O1  UNL     1      78.223  24.398  36.049  1.00  0.00    -0.368 OA
ATOM     37  H1  UNL     1      78.566  24.226  35.180  1.00  0.00     0.212 HD
ENDBRANCH  32  36
BRANCH  33  38
HETATM   38  O2  UNL     1      76.381  22.177  34.504  1.00  0.00    -0.390 OA
ATOM     39  H2  UNL     1      76.159  21.314  34.175  1.00  0.00     0.210 HD
ENDBRANCH  33  38
BRANCH  35  40
HETATM   40  N2  UNL     1      78.495  22.451  37.810  1.00  0.00    -0.360 NA
ATOM     41  H22 UNL     1      78.493  21.816  38.609  1.00  0.00     0.171 HD
ATOM     42  H21 UNL     1      78.701  21.632  37.239  1.00  0.00     0.171 HD
ENDBRANCH  35  40
ENDBRANCH   4  32
BRANCH   6  43
HETATM   43  O4  UNL     1      75.165  27.471  36.564  1.00  0.00    -0.392 OA
ATOM     44  H4  UNL     1      74.606  28.231  36.451  1.00  0.00     0.210 HD
ENDBRANCH   6  43
BRANCH   5  45
HETATM   45  O3  UNL     1      74.730  24.494  38.450  1.00  0.00    -0.388 OA
ATOM     46  H3  UNL     1      73.803  24.633  38.297  1.00  0.00     0.210 HD
ENDBRANCH   5  45
TORSDOF 20
ENDMDL
MODEL 2
REMARK VINA RESULT: -6.096473636      8.181     10.940
REMARK  20 active torsions:
REMARK  status: ('A' for Active; 'I' for Inactive)
REMARK    1  A    between atoms: C4_4  and  C5_5 
REMARK    2  A    between atoms: C5_5  and  O1_6 
REMARK    3  A    between atoms: C6_8  and  O2_9 
REMARK    4  A    between atoms: N1_12  and  N2_13 
REMARK    5  A    between atoms: C8_16  and  O3_17 
REMARK    6  A    between atoms: C9_19  and  O4_20 
REMARK    7  A    between atoms: C12_26  and  O5_27 
REMARK    8  A    between atoms: C14_30  and  O6_31 
REMARK    9  A    between atoms: C14_30  and  C15_33 
REMARK   10  A    between atoms: C15_33  and  O8_35 
REMARK   11  A    between atoms: O8_35  and  C16_36 
REMARK   12  A    between atoms: C16_36  and  C17_37 
REMARK   13  A    between atoms: C17_37  and  C18_38 
REMARK   14  A    between atoms: C18_38  and  C19_39 
REMARK   15  A    between atoms: C19_39  and  C20_40 
REMARK   16  A    between atoms: C20_40  and  C21_41 
REMARK   17  A    between atoms: C21_41  and  C22_42 
REMARK   18  A    between atoms: C22_42  and  C23_43 
REMARK   19  A    between atoms: C23_43  and  C24_44 
REMARK   20  A    between atoms: C24_44  and  C25_45 
ROOT
HETATM    1  C1  UNL     1      65.997  17.975  30.173  1.00  0.00     0.024 C 
HETATM    2  C2  UNL     1      66.961  16.850  30.280  1.00  0.00     0.027 C 
HETATM    3  C3  UNL     1      67.126  16.548  31.734  1.00  0.00    -0.003 C 
HETATM    4  C4  UNL     1      66.818  15.413  32.337  1.00  0.00     0.002 C 
HETATM    5  C8  UNL     1      66.261  14.308  31.525  1.00  0.00     0.180 C 
HETATM    6  C9  UNL     1      65.597  14.767  30.244  1.00  0.00     0.162 C 
HETATM    7  C10 UNL     1      66.585  15.617  29.535  1.00  0.00     0.107 C 
HETATM    8  C11 UNL     1      66.275  15.902  28.090  1.00  0.00     0.276 C 
HETATM    9  F1  UNL     1      66.197  14.688  27.435  1.00  0.00    -0.203 F 
HETATM   10  F2  UNL     1      65.030  16.486  27.973  1.00  0.00    -0.203 F 
HETATM   11  C12 UNL     1      67.312  16.784  27.452  1.00  0.00     0.194 C 
HETATM   12  C13 UNL     1      68.524  16.993  28.294  1.00  0.00     0.087 C 
HETATM   13  C14 UNL     1      68.321  17.287  29.731  1.00  0.00     0.159 C 
ENDROOT
BRANCH  13  14
HETATM   14  O6  UNL     1      69.233  16.453  30.444  1.00  0.00    -0.378 OA
ATOM     15  H6  UNL     1      69.242  15.658  29.924  1.00  0.00     0.211 HD
ENDBRANCH  13  14
BRANCH  13  16
HETATM   16  C15 UNL     1      68.648  18.694  30.061  1.00  0.00     0.294 C 
HETATM   17  O7  UNL     1      68.699  19.074  31.253  1.00  0.00    -0.262 OA
BRANCH  16  18
HETATM   18  O8  UNL     1      68.907  19.622  29.080  1.00  0.00    -0.319 OA
BRANCH  18  19
HETATM   19  C16 UNL     1      69.728  20.739  29.158  1.00  0.00     0.178 C 
BRANCH  19  20
HETATM   20  C17 UNL     1      71.012  20.624  28.407  1.00  0.00     0.027 C 
BRANCH  20  21
HETATM   21  C18 UNL     1      71.868  21.870  28.469  1.00  0.00     0.002 C 
BRANCH  21  22
HETATM   22  C19 UNL     1      73.296  21.561  28.878  1.00  0.00     0.000 C 
BRANCH  22  23
HETATM   23  C20 UNL     1      74.281  22.149  27.958  1.00  0.00     0.000 C 
BRANCH  23  24
HETATM   24  C21 UNL     1      74.162  23.539  27.508  1.00  0.00     0.000 C 
BRANCH  24  25
HETATM   25  C22 UNL     1      74.948  24.088  26.398  1.00  0.00     0.000 C 
BRANCH  25  26
HETATM   26  C23 UNL     1      75.649  25.385  26.567  1.00  0.00     0.002 C 
BRANCH  26  27
HETATM   27  C24 UNL     1      76.185  25.423  28.020  1.00  0.00     0.031 C 
BRANCH  27  28
HETATM   28  C25 UNL     1      77.573  24.851  28.031  1.00  0.00     0.222 C 
HETATM   29  F3  UNL     1      77.604  23.584  28.593  1.00  0.00    -0.255 F 
ENDBRANCH  27  28
ENDBRANCH  26  27
ENDBRANCH  25  26
ENDBRANCH  24  25
ENDBRANCH  23  24
ENDBRANCH  22  23
ENDBRANCH  21  22
ENDBRANCH  20  21
ENDBRANCH  19  20
ENDBRANCH  18  19
ENDBRANCH  16  18
ENDBRANCH  13  16
BRANCH  11  30
HETATM   30  O5  UNL     1      67.748  16.125  26.284  1.00  0.00    -0.389 OA
ATOM     31  H5  UNL     1      67.887  16.794  25.625  1.00  0.00     0.210 HD
ENDBRANCH  11  30
BRANCH   4  32
HETATM   32  C5  UNL     1      67.061  15.327  33.788  1.00  0.00     0.184 C 
HETATM   33  C6  UNL     1      68.166  16.127  34.373  1.00  0.00     0.189 C 
HETATM   34  C7  UNL     1      69.027  15.019  33.869  1.00  0.00     0.153 C 
HETATM   35  N1  UNL     1      67.873  14.156  34.064  1.00  0.00    -0.194 NA
BRANCH  32  36
HETATM   36  O1  UNL     1      65.898  15.385  34.565  1.00  0.00    -0.368 OA
ATOM     37  H1  UNL     1      65.590  14.537  34.864  1.00  0.00     0.212 HD
ENDBRANCH  32  36
BRANCH  33  38
HETATM   38  O2  UNL     1      68.420  17.391  33.992  1.00  0.00    -0.390 OA
ATOM     39  H2  UNL     1      68.763  17.604  33.132  1.00  0.00     0.210 HD
ENDBRANCH  33  38
BRANCH  35  40
HETATM   40  N2  UNL     1      67.809  13.778  35.423  1.00  0.00    -0.360 NA
ATOM     41  H22 UNL     1      68.276  12.879  35.538  1.00  0.00     0.171 HD
ATOM     42  H21 UNL     1      68.576  14.176  35.964  1.00  0.00     0.171 HD
ENDBRANCH  35  40
ENDBRANCH   4  32
BRANCH   6  43
HETATM   43  O4  UNL     1      64.371  15.333  30.492  1.00  0.00    -0.392 OA
ATOM     44  H4  UNL     1      64.454  16.251  30.722  1.00  0.00     0.210 HD
ENDBRANCH   6  43
BRANCH   5  45
HETATM   45  O3  UNL     1      67.333  13.483  31.135  1.00  0.00    -0.388 OA
ATOM     46  H3  UNL     1      67.350  12.736  31.722  1.00  0.00     0.210 HD
ENDBRANCH   5  45
TORSDOF 20
ENDMDL
MODEL 3
REMARK VINA RESULT: -6.080524483      8.323     11.096
REMARK  20 active torsions:
REMARK  status: ('A' for Active; 'I' for Inactive)
REMARK    1  A    between atoms: C4_4  and  C5_5 
REMARK    2  A    between atoms: C5_5  and  O1_6 
REMARK    3  A    between atoms: C6_8  and  O2_9 
REMARK    4  A    between atoms: N1_12  and  N2_13 
REMARK    5  A    between atoms: C8_16  and  O3_17 
REMARK    6  A    between atoms: C9_19  and  O4_20 
REMARK    7  A    between atoms: C12_26  and  O5_27 
REMARK    8  A    between atoms: C14_30  and  O6_31 
REMARK    9  A    between atoms: C14_30  and  C15_33 
REMARK   10  A    between atoms: C15_33  and  O8_35 
REMARK   11  A    between atoms: O8_35  and  C16_36 
REMARK   12  A    between atoms: C16_36  and  C17_37 
REMARK   13  A    between atoms: C17_37  and  C18_38 
REMARK   14  A    between atoms: C18_38  and  C19_39 
REMARK   15  A    between atoms: C19_39  and  C20_40 
REMARK   16  A    between atoms: C20_40  and  C21_41 
REMARK   17  A    between atoms: C21_41  and  C22_42 
REMARK   18  A    between atoms: C22_42  and  C23_43 
REMARK   19  A    between atoms: C23_43  and  C24_44 
REMARK   20  A    between atoms: C24_44  and  C25_45 
ROOT
HETATM    1  C1  UNL     1      66.019  17.924  30.218  1.00  0.00     0.024 C 
HETATM    2  C2  UNL     1      66.981  16.794  30.277  1.00  0.00     0.027 C 
HETATM    3  C3  UNL     1      67.146  16.432  31.716  1.00  0.00    -0.003 C 
HETATM    4  C4  UNL     1      66.837  15.272  32.271  1.00  0.00     0.002 C 
HETATM    5  C8  UNL     1      66.279  14.203  31.414  1.00  0.00     0.180 C 
HETATM    6  C9  UNL     1      65.614  14.717  30.154  1.00  0.00     0.162 C 
HETATM    7  C10 UNL     1      66.603  15.595  29.480  1.00  0.00     0.107 C 
HETATM    8  C11 UNL     1      66.292  15.940  28.049  1.00  0.00     0.276 C 
HETATM    9  F1  UNL     1      66.212  14.756  27.343  1.00  0.00    -0.203 F 
HETATM   10  F2  UNL     1      65.048  16.531  27.958  1.00  0.00    -0.203 F 
HETATM   11  C12 UNL     1      67.330  16.847  27.449  1.00  0.00     0.194 C 
HETATM   12  C13 UNL     1      68.543  17.020  28.298  1.00  0.00     0.087 C 
HETATM   13  C14 UNL     1      68.341  17.252  29.746  1.00  0.00     0.159 C 
ENDROOT
BRANCH  13  14
HETATM   14  O6  UNL     1      69.252  16.388  30.423  1.00  0.00    -0.378 OA
ATOM     15  H6  UNL     1      69.649  15.901  29.711  1.00  0.00     0.211 HD
ENDBRANCH  13  14
BRANCH  13  16
HETATM   16  C15 UNL     1      68.670  18.644  30.135  1.00  0.00     0.294 C 
HETATM   17  O7  UNL     1      68.714  18.975  31.342  1.00  0.00    -0.262 OA
BRANCH  16  18
HETATM   18  O8  UNL     1      68.938  19.609  29.194  1.00  0.00    -0.319 OA
BRANCH  18  19
HETATM   19  C16 UNL     1      69.733  20.740  29.335  1.00  0.00     0.178 C 
BRANCH  19  20
HETATM   20  C17 UNL     1      70.655  21.003  28.192  1.00  0.00     0.027 C 
BRANCH  20  21
HETATM   21  C18 UNL     1      72.119  20.852  28.544  1.00  0.00     0.002 C 
BRANCH  21  22
HETATM   22  C19 UNL     1      72.857  22.176  28.488  1.00  0.00     0.000 C 
BRANCH  22  23
HETATM   23  C20 UNL     1      74.280  22.011  28.152  1.00  0.00     0.000 C 
BRANCH  23  24
HETATM   24  C21 UNL     1      74.916  22.835  27.121  1.00  0.00     0.000 C 
BRANCH  24  25
HETATM   25  C22 UNL     1      74.571  24.244  26.900  1.00  0.00     0.000 C 
BRANCH  25  26
HETATM   26  C23 UNL     1      75.651  25.240  26.696  1.00  0.00     0.002 C 
BRANCH  26  27
HETATM   27  C24 UNL     1      76.378  25.404  28.054  1.00  0.00     0.031 C 
BRANCH  27  28
HETATM   28  C25 UNL     1      77.841  25.139  27.846  1.00  0.00     0.222 C 
HETATM   29  F3  UNL     1      78.112  23.783  27.750  1.00  0.00    -0.255 F 
ENDBRANCH  27  28
ENDBRANCH  26  27
ENDBRANCH  25  26
ENDBRANCH  24  25
ENDBRANCH  23  24
ENDBRANCH  22  23
ENDBRANCH  21  22
ENDBRANCH  20  21
ENDBRANCH  19  20
ENDBRANCH  18  19
ENDBRANCH  16  18
ENDBRANCH  13  16
BRANCH  11  30
HETATM   30  O5  UNL     1      67.765  16.238  26.253  1.00  0.00    -0.389 OA
ATOM     31  H5  UNL     1      67.366  16.718  25.538  1.00  0.00     0.210 HD
ENDBRANCH  11  30
BRANCH   4  32
HETATM   32  C5  UNL     1      67.081  15.125  33.718  1.00  0.00     0.184 C 
HETATM   33  C6  UNL     1      65.914  15.051  34.633  1.00  0.00     0.189 C 
HETATM   34  C7  UNL     1      65.907  16.534  34.491  1.00  0.00     0.153 C 
HETATM   35  N1  UNL     1      67.344  16.432  34.290  1.00  0.00    -0.194 NA
BRANCH  32  36
HETATM   36  O1  UNL     1      68.062  14.178  34.035  1.00  0.00    -0.368 OA
ATOM     37  H1  UNL     1      68.850  14.550  34.415  1.00  0.00     0.212 HD
ENDBRANCH  32  36
BRANCH  33  38
HETATM   38  O2  UNL     1      64.808  14.350  34.333  1.00  0.00    -0.390 OA
ATOM     39  H2  UNL     1      63.942  14.621  34.613  1.00  0.00     0.210 HD
ENDBRANCH  33  38
BRANCH  35  40
HETATM   40  N2  UNL     1      67.976  16.339  35.549  1.00  0.00    -0.360 NA
ATOM     41  H22 UNL     1      68.804  16.934  35.548  1.00  0.00     0.171 HD
ATOM     42  H21 UNL     1      67.581  16.996  36.222  1.00  0.00     0.171 HD
ENDBRANCH  35  40
ENDBRANCH   4  32
BRANCH   6  43
HETATM   43  O4  UNL     1      64.389  15.274  30.426  1.00  0.00    -0.392 OA
ATOM     44  H4  UNL     1      64.303  16.132  30.029  1.00  0.00     0.210 HD
ENDBRANCH   6  43
BRANCH   5  45
HETATM   45  O3  UNL     1      67.349  13.394  30.989  1.00  0.00    -0.388 OA
ATOM     46  H3  UNL     1      67.049  12.889  30.242  1.00  0.00     0.210 HD
ENDBRANCH   5  45
TORSDOF 20
ENDMDL
MODEL 4
REMARK VINA RESULT: -5.995662585      8.599     10.731
REMARK  20 active torsions:
REMARK  status: ('A' for Active; 'I' for Inactive)
REMARK    1  A    between atoms: C4_4  and  C5_5 
REMARK    2  A    between atoms: C5_5  and  O1_6 
REMARK    3  A    between atoms: C6_8  and  O2_9 
REMARK    4  A    between atoms: N1_12  and  N2_13 
REMARK    5  A    between atoms: C8_16  and  O3_17 
REMARK    6  A    between atoms: C9_19  and  O4_20 
REMARK    7  A    between atoms: C12_26  and  O5_27 
REMARK    8  A    between atoms: C14_30  and  O6_31 
REMARK    9  A    between atoms: C14_30  and  C15_33 
REMARK   10  A    between atoms: C15_33  and  O8_35 
REMARK   11  A    between atoms: O8_35  and  C16_36 
REMARK   12  A    between atoms: C16_36  and  C17_37 
REMARK   13  A    between atoms: C17_37  and  C18_38 
REMARK   14  A    between atoms: C18_38  and  C19_39 
REMARK   15  A    between atoms: C19_39  and  C20_40 
REMARK   16  A    between atoms: C20_40  and  C21_41 
REMARK   17  A    between atoms: C21_41  and  C22_42 
REMARK   18  A    between atoms: C22_42  and  C23_43 
REMARK   19  A    between atoms: C23_43  and  C24_44 
REMARK   20  A    between atoms: C24_44  and  C25_45 
ROOT
HETATM    1  C1  UNL     1      67.797  17.561  30.656  1.00  0.00     0.024 C 
HETATM    2  C2  UNL     1      67.441  16.135  30.870  1.00  0.00     0.027 C 
HETATM    3  C3  UNL     1      68.584  15.499  31.589  1.00  0.00    -0.003 C 
HETATM    4  C4  UNL     1      68.546  14.956  32.794  1.00  0.00     0.002 C 
HETATM    5  C8  UNL     1      67.261  14.952  33.528  1.00  0.00     0.180 C 
HETATM    6  C9  UNL     1      66.299  16.033  33.080  1.00  0.00     0.162 C 
HETATM    7  C10 UNL     1      66.169  15.901  31.607  1.00  0.00     0.107 C 
HETATM    8  C11 UNL     1      65.012  16.641  30.992  1.00  0.00     0.276 C 
HETATM    9  F1  UNL     1      63.855  16.161  31.574  1.00  0.00    -0.203 F 
HETATM   10  F2  UNL     1      65.079  17.982  31.307  1.00  0.00    -0.203 F 
HETATM   11  C12 UNL     1      64.965  16.472  29.498  1.00  0.00     0.194 C 
HETATM   12  C13 UNL     1      65.908  15.441  28.978  1.00  0.00     0.087 C 
HETATM   13  C14 UNL     1      67.288  15.438  29.516  1.00  0.00     0.159 C 
ENDROOT
BRANCH  13  14
HETATM   14  O6  UNL     1      67.595  14.079  29.824  1.00  0.00    -0.378 OA
ATOM     15  H6  UNL     1      66.957  13.865  30.493  1.00  0.00     0.211 HD
ENDBRANCH  13  14
BRANCH  13  16
HETATM   16  C15 UNL     1      68.274  15.906  28.514  1.00  0.00     0.294 C 
HETATM   17  O7  UNL     1      69.077  15.102  27.987  1.00  0.00    -0.262 OA
BRANCH  16  18
HETATM   18  O8  UNL     1      68.340  17.224  28.130  1.00  0.00    -0.319 OA
BRANCH  18  19
HETATM   19  C16 UNL     1      69.306  17.835  27.342  1.00  0.00     0.178 C 
BRANCH  19  20
HETATM   20  C17 UNL     1      70.250  18.721  28.084  1.00  0.00     0.027 C 
BRANCH  20  21
HETATM   21  C18 UNL     1      69.630  20.021  28.546  1.00  0.00     0.002 C 
BRANCH  21  22
HETATM   22  C19 UNL     1      70.370  21.230  28.006  1.00  0.00     0.000 C 
BRANCH  22  23
HETATM   23  C20 UNL     1      71.496  21.627  28.865  1.00  0.00     0.000 C 
BRANCH  23  24
HETATM   24  C21 UNL     1      72.880  21.325  28.487  1.00  0.00     0.000 C 
BRANCH  24  25
HETATM   25  C22 UNL     1      73.836  22.357  28.070  1.00  0.00     0.000 C 
BRANCH  25  26
HETATM   26  C23 UNL     1      73.881  23.650  28.795  1.00  0.00     0.002 C 
BRANCH  26  27
HETATM   27  C24 UNL     1      74.742  24.617  27.944  1.00  0.00     0.031 C 
BRANCH  27  28
HETATM   28  C25 UNL     1      74.437  24.376  26.494  1.00  0.00     0.222 C 
HETATM   29  F3  UNL     1      75.582  24.090  25.767  1.00  0.00    -0.255 F 
ENDBRANCH  27  28
ENDBRANCH  26  27
ENDBRANCH  25  26
ENDBRANCH  24  25
ENDBRANCH  23  24
ENDBRANCH  22  23
ENDBRANCH  21  22
ENDBRANCH  20  21
ENDBRANCH  19  20
ENDBRANCH  18  19
ENDBRANCH  16  18
ENDBRANCH  13  16
BRANCH  11  30
HETATM   30  O5  UNL     1      63.667  16.022  29.178  1.00  0.00    -0.389 OA
ATOM     31  H5  UNL     1      63.201  16.762  28.810  1.00  0.00     0.210 HD
ENDBRANCH  11  30
BRANCH   4  32
HETATM   32  C5  UNL     1      69.797  14.381  33.321  1.00  0.00     0.184 C 
HETATM   33  C6  UNL     1      70.715  13.693  32.379  1.00  0.00     0.189 C 
HETATM   34  C7  UNL     1      69.777  12.547  32.545  1.00  0.00     0.153 C 
HETATM   35  N1  UNL     1      69.518  13.070  33.877  1.00  0.00    -0.194 NA
BRANCH  32  36
HETATM   36  O1  UNL     1      70.481  15.220  34.207  1.00  0.00    -0.368 OA
ATOM     37  H1  UNL     1      70.986  14.758  34.866  1.00  0.00     0.212 HD
ENDBRANCH  32  36
BRANCH  33  38
HETATM   38  O2  UNL     1      70.972  14.167  31.148  1.00  0.00    -0.390 OA
ATOM     39  H2  UNL     1      70.364  14.730  30.682  1.00  0.00     0.210 HD
ENDBRANCH  33  38
BRANCH  35  40
HETATM   40  N2  UNL     1      70.544  12.637  34.746  1.00  0.00    -0.360 NA
ATOM     41  H22 UNL     1      70.502  11.621  34.825  1.00  0.00     0.171 HD
ATOM     42  H21 UNL     1      71.426  12.500  34.253  1.00  0.00     0.171 HD
ENDBRANCH  35  40
ENDBRANCH   4  32
BRANCH   6  43
HETATM   43  O4  UNL     1      66.678  17.265  33.551  1.00  0.00    -0.392 OA
ATOM     44  H4  UNL     1      66.071  17.942  33.276  1.00  0.00     0.210 HD
ENDBRANCH   6  43
BRANCH   5  45
HETATM   45  O3  UNL     1      66.622  13.727  33.263  1.00  0.00    -0.388 OA
ATOM     46  H3  UNL     1      66.701  13.186  34.040  1.00  0.00     0.210 HD
ENDBRANCH   5  45
TORSDOF 20
ENDMDL
MODEL 5
REMARK VINA RESULT: -5.935530102      8.349     11.171
REMARK  20 active torsions:
REMARK  status: ('A' for Active; 'I' for Inactive)
REMARK    1  A    between atoms: C4_4  and  C5_5 
REMARK    2  A    between atoms: C5_5  and  O1_6 
REMARK    3  A    between atoms: C6_8  and  O2_9 
REMARK    4  A    between atoms: N1_12  and  N2_13 
REMARK    5  A    between atoms: C8_16  and  O3_17 
REMARK    6  A    between atoms: C9_19  and  O4_20 
REMARK    7  A    between atoms: C12_26  and  O5_27 
REMARK    8  A    between atoms: C14_30  and  O6_31 
REMARK    9  A    between atoms: C14_30  and  C15_33 
REMARK   10  A    between atoms: C15_33  and  O8_35 
REMARK   11  A    between atoms: O8_35  and  C16_36 
REMARK   12  A    between atoms: C16_36  and  C17_37 
REMARK   13  A    between atoms: C17_37  and  C18_38 
REMARK   14  A    between atoms: C18_38  and  C19_39 
REMARK   15  A    between atoms: C19_39  and  C20_40 
REMARK   16  A    between atoms: C20_40  and  C21_41 
REMARK   17  A    between atoms: C21_41  and  C22_42 
REMARK   18  A    between atoms: C22_42  and  C23_43 
REMARK   19  A    between atoms: C23_43  and  C24_44 
REMARK   20  A    between atoms: C24_44  and  C25_45 
ROOT
HETATM    1  C1  UNL     1      66.017  17.954  30.165  1.00  0.00     0.024 C 
HETATM    2  C2  UNL     1      66.968  16.815  30.241  1.00  0.00     0.027 C 
HETATM    3  C3  UNL     1      67.158  16.496  31.687  1.00  0.00    -0.003 C 
HETATM    4  C4  UNL     1      66.847  15.358  32.284  1.00  0.00     0.002 C 
HETATM    5  C8  UNL     1      66.260  14.269  31.472  1.00  0.00     0.180 C 
HETATM    6  C9  UNL     1      65.576  14.751  30.210  1.00  0.00     0.162 C 
HETATM    7  C10 UNL     1      66.561  15.596  29.490  1.00  0.00     0.107 C 
HETATM    8  C11 UNL     1      66.224  15.900  28.055  1.00  0.00     0.276 C 
HETATM    9  F1  UNL     1      66.117  14.695  27.389  1.00  0.00    -0.203 F 
HETATM   10  F2  UNL     1      64.986  16.502  27.970  1.00  0.00    -0.203 F 
HETATM   11  C12 UNL     1      67.260  16.775  27.406  1.00  0.00     0.194 C 
HETATM   12  C13 UNL     1      68.492  16.960  28.225  1.00  0.00     0.087 C 
HETATM   13  C14 UNL     1      68.322  17.240  29.669  1.00  0.00     0.159 C 
ENDROOT
BRANCH  13  14
HETATM   14  O6  UNL     1      69.237  16.386  30.354  1.00  0.00    -0.378 OA
ATOM     15  H6  UNL     1      68.998  16.508  31.264  1.00  0.00     0.211 HD
ENDBRANCH  13  14
BRANCH  13  16
HETATM   16  C15 UNL     1      68.675  18.639  30.007  1.00  0.00     0.294 C 
HETATM   17  O7  UNL     1      68.733  19.011  31.201  1.00  0.00    -0.262 OA
BRANCH  16  18
HETATM   18  O8  UNL     1      68.950  19.567  29.031  1.00  0.00    -0.319 OA
BRANCH  18  19
HETATM   19  C16 UNL     1      70.190  19.921  28.516  1.00  0.00     0.178 C 
BRANCH  19  20
HETATM   20  C17 UNL     1      70.446  21.390  28.455  1.00  0.00     0.027 C 
BRANCH  20  21
HETATM   21  C18 UNL     1      70.456  22.064  29.809  1.00  0.00     0.002 C 
BRANCH  21  22
HETATM   22  C19 UNL     1      71.526  21.494  30.722  1.00  0.00     0.000 C 
BRANCH  22  23
HETATM   23  C20 UNL     1      72.885  21.830  30.269  1.00  0.00     0.000 C 
BRANCH  23  24
HETATM   24  C21 UNL     1      73.245  23.204  29.908  1.00  0.00     0.000 C 
BRANCH  24  25
HETATM   25  C22 UNL     1      73.795  23.567  28.597  1.00  0.00     0.000 C 
BRANCH  25  26
HETATM   26  C23 UNL     1      74.478  22.535  27.779  1.00  0.00     0.002 C 
BRANCH  26  27
HETATM   27  C24 UNL     1      75.254  23.281  26.665  1.00  0.00     0.031 C 
BRANCH  27  28
HETATM   28  C25 UNL     1      74.579  24.598  26.415  1.00  0.00     0.222 C 
HETATM   29  F3  UNL     1      75.318  25.404  25.563  1.00  0.00    -0.255 F 
ENDBRANCH  27  28
ENDBRANCH  26  27
ENDBRANCH  25  26
ENDBRANCH  24  25
ENDBRANCH  23  24
ENDBRANCH  22  23
ENDBRANCH  21  22
ENDBRANCH  20  21
ENDBRANCH  19  20
ENDBRANCH  18  19
ENDBRANCH  16  18
ENDBRANCH  13  16
BRANCH  11  30
HETATM   30  O5  UNL     1      67.663  16.123  26.222  1.00  0.00    -0.389 OA
ATOM     31  H5  UNL     1      68.576  15.886  26.334  1.00  0.00     0.210 HD
ENDBRANCH  11  30
BRANCH   4  32
HETATM   32  C5  UNL     1      67.120  15.253  33.730  1.00  0.00     0.184 C 
HETATM   33  C6  UNL     1      65.971  15.210  34.669  1.00  0.00     0.189 C 
HETATM   34  C7  UNL     1      65.965  16.689  34.483  1.00  0.00     0.153 C 
HETATM   35  N1  UNL     1      67.398  16.576  34.257  1.00  0.00    -0.194 NA
BRANCH  32  36
HETATM   36  O1  UNL     1      68.104  14.313  34.056  1.00  0.00    -0.368 OA
ATOM     37  H1  UNL     1      67.851  13.711  34.747  1.00  0.00     0.212 HD
ENDBRANCH  32  36
BRANCH  33  38
HETATM   38  O2  UNL     1      64.856  14.505  34.412  1.00  0.00    -0.390 OA
ATOM     39  H2  UNL     1      63.993  14.804  34.672  1.00  0.00     0.210 HD
ENDBRANCH  33  38
BRANCH  35  40
HETATM   40  N2  UNL     1      68.054  16.518  35.506  1.00  0.00    -0.360 NA
ATOM     41  H22 UNL     1      68.591  15.652  35.556  1.00  0.00     0.171 HD
ATOM     42  H21 UNL     1      68.952  17.001  35.486  1.00  0.00     0.171 HD
ENDBRANCH  35  40
ENDBRANCH   4  32
BRANCH   6  43
HETATM   43  O4  UNL     1      64.363  15.331  30.490  1.00  0.00    -0.392 OA
ATOM     44  H4  UNL     1      64.347  15.692  31.368  1.00  0.00     0.210 HD
ENDBRANCH   6  43
BRANCH   5  45
HETATM   45  O3  UNL     1      67.312  13.435  31.052  1.00  0.00    -0.388 OA
ATOM     46  H3  UNL     1      67.044  12.536  31.201  1.00  0.00     0.210 HD
ENDBRANCH   5  45
TORSDOF 20
ENDMDL
