MODEL 1
REMARK VINA RESULT: -7.467484198      0.000      0.000
REMARK  19 active torsions:
REMARK  status: ('A' for Active; 'I' for Inactive)
REMARK       I    between atoms: C1_2  and  N4_24 
REMARK    1  A    between atoms: N2_3  and  C2_5 
REMARK    2  A    between atoms: C2_5  and  C3_6 
REMARK    3  A    between atoms: C3_6  and  C4_7 
REMARK    4  A    between atoms: C4_7  and  C5_8 
REMARK    5  A    between atoms: C5_8  and  C6_9 
REMARK    6  A    between atoms: C6_9  and  N3_10 
REMARK    7  A    between atoms: N3_10  and  C7_11 
REMARK    8  A    between atoms: N3_10  and  C9_14 
REMARK    9  A    between atoms: C7_11  and  C8_12 
REMARK   10  A    between atoms: C12_17  and  O1_18 
REMARK   11  A    between atoms: C14_21  and  O2_22 
REMARK   12  A    between atoms: N4_24  and  C15_26 
REMARK   13  A    between atoms: C15_26  and  C16_27 
REMARK   14  A    between atoms: C16_27  and  N5_28 
REMARK   15  A    between atoms: C17_29  and  O3_30 
REMARK   16  A    between atoms: C18_32  and  O4_33 
REMARK   17  A    between atoms: C19_35  and  O5_36 
REMARK   18  A    between atoms: C20_38  and  O6_39 
REMARK   19  A    between atoms: C21_41  and  C22_42 
ROOT
HETATM    1  N1  UNL     1      69.128  15.794  26.298  1.00  0.00    -0.064 NA
HETATM    2  C1  UNL     1      68.510  16.758  27.186  1.00  0.00     0.187 C 
HETATM    3  N2  UNL     1      69.231  17.642  27.703  1.00  0.00    -0.344 N 
ATOM      4  H2  UNL     1      70.198  17.534  27.397  1.00  0.00     0.167 HD
HETATM    5  N4  UNL     1      67.144  16.670  27.433  1.00  0.00    -0.363 N 
ATOM      6  H4  UNL     1      66.623  17.535  27.288  1.00  0.00     0.162 HD
ENDROOT
BRANCH   3   7
HETATM    7  C2  UNL     1      69.115  18.723  28.563  1.00  0.00     0.063 C 
BRANCH   7   8
HETATM    8  C3  UNL     1      69.979  19.917  28.354  1.00  0.00     0.045 C 
BRANCH   8   9
HETATM    9  C4  UNL     1      69.550  20.952  29.455  1.00  0.00     0.010 C 
BRANCH   9  10
HETATM   10  C5  UNL     1      70.754  21.739  29.817  1.00  0.00     0.045 C 
BRANCH  10  11
HETATM   11  C6  UNL     1      72.061  21.135  29.616  1.00  0.00     0.069 C 
BRANCH  11  12
HETATM   12  N3  UNL     1      73.316  21.640  29.947  1.00  0.00    -0.337 N 
BRANCH  12  13
HETATM   13  C7  UNL     1      74.145  21.504  31.071  1.00  0.00     0.084 C 
BRANCH  13  14
HETATM   14  C8  UNL     1      73.658  21.659  32.449  1.00  0.00     0.159 C 
HETATM   15 CL1  UNL     1      72.769  23.247  32.540  1.00  0.00    -0.125 Cl
ENDBRANCH  13  14
ENDBRANCH  12  13
BRANCH  12  16
HETATM   16  C9  UNL     1      73.902  22.497  28.889  1.00  0.00     0.071 A 
HETATM   17  C10 UNL     1      73.778  23.834  29.020  1.00  0.00     0.035 A 
HETATM   18  C11 UNL     1      74.331  24.677  28.056  1.00  0.00     0.039 A 
HETATM   19  C12 UNL     1      74.998  24.170  26.980  1.00  0.00     0.068 A 
HETATM   20  C13 UNL     1      75.125  22.818  26.846  1.00  0.00     0.075 A 
HETATM   21  C14 UNL     1      74.568  21.975  27.815  1.00  0.00     0.095 A 
BRANCH  19  22
HETATM   22  O1  UNL     1      75.533  25.060  26.040  1.00  0.00    -0.361 OA
ATOM     23  H1  UNL     1      76.059  25.788  26.349  1.00  0.00     0.217 HD
ENDBRANCH  19  22
BRANCH  21  24
HETATM   24  O2  UNL     1      74.705  20.603  27.664  1.00  0.00    -0.358 OA
ATOM     25  H2  UNL     1      75.159  20.240  26.913  1.00  0.00     0.217 HD
ENDBRANCH  21  24
ENDBRANCH  12  16
ENDBRANCH  11  12
ENDBRANCH  10  11
ENDBRANCH   9  10
ENDBRANCH   8   9
ENDBRANCH   7   8
ENDBRANCH   3   7
BRANCH   5  26
HETATM   26  C15 UNL     1      66.353  15.550  27.862  1.00  0.00     0.152 C 
BRANCH  26  27
HETATM   27  C16 UNL     1      67.057  14.827  28.964  1.00  0.00     0.296 C 
BRANCH  27  28
HETATM   28  N5  UNL     1      66.470  14.989  30.280  1.00  0.00     0.134 N 
HETATM   29  C17 UNL     1      67.128  14.049  31.166  1.00  0.00     0.389 C 
HETATM   30  C18 UNL     1      68.521  14.379  31.538  1.00  0.00     0.208 C 
HETATM   31  C19 UNL     1      68.600  15.735  32.148  1.00  0.00     0.182 C 
HETATM   32  C20 UNL     1      67.887  16.744  31.329  1.00  0.00     0.188 C 
HETATM   33  C21 UNL     1      66.582  16.340  30.726  1.00  0.00     0.321 C 
BRANCH  29  34
HETATM   34  O3  UNL     1      67.145  12.829  30.474  1.00  0.00    -0.366 OA
ATOM     35  H3  UNL     1      67.742  12.270  30.958  1.00  0.00     0.212 HD
ENDBRANCH  29  34
BRANCH  30  36
HETATM   36  O4  UNL     1      69.476  14.142  30.550  1.00  0.00    -0.388 OA
ATOM     37  H4  UNL     1      69.197  13.572  29.843  1.00  0.00     0.210 HD
ENDBRANCH  30  36
BRANCH  31  38
HETATM   38  O5  UNL     1      68.078  15.684  33.433  1.00  0.00    -0.390 OA
ATOM     39  H5  UNL     1      68.233  16.516  33.864  1.00  0.00     0.210 HD
ENDBRANCH  31  38
BRANCH  32  40
HETATM   40  O6  UNL     1      67.612  17.919  32.079  1.00  0.00    -0.391 OA
ATOM     41  H6  UNL     1      66.707  17.941  32.368  1.00  0.00     0.210 HD
ENDBRANCH  32  40
BRANCH  33  42
HETATM   42  C22 UNL     1      65.403  16.739  31.622  1.00  0.00     0.389 C 
HETATM   43  F1  UNL     1      64.768  17.856  31.071  1.00  0.00    -0.212 F 
HETATM   44  F2  UNL     1      64.458  15.766  31.730  1.00  0.00    -0.212 F 
ENDBRANCH  33  42
ENDBRANCH  27  28
ENDBRANCH  26  27
ENDBRANCH   5  26
TORSDOF 19
ENDMDL
MODEL 2
REMARK VINA RESULT: -7.409200084      2.405      3.709
REMARK  19 active torsions:
REMARK  status: ('A' for Active; 'I' for Inactive)
REMARK       I    between atoms: C1_2  and  N4_24 
REMARK    1  A    between atoms: N2_3  and  C2_5 
REMARK    2  A    between atoms: C2_5  and  C3_6 
REMARK    3  A    between atoms: C3_6  and  C4_7 
REMARK    4  A    between atoms: C4_7  and  C5_8 
REMARK    5  A    between atoms: C5_8  and  C6_9 
REMARK    6  A    between atoms: C6_9  and  N3_10 
REMARK    7  A    between atoms: N3_10  and  C7_11 
REMARK    8  A    between atoms: N3_10  and  C9_14 
REMARK    9  A    between atoms: C7_11  and  C8_12 
REMARK   10  A    between atoms: C12_17  and  O1_18 
REMARK   11  A    between atoms: C14_21  and  O2_22 
REMARK   12  A    between atoms: N4_24  and  C15_26 
REMARK   13  A    between atoms: C15_26  and  C16_27 
REMARK   14  A    between atoms: C16_27  and  N5_28 
REMARK   15  A    between atoms: C17_29  and  O3_30 
REMARK   16  A    between atoms: C18_32  and  O4_33 
REMARK   17  A    between atoms: C19_35  and  O5_36 
REMARK   18  A    between atoms: C20_38  and  O6_39 
REMARK   19  A    between atoms: C21_41  and  C22_42 
ROOT
HETATM    1  N1  UNL     1      71.874  18.334  27.451  1.00  0.00    -0.064 NA
HETATM    2  C1  UNL     1      70.935  19.376  27.813  1.00  0.00     0.187 C 
HETATM    3  N2  UNL     1      71.349  20.556  27.881  1.00  0.00    -0.344 N 
ATOM      4  H2  UNL     1      72.344  20.596  27.658  1.00  0.00     0.167 HD
HETATM    5  N4  UNL     1      69.612  19.033  28.071  1.00  0.00    -0.363 N 
ATOM      6  H4  UNL     1      68.918  19.572  27.553  1.00  0.00     0.162 HD
ENDROOT
BRANCH   3   7
HETATM    7  C2  UNL     1      70.868  21.824  28.167  1.00  0.00     0.063 C 
BRANCH   7   8
HETATM    8  C3  UNL     1      71.070  22.390  29.529  1.00  0.00     0.045 C 
BRANCH   8   9
HETATM    9  C4  UNL     1      72.511  21.944  29.967  1.00  0.00     0.010 C 
BRANCH   9  10
HETATM   10  C5  UNL     1      73.327  23.172  30.126  1.00  0.00     0.045 C 
BRANCH  10  11
HETATM   11  C6  UNL     1      73.751  23.880  28.929  1.00  0.00     0.069 C 
BRANCH  11  12
HETATM   12  N3  UNL     1      74.719  23.516  27.997  1.00  0.00    -0.337 N 
BRANCH  12  13
HETATM   13  C7  UNL     1      74.881  22.401  27.160  1.00  0.00     0.084 C 
BRANCH  13  14
HETATM   14  C8  UNL     1      74.966  21.024  27.668  1.00  0.00     0.159 C 
HETATM   15 CL1  UNL     1      76.496  20.895  28.648  1.00  0.00    -0.125 Cl
ENDBRANCH  13  14
ENDBRANCH  12  13
BRANCH  12  16
HETATM   16  C9  UNL     1      75.802  24.517  27.853  1.00  0.00     0.071 A 
HETATM   17  C10 UNL     1      76.920  24.346  28.588  1.00  0.00     0.035 A 
HETATM   18  C11 UNL     1      77.971  25.255  28.470  1.00  0.00     0.039 A 
HETATM   19  C12 UNL     1      77.888  26.316  27.618  1.00  0.00     0.068 A 
HETATM   20  C13 UNL     1      76.758  26.491  26.872  1.00  0.00     0.075 A 
HETATM   21  C14 UNL     1      75.704  25.578  26.995  1.00  0.00     0.095 A 
BRANCH  19  22
HETATM   22  O1  UNL     1      78.971  27.201  27.537  1.00  0.00    -0.361 OA
ATOM     23  H1  UNL     1      79.246  27.508  26.682  1.00  0.00     0.217 HD
ENDBRANCH  19  22
BRANCH  21  24
HETATM   24  O2  UNL     1      74.563  25.769  26.231  1.00  0.00    -0.358 OA
ATOM     25  H2  UNL     1      74.328  26.634  25.916  1.00  0.00     0.217 HD
ENDBRANCH  21  24
ENDBRANCH  12  16
ENDBRANCH  11  12
ENDBRANCH  10  11
ENDBRANCH   9  10
ENDBRANCH   8   9
ENDBRANCH   7   8
ENDBRANCH   3   7
BRANCH   5  26
HETATM   26  C15 UNL     1      69.071  18.037  28.954  1.00  0.00     0.152 C 
BRANCH  26  27
HETATM   27  C16 UNL     1      68.472  16.926  28.155  1.00  0.00     0.296 C 
BRANCH  27  28
HETATM   28  N5  UNL     1      67.594  16.039  28.895  1.00  0.00     0.134 N 
HETATM   29  C17 UNL     1      67.218  14.961  28.003  1.00  0.00     0.389 C 
HETATM   30  C18 UNL     1      68.276  13.972  27.703  1.00  0.00     0.208 C 
HETATM   31  C19 UNL     1      68.820  13.379  28.955  1.00  0.00     0.182 C 
HETATM   32  C20 UNL     1      69.166  14.424  29.948  1.00  0.00     0.188 C 
HETATM   33  C21 UNL     1      68.225  15.575  30.088  1.00  0.00     0.321 C 
BRANCH  29  34
HETATM   34  O3  UNL     1      66.851  15.578  26.799  1.00  0.00    -0.366 OA
ATOM     35  H3  UNL     1      66.370  14.921  26.310  1.00  0.00     0.212 HD
ENDBRANCH  29  34
BRANCH  30  36
HETATM   36  O4  UNL     1      69.253  14.397  26.803  1.00  0.00    -0.388 OA
ATOM     37  H4  UNL     1      69.632  15.249  26.986  1.00  0.00     0.210 HD
ENDBRANCH  30  36
BRANCH  31  38
HETATM   38  O5  UNL     1      67.888  12.492  29.477  1.00  0.00    -0.390 OA
ATOM     39  H5  UNL     1      68.072  12.357  30.399  1.00  0.00     0.210 HD
ENDBRANCH  31  38
BRANCH  32  40
HETATM   40  O6  UNL     1      69.293  13.877  31.252  1.00  0.00    -0.391 OA
ATOM     41  H6  UNL     1      69.148  14.537  31.920  1.00  0.00     0.210 HD
ENDBRANCH  32  40
BRANCH  33  42
HETATM   42  C22 UNL     1      67.207  15.335  31.210  1.00  0.00     0.389 C 
HETATM   43  F1  UNL     1      67.382  16.305  32.201  1.00  0.00    -0.212 F 
HETATM   44  F2  UNL     1      65.916  15.431  30.792  1.00  0.00    -0.212 F 
ENDBRANCH  33  42
ENDBRANCH  27  28
ENDBRANCH  26  27
ENDBRANCH   5  26
TORSDOF 19
ENDMDL
MODEL 3
REMARK VINA RESULT: -7.403737498      2.620      4.087
REMARK  19 active torsions:
REMARK  status: ('A' for Active; 'I' for Inactive)
REMARK       I    between atoms: C1_2  and  N4_24 
REMARK    1  A    between atoms: N2_3  and  C2_5 
REMARK    2  A    between atoms: C2_5  and  C3_6 
REMARK    3  A    between atoms: C3_6  and  C4_7 
REMARK    4  A    between atoms: C4_7  and  C5_8 
REMARK    5  A    between atoms: C5_8  and  C6_9 
REMARK    6  A    between atoms: C6_9  and  N3_10 
REMARK    7  A    between atoms: N3_10  and  C7_11 
REMARK    8  A    between atoms: N3_10  and  C9_14 
REMARK    9  A    between atoms: C7_11  and  C8_12 
REMARK   10  A    between atoms: C12_17  and  O1_18 
REMARK   11  A    between atoms: C14_21  and  O2_22 
REMARK   12  A    between atoms: N4_24  and  C15_26 
REMARK   13  A    between atoms: C15_26  and  C16_27 
REMARK   14  A    between atoms: C16_27  and  N5_28 
REMARK   15  A    between atoms: C17_29  and  O3_30 
REMARK   16  A    between atoms: C18_32  and  O4_33 
REMARK   17  A    between atoms: C19_35  and  O5_36 
REMARK   18  A    between atoms: C20_38  and  O6_39 
REMARK   19  A    between atoms: C21_41  and  C22_42 
ROOT
HETATM    1  N1  UNL     1      72.233  18.346  27.124  1.00  0.00    -0.064 NA
HETATM    2  C1  UNL     1      71.400  19.223  27.921  1.00  0.00     0.187 C 
HETATM    3  N2  UNL     1      71.952  19.978  28.754  1.00  0.00    -0.344 N 
ATOM      4  H2  UNL     1      72.963  19.846  28.737  1.00  0.00     0.167 HD
HETATM    5  N4  UNL     1      70.021  19.197  27.736  1.00  0.00    -0.363 N 
ATOM      6  H4  UNL     1      69.591  20.107  27.573  1.00  0.00     0.162 HD
ENDROOT
BRANCH   3   7
HETATM    7  C2  UNL     1      71.607  20.939  29.692  1.00  0.00     0.063 C 
BRANCH   7   8
HETATM    8  C3  UNL     1      72.567  21.273  30.780  1.00  0.00     0.045 C 
BRANCH   8   9
HETATM    9  C4  UNL     1      72.667  22.841  30.794  1.00  0.00     0.010 C 
BRANCH   9  10
HETATM   10  C5  UNL     1      72.676  23.298  29.383  1.00  0.00     0.045 C 
BRANCH  10  11
HETATM   11  C6  UNL     1      73.835  24.032  28.902  1.00  0.00     0.069 C 
BRANCH  11  12
HETATM   12  N3  UNL     1      74.814  23.624  28.000  1.00  0.00    -0.337 N 
BRANCH  12  13
HETATM   13  C7  UNL     1      74.977  22.478  27.206  1.00  0.00     0.084 C 
BRANCH  13  14
HETATM   14  C8  UNL     1      75.154  21.132  27.769  1.00  0.00     0.159 C 
HETATM   15 CL1  UNL     1      75.923  21.322  29.410  1.00  0.00    -0.125 Cl
ENDBRANCH  13  14
ENDBRANCH  12  13
BRANCH  12  16
HETATM   16  C9  UNL     1      75.912  24.607  27.840  1.00  0.00     0.071 A 
HETATM   17  C10 UNL     1      77.034  24.422  28.566  1.00  0.00     0.035 A 
HETATM   18  C11 UNL     1      78.099  25.313  28.433  1.00  0.00     0.039 A 
HETATM   19  C12 UNL     1      78.024  26.371  27.576  1.00  0.00     0.068 A 
HETATM   20  C13 UNL     1      76.890  26.560  26.840  1.00  0.00     0.075 A 
HETATM   21  C14 UNL     1      75.823  25.664  26.977  1.00  0.00     0.095 A 
BRANCH  19  22
HETATM   22  O1  UNL     1      79.120  27.238  27.480  1.00  0.00    -0.361 OA
ATOM     23  H1  UNL     1      79.046  28.111  27.847  1.00  0.00     0.217 HD
ENDBRANCH  19  22
BRANCH  21  24
HETATM   24  O2  UNL     1      74.677  25.869  26.223  1.00  0.00    -0.358 OA
ATOM     25  H2  UNL     1      74.626  25.563  25.325  1.00  0.00     0.217 HD
ENDBRANCH  21  24
ENDBRANCH  12  16
ENDBRANCH  11  12
ENDBRANCH  10  11
ENDBRANCH   9  10
ENDBRANCH   8   9
ENDBRANCH   7   8
ENDBRANCH   3   7
BRANCH   5  26
HETATM   26  C15 UNL     1      69.109  18.087  27.739  1.00  0.00     0.152 C 
BRANCH  26  27
HETATM   27  C16 UNL     1      68.845  17.655  29.145  1.00  0.00     0.296 C 
BRANCH  27  28
HETATM   28  N5  UNL     1      68.339  16.303  29.289  1.00  0.00     0.134 N 
HETATM   29  C17 UNL     1      67.678  16.224  30.576  1.00  0.00     0.389 C 
HETATM   30  C18 UNL     1      66.379  16.925  30.680  1.00  0.00     0.208 C 
HETATM   31  C19 UNL     1      65.433  16.446  29.635  1.00  0.00     0.182 C 
HETATM   32  C20 UNL     1      66.063  16.434  28.293  1.00  0.00     0.188 C 
HETATM   33  C21 UNL     1      67.477  15.963  28.204  1.00  0.00     0.321 C 
BRANCH  29  34
HETATM   34  O3  UNL     1      68.561  16.817  31.490  1.00  0.00    -0.366 OA
ATOM     35  H3  UNL     1      68.890  16.105  32.026  1.00  0.00     0.212 HD
ENDBRANCH  29  34
BRANCH  30  36
HETATM   36  O4  UNL     1      66.456  18.313  30.786  1.00  0.00    -0.388 OA
ATOM     37  H4  UNL     1      65.656  18.745  31.062  1.00  0.00     0.210 HD
ENDBRANCH  30  36
BRANCH  31  38
HETATM   38  O5  UNL     1      64.982  15.179  29.980  1.00  0.00    -0.390 OA
ATOM     39  H5  UNL     1      64.933  14.644  29.197  1.00  0.00     0.210 HD
ENDBRANCH  31  38
BRANCH  32  40
HETATM   40  O6  UNL     1      65.333  15.620  27.386  1.00  0.00    -0.391 OA
ATOM     41  H6  UNL     1      65.901  15.002  26.942  1.00  0.00     0.210 HD
ENDBRANCH  32  40
BRANCH  33  42
HETATM   42  C22 UNL     1      67.550  14.467  27.871  1.00  0.00     0.389 C 
HETATM   43  F1  UNL     1      68.798  14.185  27.308  1.00  0.00    -0.212 F 
HETATM   44  F2  UNL     1      67.424  13.668  28.965  1.00  0.00    -0.212 F 
ENDBRANCH  33  42
ENDBRANCH  27  28
ENDBRANCH  26  27
ENDBRANCH   5  26
TORSDOF 19
ENDMDL
MODEL 4
REMARK VINA RESULT: -7.381560218      1.272      1.583
REMARK  19 active torsions:
REMARK  status: ('A' for Active; 'I' for Inactive)
REMARK       I    between atoms: C1_2  and  N4_24 
REMARK    1  A    between atoms: N2_3  and  C2_5 
REMARK    2  A    between atoms: C2_5  and  C3_6 
REMARK    3  A    between atoms: C3_6  and  C4_7 
REMARK    4  A    between atoms: C4_7  and  C5_8 
REMARK    5  A    between atoms: C5_8  and  C6_9 
REMARK    6  A    between atoms: C6_9  and  N3_10 
REMARK    7  A    between atoms: N3_10  and  C7_11 
REMARK    8  A    between atoms: N3_10  and  C9_14 
REMARK    9  A    between atoms: C7_11  and  C8_12 
REMARK   10  A    between atoms: C12_17  and  O1_18 
REMARK   11  A    between atoms: C14_21  and  O2_22 
REMARK   12  A    between atoms: N4_24  and  C15_26 
REMARK   13  A    between atoms: C15_26  and  C16_27 
REMARK   14  A    between atoms: C16_27  and  N5_28 
REMARK   15  A    between atoms: C17_29  and  O3_30 
REMARK   16  A    between atoms: C18_32  and  O4_33 
REMARK   17  A    between atoms: C19_35  and  O5_36 
REMARK   18  A    between atoms: C20_38  and  O6_39 
REMARK   19  A    between atoms: C21_41  and  C22_42 
ROOT
HETATM    1  N1  UNL     1      68.990  15.626  26.362  1.00  0.00    -0.064 NA
HETATM    2  C1  UNL     1      68.525  16.775  27.112  1.00  0.00     0.187 C 
HETATM    3  N2  UNL     1      69.369  17.609  27.514  1.00  0.00    -0.344 N 
ATOM      4  H2  UNL     1      70.307  17.327  27.231  1.00  0.00     0.167 HD
HETATM    5  N4  UNL     1      67.163  16.913  27.361  1.00  0.00    -0.363 N 
ATOM      6  H4  UNL     1      66.766  17.816  27.100  1.00  0.00     0.162 HD
ENDROOT
BRANCH   3   7
HETATM    7  C2  UNL     1      69.416  18.798  28.225  1.00  0.00     0.063 C 
BRANCH   7   8
HETATM    8  C3  UNL     1      70.697  19.552  28.299  1.00  0.00     0.045 C 
BRANCH   8   9
HETATM    9  C4  UNL     1      70.381  20.850  29.124  1.00  0.00     0.010 C 
BRANCH   9  10
HETATM   10  C5  UNL     1      70.984  21.996  28.400  1.00  0.00     0.045 C 
BRANCH  10  11
HETATM   11  C6  UNL     1      72.431  22.135  28.410  1.00  0.00     0.069 C 
BRANCH  11  12
HETATM   12  N3  UNL     1      73.224  22.951  29.213  1.00  0.00    -0.337 N 
BRANCH  12  13
HETATM   13  C7  UNL     1      73.012  23.591  30.444  1.00  0.00     0.084 C 
BRANCH  13  14
HETATM   14  C8  UNL     1      72.646  22.869  31.671  1.00  0.00     0.159 C 
HETATM   15 CL1  UNL     1      73.617  21.328  31.709  1.00  0.00    -0.125 Cl
ENDBRANCH  13  14
ENDBRANCH  12  13
BRANCH  12  16
HETATM   16  C9  UNL     1      74.575  23.192  28.655  1.00  0.00     0.071 A 
HETATM   17  C10 UNL     1      75.545  22.300  28.946  1.00  0.00     0.035 A 
HETATM   18  C11 UNL     1      76.826  22.478  28.425  1.00  0.00     0.039 A 
HETATM   19  C12 UNL     1      77.116  23.543  27.623  1.00  0.00     0.068 A 
HETATM   20  C13 UNL     1      76.136  24.445  27.327  1.00  0.00     0.075 A 
HETATM   21  C14 UNL     1      74.851  24.264  27.852  1.00  0.00     0.095 A 
BRANCH  19  22
HETATM   22  O1  UNL     1      78.419  23.676  27.128  1.00  0.00    -0.361 OA
ATOM     23  H1  UNL     1      79.105  23.966  27.718  1.00  0.00     0.217 HD
ENDBRANCH  19  22
BRANCH  21  24
HETATM   24  O2  UNL     1      73.866  25.190  27.542  1.00  0.00    -0.358 OA
ATOM     25  H2  UNL     1      74.016  25.855  26.881  1.00  0.00     0.217 HD
ENDBRANCH  21  24
ENDBRANCH  12  16
ENDBRANCH  11  12
ENDBRANCH  10  11
ENDBRANCH   9  10
ENDBRANCH   8   9
ENDBRANCH   7   8
ENDBRANCH   3   7
BRANCH   5  26
HETATM   26  C15 UNL     1      66.227  15.981  27.927  1.00  0.00     0.152 C 
BRANCH  26  27
HETATM   27  C16 UNL     1      66.908  15.155  28.970  1.00  0.00     0.296 C 
BRANCH  27  28
HETATM   28  N5  UNL     1      66.407  15.334  30.320  1.00  0.00     0.134 N 
HETATM   29  C17 UNL     1      67.055  14.343  31.155  1.00  0.00     0.389 C 
HETATM   30  C18 UNL     1      68.484  14.581  31.450  1.00  0.00     0.208 C 
HETATM   31  C19 UNL     1      68.683  15.920  32.070  1.00  0.00     0.182 C 
HETATM   32  C20 UNL     1      67.988  16.983  31.304  1.00  0.00     0.188 C 
HETATM   33  C21 UNL     1      66.628  16.668  30.773  1.00  0.00     0.321 C 
BRANCH  29  34
HETATM   34  O3  UNL     1      66.957  13.134  30.451  1.00  0.00    -0.366 OA
ATOM     35  H3  UNL     1      67.401  12.488  30.988  1.00  0.00     0.212 HD
ENDBRANCH  29  34
BRANCH  30  36
HETATM   36  O4  UNL     1      69.365  14.300  30.406  1.00  0.00    -0.388 OA
ATOM     37  H4  UNL     1      69.891  15.033  30.109  1.00  0.00     0.210 HD
ENDBRANCH  30  36
BRANCH  31  38
HETATM   38  O5  UNL     1      68.232  15.883  33.382  1.00  0.00    -0.390 OA
ATOM     39  H5  UNL     1      67.331  15.582  33.391  1.00  0.00     0.210 HD
ENDBRANCH  31  38
BRANCH  32  40
HETATM   40  O6  UNL     1      67.830  18.161  32.081  1.00  0.00    -0.391 OA
ATOM     41  H6  UNL     1      67.975  18.942  31.559  1.00  0.00     0.210 HD
ENDBRANCH  32  40
BRANCH  33  42
HETATM   42  C22 UNL     1      65.529  17.127  31.740  1.00  0.00     0.389 C 
HETATM   43  F1  UNL     1      64.919  18.276  31.227  1.00  0.00    -0.212 F 
HETATM   44  F2  UNL     1      64.544  16.203  31.909  1.00  0.00    -0.212 F 
ENDBRANCH  33  42
ENDBRANCH  27  28
ENDBRANCH  26  27
ENDBRANCH   5  26
TORSDOF 19
ENDMDL
MODEL 5
REMARK VINA RESULT: -7.350827592      2.017      2.975
REMARK  19 active torsions:
REMARK  status: ('A' for Active; 'I' for Inactive)
REMARK       I    between atoms: C1_2  and  N4_24 
REMARK    1  A    between atoms: N2_3  and  C2_5 
REMARK    2  A    between atoms: C2_5  and  C3_6 
REMARK    3  A    between atoms: C3_6  and  C4_7 
REMARK    4  A    between atoms: C4_7  and  C5_8 
REMARK    5  A    between atoms: C5_8  and  C6_9 
REMARK    6  A    between atoms: C6_9  and  N3_10 
REMARK    7  A    between atoms: N3_10  and  C7_11 
REMARK    8  A    between atoms: N3_10  and  C9_14 
REMARK    9  A    between atoms: C7_11  and  C8_12 
REMARK   10  A    between atoms: C12_17  and  O1_18 
REMARK   11  A    between atoms: C14_21  and  O2_22 
REMARK   12  A    between atoms: N4_24  and  C15_26 
REMARK   13  A    between atoms: C15_26  and  C16_27 
REMARK   14  A    between atoms: C16_27  and  N5_28 
REMARK   15  A    between atoms: C17_29  and  O3_30 
REMARK   16  A    between atoms: C18_32  and  O4_33 
REMARK   17  A    between atoms: C19_35  and  O5_36 
REMARK   18  A    between atoms: C20_38  and  O6_39 
REMARK   19  A    between atoms: C21_41  and  C22_42 
ROOT
HETATM    1  N1  UNL     1      68.927  15.555  26.644  1.00  0.00    -0.064 NA
HETATM    2  C1  UNL     1      68.545  16.873  27.107  1.00  0.00     0.187 C 
HETATM    3  N2  UNL     1      69.443  17.726  27.290  1.00  0.00    -0.344 N 
ATOM      4  H2  UNL     1      70.357  17.331  27.071  1.00  0.00     0.167 HD
HETATM    5  N4  UNL     1      67.199  17.145  27.333  1.00  0.00    -0.363 N 
ATOM      6  H4  UNL     1      66.846  17.984  26.871  1.00  0.00     0.162 HD
ENDROOT
BRANCH   3   7
HETATM    7  C2  UNL     1      69.574  19.044  27.700  1.00  0.00     0.063 C 
BRANCH   7   8
HETATM    8  C3  UNL     1      69.337  19.390  29.129  1.00  0.00     0.045 C 
BRANCH   8   9
HETATM    9  C4  UNL     1      70.068  20.761  29.362  1.00  0.00     0.010 C 
BRANCH   9  10
HETATM   10  C5  UNL     1      71.425  20.646  28.774  1.00  0.00     0.045 C 
BRANCH  10  11
HETATM   11  C6  UNL     1      72.119  21.866  28.395  1.00  0.00     0.069 C 
BRANCH  11  12
HETATM   12  N3  UNL     1      72.811  22.764  29.204  1.00  0.00    -0.337 N 
BRANCH  12  13
HETATM   13  C7  UNL     1      72.433  23.575  30.285  1.00  0.00     0.084 C 
BRANCH  13  14
HETATM   14  C8  UNL     1      71.883  23.038  31.537  1.00  0.00     0.159 C 
HETATM   15 CL1  UNL     1      73.012  21.729  32.115  1.00  0.00    -0.125 Cl
ENDBRANCH  13  14
ENDBRANCH  12  13
BRANCH  12  16
HETATM   16  C9  UNL     1      74.246  22.886  28.854  1.00  0.00     0.071 A 
HETATM   17  C10 UNL     1      75.086  21.928  29.298  1.00  0.00     0.035 A 
HETATM   18  C11 UNL     1      76.441  21.995  28.976  1.00  0.00     0.039 A 
HETATM   19  C12 UNL     1      76.932  23.015  28.217  1.00  0.00     0.068 A 
HETATM   20  C13 UNL     1      76.084  23.984  27.766  1.00  0.00     0.075 A 
HETATM   21  C14 UNL     1      74.724  23.915  28.092  1.00  0.00     0.095 A 
BRANCH  19  22
HETATM   22  O1  UNL     1      78.302  23.036  27.923  1.00  0.00    -0.361 OA
ATOM     23  H1  UNL     1      78.633  22.453  27.250  1.00  0.00     0.217 HD
ENDBRANCH  19  22
BRANCH  21  24
HETATM   24  O2  UNL     1      73.874  24.908  27.627  1.00  0.00    -0.358 OA
ATOM     25  H2  UNL     1      74.007  25.300  26.772  1.00  0.00     0.217 HD
ENDBRANCH  21  24
ENDBRANCH  12  16
ENDBRANCH  11  12
ENDBRANCH  10  11
ENDBRANCH   9  10
ENDBRANCH   8   9
ENDBRANCH   7   8
ENDBRANCH   3   7
BRANCH   5  26
HETATM   26  C15 UNL     1      66.230  16.430  28.115  1.00  0.00     0.152 C 
BRANCH  26  27
HETATM   27  C16 UNL     1      66.365  16.806  29.554  1.00  0.00     0.296 C 
BRANCH  27  28
HETATM   28  N5  UNL     1      67.434  16.134  30.268  1.00  0.00     0.134 N 
HETATM   29  C17 UNL     1      67.360  16.554  31.653  1.00  0.00     0.389 C 
HETATM   30  C18 UNL     1      66.233  16.002  32.436  1.00  0.00     0.208 C 
HETATM   31  C19 UNL     1      66.237  14.514  32.396  1.00  0.00     0.182 C 
HETATM   32  C20 UNL     1      66.380  14.007  31.010  1.00  0.00     0.188 C 
HETATM   33  C21 UNL     1      67.339  14.718  30.115  1.00  0.00     0.321 C 
BRANCH  29  34
HETATM   34  O3  UNL     1      67.216  17.948  31.617  1.00  0.00    -0.366 OA
ATOM     35  H3  UNL     1      68.100  18.296  31.609  1.00  0.00     0.212 HD
ENDBRANCH  29  34
BRANCH  30  36
HETATM   36  O4  UNL     1      64.988  16.576  32.178  1.00  0.00    -0.388 OA
ATOM     37  H4  UNL     1      64.269  15.962  32.086  1.00  0.00     0.210 HD
ENDBRANCH  30  36
BRANCH  31  38
HETATM   38  O5  UNL     1      67.264  14.042  33.202  1.00  0.00    -0.390 OA
ATOM     39  H5  UNL     1      68.087  14.126  32.735  1.00  0.00     0.210 HD
ENDBRANCH  31  38
BRANCH  32  40
HETATM   40  O6  UNL     1      66.785  12.645  30.996  1.00  0.00    -0.391 OA
ATOM     41  H6  UNL     1      67.351  12.445  31.733  1.00  0.00     0.210 HD
ENDBRANCH  32  40
BRANCH  33  42
HETATM   42  C22 UNL     1      68.722  14.054  30.132  1.00  0.00     0.389 C 
HETATM   43  F1  UNL     1      68.929  13.399  28.914  1.00  0.00    -0.212 F 
HETATM   44  F2  UNL     1      69.742  14.942  30.277  1.00  0.00    -0.212 F 
ENDBRANCH  33  42
ENDBRANCH  27  28
ENDBRANCH  26  27
ENDBRANCH   5  26
TORSDOF 19
ENDMDL
