MODEL 1
REMARK VINA RESULT: -5.309559432      0.000      0.000
REMARK  0 active torsions:
REMARK  status: ('A' for Active; 'I' for Inactive)
REMARK       I    between atoms: N1_1  and  C1_5 
REMARK       I    between atoms: C1_5  and  N2_6 
REMARK       I    between atoms: C1_5  and  N3_10 
ROOT
HETATM    1  N1  UNL     1      36.857  37.576  15.146  1.00  0.00    -0.032 N 
ATOM      2  H11 UNL     1      37.564  38.296  14.999  1.00  0.00     0.278 HD
ATOM      3  H12 UNL     1      36.244  37.470  14.337  1.00  0.00     0.278 HD
ATOM      4  H13 UNL     1      37.260  36.639  15.150  1.00  0.00     0.278 HD
HETATM    5  C1  UNL     1      36.103  37.862  16.379  1.00  0.00     0.494 C 
HETATM    6  N2  UNL     1      35.113  36.854  16.585  1.00  0.00    -0.032 N 
ATOM      7  H21 UNL     1      34.592  37.052  17.439  1.00  0.00     0.278 HD
ATOM      8  H22 UNL     1      35.516  35.917  16.590  1.00  0.00     0.278 HD
ATOM      9  H23 UNL     1      34.500  36.748  15.777  1.00  0.00     0.278 HD
HETATM   10  N3  UNL     1      36.980  38.170  17.390  1.00  0.00    -0.172 N 
ATOM     11  H3  UNL     1      37.292  39.138  17.320  1.00  0.00     0.181 HD
HETATM   12  C2  UNL     1      37.502  37.599  18.371  1.00  0.00     0.696 A 
HETATM   13  N4  UNL     1      37.386  36.362  18.835  1.00  0.00    -0.185 N 
ATOM     14  H4  UNL     1      36.804  35.630  18.427  1.00  0.00     0.185 HD
HETATM   15  C3  UNL     1      38.149  36.226  19.918  1.00  0.00     0.215 A 
HETATM   16  N5  UNL     1      38.749  37.413  20.120  1.00  0.00    -0.281 N 
ATOM     17  H5  UNL     1      39.398  37.620  20.878  1.00  0.00     0.188 HD
HETATM   18  N6  UNL     1      38.373  38.262  19.196  1.00  0.00    -0.131 N 
ATOM     19  H6  UNL     1      38.673  39.233  19.106  1.00  0.00     0.205 HD
ENDROOT
TORSDOF 0
ENDMDL
MODEL 2
REMARK VINA RESULT: -5.239805031      2.093      3.191
REMARK  0 active torsions:
REMARK  status: ('A' for Active; 'I' for Inactive)
REMARK       I    between atoms: N1_1  and  C1_5 
REMARK       I    between atoms: C1_5  and  N2_6 
REMARK       I    between atoms: C1_5  and  N3_10 
ROOT
HETATM    1  N1  UNL     1      38.295  35.425  16.765  1.00  0.00    -0.032 N 
ATOM      2  H11 UNL     1      38.367  35.810  15.824  1.00  0.00     0.278 HD
ATOM      3  H12 UNL     1      38.734  34.507  16.840  1.00  0.00     0.278 HD
ATOM      4  H13 UNL     1      38.885  35.926  17.431  1.00  0.00     0.278 HD
HETATM    5  C1  UNL     1      36.883  35.400  17.186  1.00  0.00     0.494 C 
HETATM    6  N2  UNL     1      36.781  34.861  18.505  1.00  0.00    -0.032 N 
ATOM      7  H21 UNL     1      35.804  34.844  18.796  1.00  0.00     0.278 HD
ATOM      8  H22 UNL     1      37.371  35.362  19.170  1.00  0.00     0.278 HD
ATOM      9  H23 UNL     1      37.220  33.943  18.579  1.00  0.00     0.278 HD
HETATM   10  N3  UNL     1      36.298  36.608  16.899  1.00  0.00    -0.172 N 
ATOM     11  H3  UNL     1      36.035  36.662  15.915  1.00  0.00     0.181 HD
HETATM   12  C2  UNL     1      35.997  37.660  17.503  1.00  0.00     0.696 A 
HETATM   13  N4  UNL     1      36.151  38.024  18.769  1.00  0.00    -0.185 N 
ATOM     14  H4  UNL     1      36.574  37.452  19.501  1.00  0.00     0.185 HD
HETATM   15  C3  UNL     1      35.667  39.254  18.934  1.00  0.00     0.215 A 
HETATM   16  N5  UNL     1      35.206  39.652  17.735  1.00  0.00    -0.281 N 
ATOM     17  H5  UNL     1      34.775  40.556  17.543  1.00  0.00     0.188 HD
HETATM   18  N6  UNL     1      35.394  38.704  16.851  1.00  0.00    -0.131 N 
ATOM     19  H6  UNL     1      35.141  38.736  15.863  1.00  0.00     0.205 HD
ENDROOT
TORSDOF 0
ENDMDL
MODEL 3
REMARK VINA RESULT: -5.102918735      1.674      3.941
REMARK  0 active torsions:
REMARK  status: ('A' for Active; 'I' for Inactive)
REMARK       I    between atoms: N1_1  and  C1_5 
REMARK       I    between atoms: C1_5  and  N2_6 
REMARK       I    between atoms: C1_5  and  N3_10 
ROOT
HETATM    1  N1  UNL     1      36.866  39.508  21.066  1.00  0.00    -0.032 N 
ATOM      2  H11 UNL     1      36.067  40.128  20.928  1.00  0.00     0.278 HD
ATOM      3  H12 UNL     1      37.436  39.789  21.864  1.00  0.00     0.278 HD
ATOM      4  H13 UNL     1      36.583  38.587  21.401  1.00  0.00     0.278 HD
HETATM    5  C1  UNL     1      37.653  39.428  19.823  1.00  0.00     0.494 C 
HETATM    6  N2  UNL     1      38.771  38.561  20.015  1.00  0.00    -0.032 N 
ATOM      7  H21 UNL     1      39.316  38.505  19.154  1.00  0.00     0.278 HD
ATOM      8  H22 UNL     1      38.489  37.640  20.351  1.00  0.00     0.278 HD
ATOM      9  H23 UNL     1      39.341  38.841  20.813  1.00  0.00     0.278 HD
HETATM   10  N3  UNL     1      36.810  39.224  18.759  1.00  0.00    -0.172 N 
ATOM     11  H3  UNL     1      36.376  40.098  18.463  1.00  0.00     0.181 HD
HETATM   12  C2  UNL     1      36.424  38.269  18.051  1.00  0.00     0.696 A 
HETATM   13  N4  UNL     1      36.721  36.976  18.077  1.00  0.00    -0.185 N 
ATOM     14  H4  UNL     1      37.363  36.531  18.733  1.00  0.00     0.185 HD
HETATM   15  C3  UNL     1      36.050  36.352  17.110  1.00  0.00     0.215 A 
HETATM   16  N5  UNL     1      35.321  37.290  16.479  1.00  0.00    -0.281 N 
ATOM     17  H5  UNL     1      34.699  37.116  15.689  1.00  0.00     0.188 HD
HETATM   18  N6  UNL     1      35.531  38.459  17.030  1.00  0.00    -0.131 N 
ATOM     19  H6  UNL     1      35.108  39.345  16.752  1.00  0.00     0.205 HD
ENDROOT
TORSDOF 0
ENDMDL
MODEL 4
REMARK VINA RESULT: -5.034395254      1.664      4.055
REMARK  0 active torsions:
REMARK  status: ('A' for Active; 'I' for Inactive)
REMARK       I    between atoms: N1_1  and  C1_5 
REMARK       I    between atoms: C1_5  and  N2_6 
REMARK       I    between atoms: C1_5  and  N3_10 
ROOT
HETATM    1  N1  UNL     1      36.361  35.940  21.616  1.00  0.00    -0.032 N 
ATOM      2  H11 UNL     1      35.691  36.618  21.980  1.00  0.00     0.278 HD
ATOM      3  H12 UNL     1      36.777  35.376  22.358  1.00  0.00     0.278 HD
ATOM      4  H13 UNL     1      35.904  35.190  21.098  1.00  0.00     0.278 HD
HETATM    5  C1  UNL     1      37.381  36.632  20.808  1.00  0.00     0.494 C 
HETATM    6  N2  UNL     1      38.319  35.683  20.299  1.00  0.00    -0.032 N 
ATOM      7  H21 UNL     1      39.025  36.161  19.739  1.00  0.00     0.278 HD
ATOM      8  H22 UNL     1      37.862  34.932  19.781  1.00  0.00     0.278 HD
ATOM      9  H23 UNL     1      38.735  35.119  21.041  1.00  0.00     0.278 HD
HETATM   10  N3  UNL     1      36.767  37.508  19.948  1.00  0.00    -0.172 N 
ATOM     11  H3  UNL     1      36.516  38.373  20.426  1.00  0.00     0.181 HD
HETATM   12  C2  UNL     1      36.429  37.544  18.745  1.00  0.00     0.696 A 
HETATM   13  N4  UNL     1      36.556  36.657  17.767  1.00  0.00    -0.185 N 
ATOM     14  H4  UNL     1      36.983  35.735  17.858  1.00  0.00     0.185 HD
HETATM   15  C3  UNL     1      36.036  37.160  16.649  1.00  0.00     0.215 A 
HETATM   16  N5  UNL     1      35.579  38.388  16.953  1.00  0.00    -0.281 N 
ATOM     17  H5  UNL     1      35.124  39.023  16.298  1.00  0.00     0.188 HD
HETATM   18  N6  UNL     1      35.805  38.644  18.218  1.00  0.00    -0.131 N 
ATOM     19  H6  UNL     1      35.562  39.500  18.716  1.00  0.00     0.205 HD
ENDROOT
TORSDOF 0
ENDMDL
MODEL 5
REMARK VINA RESULT: -4.986143441      1.879      2.430
REMARK  0 active torsions:
REMARK  status: ('A' for Active; 'I' for Inactive)
REMARK       I    between atoms: N1_1  and  C1_5 
REMARK       I    between atoms: C1_5  and  N2_6 
REMARK       I    between atoms: C1_5  and  N3_10 
ROOT
HETATM    1  N1  UNL     1      36.725  37.737  14.723  1.00  0.00    -0.032 N 
ATOM      2  H11 UNL     1      35.954  38.342  14.439  1.00  0.00     0.278 HD
ATOM      3  H12 UNL     1      36.999  37.091  13.982  1.00  0.00     0.278 HD
ATOM      4  H13 UNL     1      37.604  38.249  14.804  1.00  0.00     0.278 HD
HETATM    5  C1  UNL     1      36.375  37.035  15.970  1.00  0.00     0.494 C 
HETATM    6  N2  UNL     1      37.454  36.189  16.367  1.00  0.00    -0.032 N 
ATOM      7  H21 UNL     1      37.212  35.703  17.231  1.00  0.00     0.278 HD
ATOM      8  H22 UNL     1      38.333  36.701  16.449  1.00  0.00     0.278 HD
ATOM      9  H23 UNL     1      37.728  35.543  15.627  1.00  0.00     0.278 HD
HETATM   10  N3  UNL     1      35.848  37.930  16.867  1.00  0.00    -0.172 N 
ATOM     11  H3  UNL     1      34.867  38.119  16.662  1.00  0.00     0.181 HD
HETATM   12  C2  UNL     1      36.231  38.579  17.864  1.00  0.00     0.696 A 
HETATM   13  N4  UNL     1      37.406  38.643  18.475  1.00  0.00    -0.185 N 
ATOM     14  H4  UNL     1      38.244  38.129  18.201  1.00  0.00     0.185 HD
HETATM   15  C3  UNL     1      37.321  39.485  19.504  1.00  0.00     0.215 A 
HETATM   16  N5  UNL     1      36.058  39.949  19.520  1.00  0.00    -0.281 N 
ATOM     17  H5  UNL     1      35.687  40.616  20.196  1.00  0.00     0.188 HD
HETATM   18  N6  UNL     1      35.378  39.415  18.536  1.00  0.00    -0.131 N 
ATOM     19  H6  UNL     1      34.398  39.590  18.312  1.00  0.00     0.205 HD
ENDROOT
TORSDOF 0
ENDMDL
