MODEL 1
REMARK VINA RESULT: -5.817367493      0.000      0.000
REMARK  4 active torsions:
REMARK  status: ('A' for Active; 'I' for Inactive)
REMARK    1  A    between atoms: N1_1  and  C1_4 
REMARK    2  A    between atoms: C3_9  and  O2_10 
REMARK    3  A    between atoms: O2_10  and  N3_11 
REMARK    4  A    between atoms: N3_11  and  N4_12 
ROOT
HETATM    1  C1  UNL     1      35.971  37.833  17.274  1.00  0.00     0.157 A 
HETATM    2  N2  UNL     1      36.117  37.382  18.531  1.00  0.00    -0.243 N 
ATOM      3  H2  UNL     1      35.817  37.887  19.365  1.00  0.00     0.196 HD
HETATM    4  O1  UNL     1      36.689  36.216  18.542  1.00  0.00    -0.245 OA
HETATM    5  C2  UNL     1      36.952  35.833  17.308  1.00  0.00     0.210 A 
HETATM    6  C3  UNL     1      36.511  36.835  16.466  1.00  0.00     0.165 A 
ENDROOT
BRANCH   6   7
HETATM    7  O2  UNL     1      36.565  36.896  15.099  1.00  0.00    -0.218 OA
BRANCH   7   8
HETATM    8  N3  UNL     1      37.404  37.679  14.383  1.00  0.00     0.020 NA
BRANCH   8   9
HETATM    9  N4  UNL     1      36.688  38.517  13.527  1.00  0.00    -0.322 N 
ATOM     10  H42 UNL     1      35.759  38.300  13.167  1.00  0.00     0.174 HD
ATOM     11  H41 UNL     1      37.221  39.362  13.320  1.00  0.00     0.174 HD
ENDBRANCH   8   9
ENDBRANCH   7   8
ENDBRANCH   6   7
BRANCH   1  12
HETATM   12  N1  UNL     1      35.445  38.943  16.942  1.00  0.00    -0.382 N 
ATOM     13  H12 UNL     1      35.894  39.799  16.617  1.00  0.00     0.157 HD
ATOM     14  H11 UNL     1      34.446  39.153  16.949  1.00  0.00     0.157 HD
ENDBRANCH   1  12
TORSDOF 4
ENDMDL
MODEL 2
REMARK VINA RESULT: -5.660896296      1.176      1.176
REMARK  4 active torsions:
REMARK  status: ('A' for Active; 'I' for Inactive)
REMARK    1  A    between atoms: N1_1  and  C1_4 
REMARK    2  A    between atoms: C3_9  and  O2_10 
REMARK    3  A    between atoms: O2_10  and  N3_11 
REMARK    4  A    between atoms: N3_11  and  N4_12 
ROOT
HETATM    1  C1  UNL     1      35.870  38.535  17.736  1.00  0.00     0.157 A 
HETATM    2  N2  UNL     1      35.854  38.268  19.052  1.00  0.00    -0.243 N 
ATOM      3  H2  UNL     1      35.175  38.651  19.711  1.00  0.00     0.196 HD
HETATM    4  O1  UNL     1      36.817  37.458  19.374  1.00  0.00    -0.245 OA
HETATM    5  C2  UNL     1      37.517  37.145  18.301  1.00  0.00     0.210 A 
HETATM    6  C3  UNL     1      36.948  37.811  17.233  1.00  0.00     0.165 A 
ENDROOT
BRANCH   6   7
HETATM    7  O2  UNL     1      37.323  37.802  15.915  1.00  0.00    -0.218 OA
BRANCH   7   8
HETATM    8  N3  UNL     1      36.538  37.420  14.881  1.00  0.00     0.020 NA
BRANCH   8   9
HETATM    9  N4  UNL     1      36.775  38.218  13.762  1.00  0.00    -0.322 N 
ATOM     10  H42 UNL     1      37.173  39.156  13.807  1.00  0.00     0.174 HD
ATOM     11  H41 UNL     1      36.496  37.733  12.908  1.00  0.00     0.174 HD
ENDBRANCH   8   9
ENDBRANCH   7   8
ENDBRANCH   6   7
BRANCH   1  12
HETATM   12  N1  UNL     1      35.052  39.294  17.123  1.00  0.00    -0.382 N 
ATOM     13  H12 UNL     1      34.039  39.364  17.220  1.00  0.00     0.157 HD
ATOM     14  H11 UNL     1      35.299  39.980  16.409  1.00  0.00     0.157 HD
ENDBRANCH   1  12
TORSDOF 4
ENDMDL
MODEL 3
REMARK VINA RESULT: -5.489101480      1.314      1.932
REMARK  4 active torsions:
REMARK  status: ('A' for Active; 'I' for Inactive)
REMARK    1  A    between atoms: N1_1  and  C1_4 
REMARK    2  A    between atoms: C3_9  and  O2_10 
REMARK    3  A    between atoms: O2_10  and  N3_11 
REMARK    4  A    between atoms: N3_11  and  N4_12 
ROOT
HETATM    1  C1  UNL     1      36.645  36.043  17.615  1.00  0.00     0.157 A 
HETATM    2  N2  UNL     1      36.639  36.478  18.885  1.00  0.00    -0.243 N 
ATOM      3  H2  UNL     1      36.806  35.886  19.699  1.00  0.00     0.196 HD
HETATM    4  O1  UNL     1      36.392  37.752  18.939  1.00  0.00    -0.245 OA
HETATM    5  C2  UNL     1      36.223  38.228  17.721  1.00  0.00     0.210 A 
HETATM    6  C3  UNL     1      36.375  37.173  16.844  1.00  0.00     0.165 A 
ENDROOT
BRANCH   6   7
HETATM    7  O2  UNL     1      36.290  37.170  15.477  1.00  0.00    -0.218 OA
BRANCH   7   8
HETATM    8  N3  UNL     1      37.252  37.605  14.632  1.00  0.00     0.020 NA
BRANCH   8   9
HETATM    9  N4  UNL     1      36.704  38.406  13.630  1.00  0.00    -0.322 N 
ATOM     10  H42 UNL     1      37.232  39.110  13.114  1.00  0.00     0.174 HD
ATOM     11  H41 UNL     1      35.717  38.187  13.493  1.00  0.00     0.174 HD
ENDBRANCH   8   9
ENDBRANCH   7   8
ENDBRANCH   6   7
BRANCH   1  12
HETATM   12  N1  UNL     1      36.857  34.845  17.242  1.00  0.00    -0.382 N 
ATOM     13  H12 UNL     1      37.387  34.108  17.707  1.00  0.00     0.157 HD
ATOM     14  H11 UNL     1      36.512  34.420  16.380  1.00  0.00     0.157 HD
ENDBRANCH   1  12
TORSDOF 4
ENDMDL
MODEL 4
REMARK VINA RESULT: -5.476959132      3.223      3.924
REMARK  4 active torsions:
REMARK  status: ('A' for Active; 'I' for Inactive)
REMARK    1  A    between atoms: N1_1  and  C1_4 
REMARK    2  A    between atoms: C3_9  and  O2_10 
REMARK    3  A    between atoms: O2_10  and  N3_11 
REMARK    4  A    between atoms: N3_11  and  N4_12 
ROOT
HETATM    1  C1  UNL     1      37.208  35.429  18.894  1.00  0.00     0.157 A 
HETATM    2  N2  UNL     1      36.484  34.605  18.119  1.00  0.00    -0.243 N 
ATOM      3  H2  UNL     1      35.835  33.902  18.471  1.00  0.00     0.196 HD
HETATM    4  O1  UNL     1      36.721  34.825  16.861  1.00  0.00    -0.245 OA
HETATM    5  C2  UNL     1      37.605  35.795  16.733  1.00  0.00     0.210 A 
HETATM    6  C3  UNL     1      37.943  36.210  18.006  1.00  0.00     0.165 A 
ENDROOT
BRANCH   6   7
HETATM    7  O2  UNL     1      38.821  37.190  18.387  1.00  0.00    -0.218 OA
BRANCH   7   8
HETATM    8  N3  UNL     1      38.479  38.443  18.766  1.00  0.00     0.020 NA
BRANCH   8   9
HETATM    9  N4  UNL     1      38.731  38.633  20.125  1.00  0.00    -0.322 N 
ATOM     10  H42 UNL     1      38.184  38.201  20.869  1.00  0.00     0.174 HD
ATOM     11  H41 UNL     1      39.528  39.255  20.261  1.00  0.00     0.174 HD
ENDBRANCH   8   9
ENDBRANCH   7   8
ENDBRANCH   6   7
BRANCH   1  12
HETATM   12  N1  UNL     1      37.191  35.454  20.167  1.00  0.00    -0.382 N 
ATOM     13  H12 UNL     1      37.895  35.808  20.815  1.00  0.00     0.157 HD
ATOM     14  H11 UNL     1      36.435  35.109  20.758  1.00  0.00     0.157 HD
ENDBRANCH   1  12
TORSDOF 4
ENDMDL
MODEL 5
REMARK VINA RESULT: -5.430289971      1.825      2.335
REMARK  4 active torsions:
REMARK  status: ('A' for Active; 'I' for Inactive)
REMARK    1  A    between atoms: N1_1  and  C1_4 
REMARK    2  A    between atoms: C3_9  and  O2_10 
REMARK    3  A    between atoms: O2_10  and  N3_11 
REMARK    4  A    between atoms: N3_11  and  N4_12 
ROOT
HETATM    1  C1  UNL     1      37.323  36.008  17.778  1.00  0.00     0.157 A 
HETATM    2  N2  UNL     1      38.230  36.204  18.750  1.00  0.00    -0.243 N 
ATOM      3  H2  UNL     1      38.701  35.456  19.259  1.00  0.00     0.196 HD
HETATM    4  O1  UNL     1      38.426  37.471  18.953  1.00  0.00    -0.245 OA
HETATM    5  C2  UNL     1      37.669  38.180  18.137  1.00  0.00     0.210 A 
HETATM    6  C3  UNL     1      36.949  37.286  17.369  1.00  0.00     0.165 A 
ENDROOT
BRANCH   6   7
HETATM    7  O2  UNL     1      36.032  37.542  16.385  1.00  0.00    -0.218 OA
BRANCH   7   8
HETATM    8  N3  UNL     1      36.054  37.015  15.138  1.00  0.00     0.020 NA
BRANCH   8   9
HETATM    9  N4  UNL     1      36.760  37.843  14.265  1.00  0.00    -0.322 N 
ATOM     10  H42 UNL     1      37.332  38.631  14.568  1.00  0.00     0.174 HD
ATOM     11  H41 UNL     1      36.622  37.548  13.298  1.00  0.00     0.174 HD
ENDBRANCH   8   9
ENDBRANCH   7   8
ENDBRANCH   6   7
BRANCH   1  12
HETATM   12  N1  UNL     1      36.923  34.876  17.354  1.00  0.00    -0.382 N 
ATOM     13  H12 UNL     1      36.339  34.659  16.547  1.00  0.00     0.157 HD
ATOM     14  H11 UNL     1      37.139  33.973  17.777  1.00  0.00     0.157 HD
ENDBRANCH   1  12
TORSDOF 4
ENDMDL
