MODEL 1
REMARK VINA RESULT: -4.136989231      0.000      0.000
REMARK  3 active torsions:
REMARK  status: ('A' for Active; 'I' for Inactive)
REMARK    1  A    between atoms: N1_1  and  C1_5 
REMARK    2  A    between atoms: C1_5  and  N2_6 
REMARK    3  A    between atoms: C1_5  and  C2_10 
ROOT
HETATM    1  C1  UNL     1      35.830  37.248  16.432  1.00  0.00     0.428 C 
ENDROOT
BRANCH   1   2
HETATM    2  N1  UNL     1      35.446  38.476  16.983  1.00  0.00    -0.045 N 
ATOM      3  H13 UNL     1      35.783  39.266  16.432  1.00  0.00     0.277 HD
ATOM      4  H12 UNL     1      34.445  38.643  16.886  1.00  0.00     0.277 HD
ATOM      5  H11 UNL     1      35.750  38.531  17.956  1.00  0.00     0.277 HD
ENDBRANCH   1   2
BRANCH   1   6
HETATM    6  N2  UNL     1      36.864  37.460  15.411  1.00  0.00    -0.045 N 
ATOM      7  H23 UNL     1      36.507  37.974  14.606  1.00  0.00     0.277 HD
ATOM      8  H22 UNL     1      37.570  38.131  15.715  1.00  0.00     0.277 HD
ATOM      9  H21 UNL     1      37.276  36.566  15.143  1.00  0.00     0.277 HD
ENDBRANCH   1   6
BRANCH   1  10
HETATM   10  C2  UNL     1      36.503  36.418  17.489  1.00  0.00     0.081 A 
HETATM   11  C3  UNL     1      37.122  36.879  18.638  1.00  0.00     0.097 A 
HETATM   12  S1  UNL     1      37.471  35.288  19.022  1.00  0.00    -0.024 SA
HETATM   13  N3  UNL     1      36.661  35.073  17.574  1.00  0.00    -0.326 N 
ATOM     14  H3  UNL     1      36.398  34.272  17.000  1.00  0.00     0.174 HD
ENDBRANCH   1  10
TORSDOF 3
ENDMDL
MODEL 2
REMARK VINA RESULT: -3.941604053      2.865      4.244
REMARK  3 active torsions:
REMARK  status: ('A' for Active; 'I' for Inactive)
REMARK    1  A    between atoms: N1_1  and  C1_5 
REMARK    2  A    between atoms: C1_5  and  N2_6 
REMARK    3  A    between atoms: C1_5  and  C2_10 
ROOT
HETATM    1  C1  UNL     1      36.992  34.669  20.903  1.00  0.00     0.428 C 
ENDROOT
BRANCH   1   2
HETATM    2  N1  UNL     1      38.195  34.244  21.478  1.00  0.00    -0.045 N 
ATOM      3  H13 UNL     1      38.421  34.766  22.324  1.00  0.00     0.277 HD
ATOM      4  H12 UNL     1      38.113  33.316  21.894  1.00  0.00     0.277 HD
ATOM      5  H11 UNL     1      38.945  34.288  20.788  1.00  0.00     0.277 HD
ENDBRANCH   1   2
BRANCH   1   6
HETATM    6  N2  UNL     1      36.489  35.852  21.613  1.00  0.00    -0.045 N 
ATOM      7  H23 UNL     1      36.857  36.718  21.221  1.00  0.00     0.277 HD
ATOM      8  H22 UNL     1      35.499  36.015  21.431  1.00  0.00     0.277 HD
ATOM      9  H21 UNL     1      36.687  35.768  22.610  1.00  0.00     0.277 HD
ENDBRANCH   1   6
BRANCH   1  10
HETATM   10  C2  UNL     1      37.254  35.148  19.502  1.00  0.00     0.081 A 
HETATM   11  C3  UNL     1      38.108  36.167  19.119  1.00  0.00     0.097 A 
HETATM   12  S1  UNL     1      37.665  35.869  17.533  1.00  0.00    -0.024 SA
HETATM   13  N3  UNL     1      36.741  34.718  18.322  1.00  0.00    -0.326 N 
ATOM     14  H3  UNL     1      36.075  34.000  18.037  1.00  0.00     0.174 HD
ENDBRANCH   1  10
TORSDOF 3
ENDMDL
MODEL 3
REMARK VINA RESULT: -3.916788923      0.562      1.372
REMARK  3 active torsions:
REMARK  status: ('A' for Active; 'I' for Inactive)
REMARK    1  A    between atoms: N1_1  and  C1_5 
REMARK    2  A    between atoms: C1_5  and  N2_6 
REMARK    3  A    between atoms: C1_5  and  C2_10 
ROOT
HETATM    1  C1  UNL     1      36.708  37.897  16.594  1.00  0.00     0.428 C 
ENDROOT
BRANCH   1   2
HETATM    2  N1  UNL     1      36.641  37.455  15.268  1.00  0.00    -0.045 N 
ATOM      3  H13 UNL     1      35.944  36.720  15.144  1.00  0.00     0.277 HD
ATOM      4  H12 UNL     1      36.230  38.155  14.651  1.00  0.00     0.277 HD
ATOM      5  H11 UNL     1      37.566  37.162  14.953  1.00  0.00     0.277 HD
ENDBRANCH   1   2
BRANCH   1   6
HETATM    6  N2  UNL     1      35.435  38.522  16.977  1.00  0.00    -0.045 N 
ATOM      7  H23 UNL     1      34.916  37.954  17.646  1.00  0.00     0.277 HD
ATOM      8  H22 UNL     1      35.574  39.348  17.560  1.00  0.00     0.277 HD
ATOM      9  H21 UNL     1      34.886  38.729  16.143  1.00  0.00     0.277 HD
ENDBRANCH   1   6
BRANCH   1  10
HETATM   10  C2  UNL     1      36.840  36.711  17.508  1.00  0.00     0.081 A 
HETATM   11  C3  UNL     1      36.894  36.730  18.891  1.00  0.00     0.097 A 
HETATM   12  S1  UNL     1      37.027  35.062  18.853  1.00  0.00    -0.024 SA
HETATM   13  N3  UNL     1      36.936  35.389  17.215  1.00  0.00    -0.326 N 
ATOM     14  H3  UNL     1      36.948  34.833  16.361  1.00  0.00     0.174 HD
ENDBRANCH   1  10
TORSDOF 3
ENDMDL
MODEL 4
REMARK VINA RESULT: -3.914834922      1.053      1.752
REMARK  3 active torsions:
REMARK  status: ('A' for Active; 'I' for Inactive)
REMARK    1  A    between atoms: N1_1  and  C1_5 
REMARK    2  A    between atoms: C1_5  and  N2_6 
REMARK    3  A    between atoms: C1_5  and  C2_10 
ROOT
HETATM    1  C1  UNL     1      36.696  37.932  16.651  1.00  0.00     0.428 C 
ENDROOT
BRANCH   1   2
HETATM    2  N1  UNL     1      36.644  37.460  15.334  1.00  0.00    -0.045 N 
ATOM      3  H13 UNL     1      36.005  36.671  15.235  1.00  0.00     0.277 HD
ATOM      4  H12 UNL     1      36.171  38.114  14.711  1.00  0.00     0.277 HD
ATOM      5  H11 UNL     1      37.585  37.234  15.009  1.00  0.00     0.277 HD
ENDBRANCH   1   2
BRANCH   1   6
HETATM    6  N2  UNL     1      35.415  38.554  17.009  1.00  0.00    -0.045 N 
ATOM      7  H23 UNL     1      35.219  38.479  18.007  1.00  0.00     0.277 HD
ATOM      8  H22 UNL     1      35.450  39.571  16.940  1.00  0.00     0.277 HD
ATOM      9  H21 UNL     1      34.666  38.157  16.441  1.00  0.00     0.277 HD
ENDBRANCH   1   6
BRANCH   1  10
HETATM   10  C2  UNL     1      36.831  36.768  17.591  1.00  0.00     0.081 A 
HETATM   11  C3  UNL     1      37.018  35.440  17.247  1.00  0.00     0.097 A 
HETATM   12  S1  UNL     1      37.030  35.076  18.881  1.00  0.00    -0.024 SA
HETATM   13  N3  UNL     1      36.805  36.733  18.948  1.00  0.00    -0.326 N 
ATOM     14  H3  UNL     1      36.694  37.422  19.690  1.00  0.00     0.174 HD
ENDBRANCH   1  10
TORSDOF 3
ENDMDL
MODEL 5
REMARK VINA RESULT: -3.884737384      1.037      1.088
REMARK  3 active torsions:
REMARK  status: ('A' for Active; 'I' for Inactive)
REMARK    1  A    between atoms: N1_1  and  C1_5 
REMARK    2  A    between atoms: C1_5  and  N2_6 
REMARK    3  A    between atoms: C1_5  and  C2_10 
ROOT
HETATM    1  C1  UNL     1      36.405  37.000  16.696  1.00  0.00     0.428 C 
ENDROOT
BRANCH   1   2
HETATM    2  N1  UNL     1      35.028  36.986  16.445  1.00  0.00    -0.045 N 
ATOM      3  H13 UNL     1      34.484  37.215  17.277  1.00  0.00     0.277 HD
ATOM      4  H12 UNL     1      34.738  37.767  15.858  1.00  0.00     0.277 HD
ATOM      5  H11 UNL     1      34.757  36.086  16.046  1.00  0.00     0.277 HD
ENDBRANCH   1   2
BRANCH   1   6
HETATM    6  N2  UNL     1      36.826  38.350  17.094  1.00  0.00    -0.045 N 
ATOM      7  H23 UNL     1      36.560  39.052  16.405  1.00  0.00     0.277 HD
ATOM      8  H22 UNL     1      36.284  38.703  17.883  1.00  0.00     0.277 HD
ATOM      9  H21 UNL     1      37.828  38.359  17.284  1.00  0.00     0.277 HD
ENDBRANCH   1   6
BRANCH   1  10
HETATM   10  C2  UNL     1      36.701  36.140  17.892  1.00  0.00     0.081 A 
HETATM   11  C3  UNL     1      37.046  36.572  19.161  1.00  0.00     0.097 A 
HETATM   12  S1  UNL     1      37.131  34.966  19.625  1.00  0.00    -0.024 SA
HETATM   13  N3  UNL     1      36.702  34.788  18.017  1.00  0.00    -0.326 N 
ATOM     14  H3  UNL     1      36.520  34.001  17.396  1.00  0.00     0.174 HD
ENDBRANCH   1  10
TORSDOF 3
ENDMDL
