MODEL 1
REMARK VINA RESULT: -7.398710757      0.000      0.000
REMARK  14 active torsions:
REMARK  status: ('A' for Active; 'I' for Inactive)
REMARK    1  A    between atoms: C2_2  and  C4_4 
REMARK    2  A    between atoms: C2_2  and  N3_33 
REMARK    3  A    between atoms: C4_4  and  C5_5 
REMARK    4  A    between atoms: C5_5  and  N1_6 
REMARK    5  A    between atoms: C5_5  and  C22_27 
REMARK    6  A    between atoms: N1_6  and  C6_8 
REMARK    7  A    between atoms: C6_8  and  C7_9 
REMARK    8  A    between atoms: C6_8  and  C14_16 
REMARK    9  A    between atoms: C7_9  and  C8_10 
REMARK   10  A    between atoms: C14_16  and  O1_17 
REMARK   11  A    between atoms: C14_16  and  N2_19 
REMARK   12  A    between atoms: N3_33  and  C28_35 
REMARK   13  A    between atoms: C28_35  and  C29_36 
REMARK   14  A    between atoms: C28_35  and  C30_39 
ROOT
HETATM    1  N1  UNL     1      34.621  25.534  21.654  1.00  0.00    -0.406 N 
ATOM      2  H1  UNL     1      34.401  25.451  22.647  1.00  0.00     0.154 HD
ENDROOT
BRANCH   1   3
HETATM    3  C5  UNL     1      34.380  24.436  20.722  1.00  0.00     0.083 C 
BRANCH   3   4
HETATM    4  C4  UNL     1      34.552  23.171  21.360  1.00  0.00     0.054 C 
BRANCH   4   5
HETATM    5  C2  UNL     1      35.275  21.983  20.819  1.00  0.00     0.021 C 
HETATM    6  C1  UNL     1      34.881  21.636  19.406  1.00  0.00     0.037 C 
HETATM    7  C3  UNL     1      35.318  20.755  21.637  1.00  0.00     0.037 C 
BRANCH   5   8
HETATM    8  N3  UNL     1      36.683  22.455  20.746  1.00  0.00    -0.392 N 
ATOM      9  H3  UNL     1      36.983  23.077  19.995  1.00  0.00     0.155 HD
BRANCH   8  10
HETATM   10  C28 UNL     1      37.579  22.039  21.710  1.00  0.00     0.281 C 
BRANCH  10  11
HETATM   11  C29 UNL     1      38.953  21.921  21.049  1.00  0.00     0.207 C 
HETATM   12  O2  UNL     1      38.989  22.007  19.807  1.00  0.00    -0.646 OA
HETATM   13  O3  UNL     1      40.102  21.732  21.752  1.00  0.00    -0.646 OA
ENDBRANCH  10  11
BRANCH  10  14
HETATM   14  C30 UNL     1      37.864  22.910  22.869  1.00  0.00     0.207 C 
HETATM   15  O4  UNL     1      38.342  24.048  22.780  1.00  0.00    -0.646 OA
HETATM   16  O5  UNL     1      37.584  22.437  24.149  1.00  0.00    -0.646 OA
ENDBRANCH  10  14
ENDBRANCH   8  10
ENDBRANCH   5   8
ENDBRANCH   4   5
ENDBRANCH   3   4
BRANCH   3  17
HETATM   17  C22 UNL     1      33.240  24.854  19.883  1.00  0.00     0.008 C 
HETATM   18  C23 UNL     1      31.876  24.388  20.189  1.00  0.00     0.007 C 
HETATM   19  C24 UNL     1      30.938  24.924  19.095  1.00  0.00     0.000 C 
HETATM   20  C25 UNL     1      31.375  26.282  18.635  1.00  0.00     0.000 C 
HETATM   21  C26 UNL     1      32.693  26.302  17.929  1.00  0.00     0.000 C 
HETATM   22  C27 UNL     1      33.520  25.098  18.415  1.00  0.00     0.007 C 
ENDBRANCH   3  17
ENDBRANCH   1   3
BRANCH   1  23
HETATM   23  C6  UNL     1      35.188  26.752  21.100  1.00  0.00     0.152 C 
BRANCH  23  24
HETATM   24  C7  UNL     1      34.507  27.977  21.494  1.00  0.00     0.037 C 
BRANCH  24  25
HETATM   25  C8  UNL     1      33.719  28.724  20.449  1.00  0.00    -0.012 C 
HETATM   26  C9  UNL     1      34.323  30.134  20.418  1.00  0.00     0.005 C 
HETATM   27  C10 UNL     1      33.708  30.830  19.249  1.00  0.00     0.000 C 
HETATM   28  C11 UNL     1      32.240  30.974  19.490  1.00  0.00     0.000 C 
HETATM   29  C12 UNL     1      31.823  30.363  20.802  1.00  0.00     0.000 C 
HETATM   30  C13 UNL     1      32.282  28.935  20.919  1.00  0.00     0.005 C 
ENDBRANCH  24  25
ENDBRANCH  23  24
BRANCH  23  31
HETATM   31  C14 UNL     1      36.625  26.575  21.208  1.00  0.00     0.137 C 
BRANCH  31  32
HETATM   32  O1  UNL     1      36.939  26.409  22.510  1.00  0.00    -0.348 OA
ATOM     33  H1  UNL     1      37.882  26.327  22.584  1.00  0.00     0.219 HD
ENDBRANCH  31  32
BRANCH  31  34
HETATM   34  N2  UNL     1      37.749  26.533  20.405  1.00  0.00    -0.354 N 
HETATM   35  C15 UNL     1      38.338  25.486  19.609  1.00  0.00     0.130 C 
HETATM   36  C16 UNL     1      39.781  25.793  19.784  1.00  0.00     0.010 A 
HETATM   37  C17 UNL     1      40.755  26.491  19.044  1.00  0.00     0.014 A 
HETATM   38  C18 UNL     1      39.556  27.231  19.152  1.00  0.00     0.019 A 
HETATM   39  C19 UNL     1      38.708  27.686  20.239  1.00  0.00     0.031 C 
HETATM   40  C20 UNL     1      39.377  27.987  21.535  1.00  0.00     0.038 C 
HETATM   41  C21 UNL     1      37.870  28.870  19.838  1.00  0.00     0.038 C 
ENDBRANCH  31  34
ENDBRANCH  23  31
ENDBRANCH   1  23
TORSDOF 14
ENDMDL
MODEL 2
REMARK VINA RESULT: -7.222104981      1.168      2.131
REMARK  14 active torsions:
REMARK  status: ('A' for Active; 'I' for Inactive)
REMARK    1  A    between atoms: C2_2  and  C4_4 
REMARK    2  A    between atoms: C2_2  and  N3_33 
REMARK    3  A    between atoms: C4_4  and  C5_5 
REMARK    4  A    between atoms: C5_5  and  N1_6 
REMARK    5  A    between atoms: C5_5  and  C22_27 
REMARK    6  A    between atoms: N1_6  and  C6_8 
REMARK    7  A    between atoms: C6_8  and  C7_9 
REMARK    8  A    between atoms: C6_8  and  C14_16 
REMARK    9  A    between atoms: C7_9  and  C8_10 
REMARK   10  A    between atoms: C14_16  and  O1_17 
REMARK   11  A    between atoms: C14_16  and  N2_19 
REMARK   12  A    between atoms: N3_33  and  C28_35 
REMARK   13  A    between atoms: C28_35  and  C29_36 
REMARK   14  A    between atoms: C28_35  and  C30_39 
ROOT
HETATM    1  N1  UNL     1      34.109  26.613  21.475  1.00  0.00    -0.406 N 
ATOM      2  H1  UNL     1      33.806  26.351  22.413  1.00  0.00     0.154 HD
ENDROOT
BRANCH   1   3
HETATM    3  C5  UNL     1      34.230  25.626  20.406  1.00  0.00     0.083 C 
BRANCH   3   4
HETATM    4  C4  UNL     1      34.808  24.413  20.887  1.00  0.00     0.054 C 
BRANCH   4   5
HETATM    5  C2  UNL     1      35.561  23.398  20.091  1.00  0.00     0.021 C 
HETATM    6  C1  UNL     1      36.637  24.000  19.222  1.00  0.00     0.037 C 
HETATM    7  C3  UNL     1      34.793  22.406  19.313  1.00  0.00     0.037 C 
BRANCH   5   8
HETATM    8  N3  UNL     1      36.271  22.615  21.136  1.00  0.00    -0.392 N 
ATOM      9  H3  UNL     1      35.853  21.768  21.523  1.00  0.00     0.155 HD
BRANCH   8  10
HETATM   10  C28 UNL     1      37.504  23.051  21.575  1.00  0.00     0.281 C 
BRANCH  10  11
HETATM   11  C29 UNL     1      37.461  23.108  23.103  1.00  0.00     0.207 C 
HETATM   12  O2  UNL     1      37.404  24.239  23.622  1.00  0.00    -0.646 OA
HETATM   13  O3  UNL     1      37.482  21.999  23.889  1.00  0.00    -0.646 OA
ENDBRANCH  10  11
BRANCH  10  14
HETATM   14  C30 UNL     1      38.704  22.224  21.329  1.00  0.00     0.207 C 
HETATM   15  O4  UNL     1      38.720  21.230  20.591  1.00  0.00    -0.646 OA
HETATM   16  O5  UNL     1      39.897  22.568  21.958  1.00  0.00    -0.646 OA
ENDBRANCH  10  14
ENDBRANCH   8  10
ENDBRANCH   5   8
ENDBRANCH   4   5
ENDBRANCH   3   4
BRANCH   3  17
HETATM   17  C22 UNL     1      33.009  25.758  19.587  1.00  0.00     0.008 C 
HETATM   18  C23 UNL     1      31.814  24.952  19.892  1.00  0.00     0.007 C 
HETATM   19  C24 UNL     1      30.754  25.255  18.820  1.00  0.00     0.000 C 
HETATM   20  C25 UNL     1      30.824  26.689  18.391  1.00  0.00     0.000 C 
HETATM   21  C26 UNL     1      32.083  27.061  17.675  1.00  0.00     0.000 C 
HETATM   22  C27 UNL     1      33.196  26.098  18.123  1.00  0.00     0.007 C 
ENDBRANCH   3  17
ENDBRANCH   1   3
BRANCH   1  23
HETATM   23  C6  UNL     1      34.440  27.987  21.139  1.00  0.00     0.152 C 
BRANCH  23  24
HETATM   24  C7  UNL     1      33.492  28.980  21.622  1.00  0.00     0.037 C 
BRANCH  24  25
HETATM   25  C8  UNL     1      33.202  30.175  20.751  1.00  0.00    -0.012 C 
HETATM   26  C9  UNL     1      31.934  29.807  19.969  1.00  0.00     0.005 C 
HETATM   27  C10 UNL     1      31.502  31.049  19.259  1.00  0.00     0.000 C 
HETATM   28  C11 UNL     1      32.552  31.425  18.265  1.00  0.00     0.000 C 
HETATM   29  C12 UNL     1      33.720  30.476  18.292  1.00  0.00     0.000 C 
HETATM   30  C13 UNL     1      34.279  30.325  19.680  1.00  0.00     0.005 C 
ENDBRANCH  24  25
ENDBRANCH  23  24
BRANCH  23  31
HETATM   31  C14 UNL     1      35.873  28.088  21.357  1.00  0.00     0.137 C 
BRANCH  31  32
HETATM   32  O1  UNL     1      36.088  28.909  22.405  1.00  0.00    -0.348 OA
ATOM     33  H1  UNL     1      36.829  29.468  22.202  1.00  0.00     0.219 HD
ENDBRANCH  31  32
BRANCH  31  34
HETATM   34  N2  UNL     1      37.059  27.617  20.826  1.00  0.00    -0.354 N 
HETATM   35  C15 UNL     1      38.083  26.749  21.350  1.00  0.00     0.130 C 
HETATM   36  C16 UNL     1      39.293  27.363  20.744  1.00  0.00     0.010 A 
HETATM   37  C17 UNL     1      40.083  27.110  19.606  1.00  0.00     0.014 A 
HETATM   38  C18 UNL     1      38.705  27.102  19.294  1.00  0.00     0.019 A 
HETATM   39  C19 UNL     1      37.592  28.016  19.472  1.00  0.00     0.031 C 
HETATM   40  C20 UNL     1      37.905  29.472  19.452  1.00  0.00     0.038 C 
HETATM   41  C21 UNL     1      36.482  27.745  18.492  1.00  0.00     0.038 C 
ENDBRANCH  31  34
ENDBRANCH  23  31
ENDBRANCH   1  23
TORSDOF 14
ENDMDL
MODEL 3
REMARK VINA RESULT: -7.156242498      1.645      2.461
REMARK  14 active torsions:
REMARK  status: ('A' for Active; 'I' for Inactive)
REMARK    1  A    between atoms: C2_2  and  C4_4 
REMARK    2  A    between atoms: C2_2  and  N3_33 
REMARK    3  A    between atoms: C4_4  and  C5_5 
REMARK    4  A    between atoms: C5_5  and  N1_6 
REMARK    5  A    between atoms: C5_5  and  C22_27 
REMARK    6  A    between atoms: N1_6  and  C6_8 
REMARK    7  A    between atoms: C6_8  and  C7_9 
REMARK    8  A    between atoms: C6_8  and  C14_16 
REMARK    9  A    between atoms: C7_9  and  C8_10 
REMARK   10  A    between atoms: C14_16  and  O1_17 
REMARK   11  A    between atoms: C14_16  and  N2_19 
REMARK   12  A    between atoms: N3_33  and  C28_35 
REMARK   13  A    between atoms: C28_35  and  C29_36 
REMARK   14  A    between atoms: C28_35  and  C30_39 
ROOT
HETATM    1  N1  UNL     1      33.322  25.557  20.914  1.00  0.00    -0.406 N 
ATOM      2  H1  UNL     1      32.373  25.243  21.120  1.00  0.00     0.154 HD
ENDROOT
BRANCH   1   3
HETATM    3  C5  UNL     1      34.276  24.703  20.212  1.00  0.00     0.083 C 
BRANCH   3   4
HETATM    4  C4  UNL     1      34.210  23.358  20.686  1.00  0.00     0.054 C 
BRANCH   4   5
HETATM    5  C2  UNL     1      35.359  22.451  20.977  1.00  0.00     0.021 C 
HETATM    6  C1  UNL     1      35.690  21.521  19.837  1.00  0.00     0.037 C 
HETATM    7  C3  UNL     1      35.353  21.696  22.246  1.00  0.00     0.037 C 
BRANCH   5   8
HETATM    8  N3  UNL     1      36.507  23.390  21.084  1.00  0.00    -0.392 N 
ATOM      9  H3  UNL     1      36.350  24.382  21.262  1.00  0.00     0.155 HD
BRANCH   8  10
HETATM   10  C28 UNL     1      37.788  22.898  20.939  1.00  0.00     0.281 C 
BRANCH  10  11
HETATM   11  C29 UNL     1      38.540  23.830  19.987  1.00  0.00     0.207 C 
HETATM   12  O2  UNL     1      38.434  23.594  18.769  1.00  0.00    -0.646 OA
HETATM   13  O3  UNL     1      39.296  24.876  20.416  1.00  0.00    -0.646 OA
ENDBRANCH  10  11
BRANCH  10  14
HETATM   14  C30 UNL     1      38.692  22.851  22.107  1.00  0.00     0.207 C 
HETATM   15  O4  UNL     1      38.423  23.344  23.210  1.00  0.00    -0.646 OA
HETATM   16  O5  UNL     1      39.925  22.218  21.977  1.00  0.00    -0.646 OA
ENDBRANCH  10  14
ENDBRANCH   8  10
ENDBRANCH   5   8
ENDBRANCH   4   5
ENDBRANCH   3   4
BRANCH   3  17
HETATM   17  C22 UNL     1      34.262  25.144  18.804  1.00  0.00     0.008 C 
HETATM   18  C23 UNL     1      32.985  25.371  18.105  1.00  0.00     0.007 C 
HETATM   19  C24 UNL     1      33.305  25.739  16.646  1.00  0.00     0.000 C 
HETATM   20  C25 UNL     1      34.567  26.543  16.563  1.00  0.00     0.000 C 
HETATM   21  C26 UNL     1      35.803  25.800  16.957  1.00  0.00     0.000 C 
HETATM   22  C27 UNL     1      35.400  24.672  17.924  1.00  0.00     0.007 C 
ENDBRANCH   3  17
ENDBRANCH   1   3
BRANCH   1  23
HETATM   23  C6  UNL     1      33.787  26.877  21.304  1.00  0.00     0.152 C 
BRANCH  23  24
HETATM   24  C7  UNL     1      32.741  27.880  21.434  1.00  0.00     0.037 C 
BRANCH  24  25
HETATM   25  C8  UNL     1      32.438  28.755  20.245  1.00  0.00    -0.012 C 
HETATM   26  C9  UNL     1      33.747  28.823  19.449  1.00  0.00     0.005 C 
HETATM   27  C10 UNL     1      33.422  29.504  18.160  1.00  0.00     0.000 C 
HETATM   28  C11 UNL     1      32.997  30.907  18.450  1.00  0.00     0.000 C 
HETATM   29  C12 UNL     1      32.999  31.202  19.926  1.00  0.00     0.000 C 
HETATM   30  C13 UNL     1      32.191  30.193  20.694  1.00  0.00     0.005 C 
ENDBRANCH  24  25
ENDBRANCH  23  24
BRANCH  23  31
HETATM   31  C14 UNL     1      34.780  26.631  22.335  1.00  0.00     0.137 C 
BRANCH  31  32
HETATM   32  O1  UNL     1      34.198  25.931  23.331  1.00  0.00    -0.348 OA
ATOM     33  H1  UNL     1      34.799  25.899  24.066  1.00  0.00     0.219 HD
ENDBRANCH  31  32
BRANCH  31  34
HETATM   34  N2  UNL     1      36.109  26.895  22.607  1.00  0.00    -0.354 N 
HETATM   35  C15 UNL     1      36.987  26.474  23.670  1.00  0.00     0.130 C 
HETATM   36  C16 UNL     1      37.814  27.697  23.837  1.00  0.00     0.010 A 
HETATM   37  C17 UNL     1      39.073  28.128  23.375  1.00  0.00     0.014 A 
HETATM   38  C18 UNL     1      38.293  27.585  22.329  1.00  0.00     0.019 A 
HETATM   39  C19 UNL     1      36.968  27.825  21.786  1.00  0.00     0.031 C 
HETATM   40  C20 UNL     1      36.446  29.217  21.872  1.00  0.00     0.038 C 
HETATM   41  C21 UNL     1      36.852  27.349  20.362  1.00  0.00     0.038 C 
ENDBRANCH  31  34
ENDBRANCH  23  31
ENDBRANCH   1  23
TORSDOF 14
ENDMDL
MODEL 4
REMARK VINA RESULT: -7.148570138      1.167      1.643
REMARK  14 active torsions:
REMARK  status: ('A' for Active; 'I' for Inactive)
REMARK    1  A    between atoms: C2_2  and  C4_4 
REMARK    2  A    between atoms: C2_2  and  N3_33 
REMARK    3  A    between atoms: C4_4  and  C5_5 
REMARK    4  A    between atoms: C5_5  and  N1_6 
REMARK    5  A    between atoms: C5_5  and  C22_27 
REMARK    6  A    between atoms: N1_6  and  C6_8 
REMARK    7  A    between atoms: C6_8  and  C7_9 
REMARK    8  A    between atoms: C6_8  and  C14_16 
REMARK    9  A    between atoms: C7_9  and  C8_10 
REMARK   10  A    between atoms: C14_16  and  O1_17 
REMARK   11  A    between atoms: C14_16  and  N2_19 
REMARK   12  A    between atoms: N3_33  and  C28_35 
REMARK   13  A    between atoms: C28_35  and  C29_36 
REMARK   14  A    between atoms: C28_35  and  C30_39 
ROOT
HETATM    1  N1  UNL     1      33.825  25.847  21.941  1.00  0.00    -0.406 N 
ATOM      2  H1  UNL     1      33.418  25.697  22.865  1.00  0.00     0.154 HD
ENDROOT
BRANCH   1   3
HETATM    3  C5  UNL     1      34.023  24.744  21.005  1.00  0.00     0.083 C 
BRANCH   3   4
HETATM    4  C4  UNL     1      34.328  23.531  21.692  1.00  0.00     0.054 C 
BRANCH   4   5
HETATM    5  C2  UNL     1      35.291  22.474  21.265  1.00  0.00     0.021 C 
HETATM    6  C1  UNL     1      34.965  21.878  19.919  1.00  0.00     0.037 C 
HETATM    7  C3  UNL     1      35.618  21.396  22.218  1.00  0.00     0.037 C 
BRANCH   5   8
HETATM    8  N3  UNL     1      36.557  23.232  21.080  1.00  0.00    -0.392 N 
ATOM      9  H3  UNL     1      36.552  24.252  21.055  1.00  0.00     0.155 HD
BRANCH   8  10
HETATM   10  C28 UNL     1      37.739  22.534  20.941  1.00  0.00     0.281 C 
BRANCH  10  11
HETATM   11  C29 UNL     1      38.421  23.022  19.662  1.00  0.00     0.207 C 
HETATM   12  O2  UNL     1      38.756  24.221  19.626  1.00  0.00    -0.646 OA
HETATM   13  O3  UNL     1      38.666  22.214  18.596  1.00  0.00    -0.646 OA
ENDBRANCH  10  11
BRANCH  10  14
HETATM   14  C30 UNL     1      38.809  22.699  21.947  1.00  0.00     0.207 C 
HETATM   15  O4  UNL     1      39.967  22.285  21.802  1.00  0.00    -0.646 OA
HETATM   16  O5  UNL     1      38.515  23.357  23.139  1.00  0.00    -0.646 OA
ENDBRANCH  10  14
ENDBRANCH   8  10
ENDBRANCH   5   8
ENDBRANCH   4   5
ENDBRANCH   3   4
BRANCH   3  17
HETATM   17  C22 UNL     1      33.017  24.927  19.940  1.00  0.00     0.008 C 
HETATM   18  C23 UNL     1      31.682  24.318  20.061  1.00  0.00     0.007 C 
HETATM   19  C24 UNL     1      30.906  24.619  18.768  1.00  0.00     0.000 C 
HETATM   20  C25 UNL     1      31.266  25.972  18.233  1.00  0.00     0.000 C 
HETATM   21  C26 UNL     1      32.681  26.096  17.764  1.00  0.00     0.000 C 
HETATM   22  C27 UNL     1      33.533  25.063  18.523  1.00  0.00     0.007 C 
ENDBRANCH   3  17
ENDBRANCH   1   3
BRANCH   1  23
HETATM   23  C6  UNL     1      34.237  27.167  21.496  1.00  0.00     0.152 C 
BRANCH  23  24
HETATM   24  C7  UNL     1      33.180  28.168  21.495  1.00  0.00     0.037 C 
BRANCH  24  25
HETATM   25  C8  UNL     1      32.891  28.902  20.211  1.00  0.00    -0.012 C 
HETATM   26  C9  UNL     1      33.529  30.286  20.384  1.00  0.00     0.005 C 
HETATM   27  C10 UNL     1      33.445  30.958  19.052  1.00  0.00     0.000 C 
HETATM   28  C11 UNL     1      32.006  31.164  18.706  1.00  0.00     0.000 C 
HETATM   29  C12 UNL     1      31.088  30.621  19.769  1.00  0.00     0.000 C 
HETATM   30  C13 UNL     1      31.396  29.184  20.086  1.00  0.00     0.005 C 
ENDBRANCH  24  25
ENDBRANCH  23  24
BRANCH  23  31
HETATM   31  C14 UNL     1      35.531  27.382  22.119  1.00  0.00     0.137 C 
BRANCH  31  32
HETATM   32  O1  UNL     1      35.336  27.670  23.422  1.00  0.00    -0.348 OA
ATOM     33  H1  UNL     1      36.150  27.518  23.888  1.00  0.00     0.219 HD
ENDBRANCH  31  32
BRANCH  31  34
HETATM   34  N2  UNL     1      36.874  27.391  21.791  1.00  0.00    -0.354 N 
HETATM   35  C15 UNL     1      38.060  27.049  22.535  1.00  0.00     0.130 C 
HETATM   36  C16 UNL     1      39.015  28.051  21.996  1.00  0.00     0.010 A 
HETATM   37  C17 UNL     1      40.008  28.054  20.997  1.00  0.00     0.014 A 
HETATM   38  C18 UNL     1      38.807  27.469  20.535  1.00  0.00     0.019 A 
HETATM   39  C19 UNL     1      37.414  27.869  20.465  1.00  0.00     0.031 C 
HETATM   40  C20 UNL     1      37.137  29.322  20.293  1.00  0.00     0.038 C 
HETATM   41  C21 UNL     1      36.663  27.102  19.410  1.00  0.00     0.038 C 
ENDBRANCH  31  34
ENDBRANCH  23  31
ENDBRANCH   1  23
TORSDOF 14
ENDMDL
MODEL 5
REMARK VINA RESULT: -7.091241310      2.474      4.275
REMARK  14 active torsions:
REMARK  status: ('A' for Active; 'I' for Inactive)
REMARK    1  A    between atoms: C2_2  and  C4_4 
REMARK    2  A    between atoms: C2_2  and  N3_33 
REMARK    3  A    between atoms: C4_4  and  C5_5 
REMARK    4  A    between atoms: C5_5  and  N1_6 
REMARK    5  A    between atoms: C5_5  and  C22_27 
REMARK    6  A    between atoms: N1_6  and  C6_8 
REMARK    7  A    between atoms: C6_8  and  C7_9 
REMARK    8  A    between atoms: C6_8  and  C14_16 
REMARK    9  A    between atoms: C7_9  and  C8_10 
REMARK   10  A    between atoms: C14_16  and  O1_17 
REMARK   11  A    between atoms: C14_16  and  N2_19 
REMARK   12  A    between atoms: N3_33  and  C28_35 
REMARK   13  A    between atoms: C28_35  and  C29_36 
REMARK   14  A    between atoms: C28_35  and  C30_39 
ROOT
HETATM    1  N1  UNL     1      36.975  28.864  20.248  1.00  0.00    -0.406 N 
ATOM      2  H1  UNL     1      37.666  29.554  20.543  1.00  0.00     0.154 HD
ENDROOT
BRANCH   1   3
HETATM    3  C5  UNL     1      36.916  27.534  20.849  1.00  0.00     0.083 C 
BRANCH   3   4
HETATM    4  C4  UNL     1      38.189  26.890  20.803  1.00  0.00     0.054 C 
BRANCH   4   5
HETATM    5  C2  UNL     1      38.501  25.556  20.211  1.00  0.00     0.021 C 
HETATM    6  C1  UNL     1      39.849  25.502  19.538  1.00  0.00     0.037 C 
HETATM    7  C3  UNL     1      37.489  24.918  19.347  1.00  0.00     0.037 C 
BRANCH   5   8
HETATM    8  N3  UNL     1      38.606  24.678  21.407  1.00  0.00    -0.392 N 
ATOM      9  H3  UNL     1      39.175  24.958  22.207  1.00  0.00     0.155 HD
BRANCH   8  10
HETATM   10  C28 UNL     1      37.923  23.479  21.417  1.00  0.00     0.281 C 
BRANCH  10  11
HETATM   11  C29 UNL     1      38.954  22.355  21.303  1.00  0.00     0.207 C 
HETATM   12  O2  UNL     1      38.590  21.315  20.724  1.00  0.00    -0.646 OA
HETATM   13  O3  UNL     1      40.217  22.452  21.799  1.00  0.00    -0.646 OA
ENDBRANCH  10  11
BRANCH  10  14
HETATM   14  C30 UNL     1      37.160  23.081  22.619  1.00  0.00     0.207 C 
HETATM   15  O4  UNL     1      35.955  22.801  22.613  1.00  0.00    -0.646 OA
HETATM   16  O5  UNL     1      37.822  23.014  23.842  1.00  0.00    -0.646 OA
ENDBRANCH  10  14
ENDBRANCH   8  10
ENDBRANCH   5   8
ENDBRANCH   4   5
ENDBRANCH   3   4
BRANCH   3  17
HETATM   17  C22 UNL     1      36.029  27.654  22.021  1.00  0.00     0.008 C 
HETATM   18  C23 UNL     1      36.158  28.796  22.943  1.00  0.00     0.007 C 
HETATM   19  C24 UNL     1      35.160  28.590  24.094  1.00  0.00     0.000 C 
HETATM   20  C25 UNL     1      33.908  27.929  23.602  1.00  0.00     0.000 C 
HETATM   21  C26 UNL     1      34.096  26.526  23.120  1.00  0.00     0.000 C 
HETATM   22  C27 UNL     1      35.556  26.365  22.661  1.00  0.00     0.007 C 
ENDBRANCH   3  17
ENDBRANCH   1   3
BRANCH   1  23
HETATM   23  C6  UNL     1      36.002  29.158  19.210  1.00  0.00     0.152 C 
BRANCH  23  24
HETATM   24  C7  UNL     1      35.167  30.322  19.468  1.00  0.00     0.037 C 
BRANCH  24  25
HETATM   25  C8  UNL     1      33.893  30.130  20.249  1.00  0.00    -0.012 C 
HETATM   26  C9  UNL     1      33.288  28.823  19.720  1.00  0.00     0.005 C 
HETATM   27  C10 UNL     1      32.141  28.496  20.619  1.00  0.00     0.000 C 
HETATM   28  C11 UNL     1      31.102  29.561  20.483  1.00  0.00     0.000 C 
HETATM   29  C12 UNL     1      31.524  30.639  19.519  1.00  0.00     0.000 C 
HETATM   30  C13 UNL     1      32.873  31.202  19.873  1.00  0.00     0.005 C 
ENDBRANCH  24  25
ENDBRANCH  23  24
BRANCH  23  31
HETATM   31  C14 UNL     1      36.718  28.958  17.962  1.00  0.00     0.137 C 
BRANCH  31  32
HETATM   32  O1  UNL     1      37.301  30.122  17.612  1.00  0.00    -0.348 OA
ATOM     33  H1  UNL     1      38.211  29.951  17.400  1.00  0.00     0.219 HD
ENDBRANCH  31  32
BRANCH  31  34
HETATM   34  N2  UNL     1      36.972  27.963  17.038  1.00  0.00    -0.354 N 
HETATM   35  C15 UNL     1      38.191  27.330  16.599  1.00  0.00     0.130 C 
HETATM   36  C16 UNL     1      37.879  27.109  15.164  1.00  0.00     0.010 A 
HETATM   37  C17 UNL     1      37.398  26.030  14.396  1.00  0.00     0.014 A 
HETATM   38  C18 UNL     1      36.630  26.218  15.568  1.00  0.00     0.019 A 
HETATM   39  C19 UNL     1      35.911  27.323  16.175  1.00  0.00     0.031 C 
HETATM   40  C20 UNL     1      35.322  28.333  15.253  1.00  0.00     0.038 C 
HETATM   41  C21 UNL     1      34.841  26.844  17.120  1.00  0.00     0.038 C 
ENDBRANCH  31  34
ENDBRANCH  23  31
ENDBRANCH   1  23
TORSDOF 14
ENDMDL
