MODEL 1
REMARK VINA RESULT: -6.734054652      0.000      0.000
REMARK  13 active torsions:
REMARK  status: ('A' for Active; 'I' for Inactive)
REMARK    1  A    between atoms: C2_2  and  C3_3 
REMARK    2  A    between atoms: C3_3  and  C5_5 
REMARK    3  A    between atoms: C5_5  and  N1_6 
REMARK    4  A    between atoms: C5_5  and  C26_34 
REMARK       I    between atoms: N1_6  and  C6_8 
REMARK    5  A    between atoms: C6_8  and  C7_10 
REMARK    6  A    between atoms: C7_10  and  N2_11 
REMARK    7  A    between atoms: C7_10  and  C22_30 
REMARK       I    between atoms: N2_11  and  C8_13 
REMARK    8  A    between atoms: C8_13  and  C9_15 
REMARK    9  A    between atoms: C9_15  and  C10_16 
REMARK   10  A    between atoms: C9_15  and  N3_23 
REMARK   11  A    between atoms: C10_16  and  C11_17 
REMARK   12  A    between atoms: N3_23  and  C17_25 
REMARK       I    between atoms: C26_34  and  N4_36 
REMARK   13  A    between atoms: C29_39  and  O4_40 
ROOT
HETATM    1  C7  UNL     1      36.601  26.810  18.034  1.00  0.00     0.184 C 
ENDROOT
BRANCH   1   2
HETATM    2  C6  UNL     1      36.722  25.386  18.274  1.00  0.00     0.241 C 
HETATM    3  N1  UNL     1      35.690  24.432  18.338  1.00  0.00    -0.346 N 
ATOM      4  H1  UNL     1      34.721  24.725  18.205  1.00  0.00     0.163 HD
HETATM    5  O1  UNL     1      37.890  24.921  18.454  1.00  0.00    -0.271 OA
BRANCH   3   6
HETATM    6  C5  UNL     1      35.999  23.002  18.597  1.00  0.00     0.180 C 
BRANCH   6   7
HETATM    7  C3  UNL     1      35.118  22.127  17.781  1.00  0.00     0.013 C 
HETATM    8  C4  UNL     1      34.425  22.880  16.660  1.00  0.00     0.012 C 
BRANCH   7   9
HETATM    9  C2  UNL     1      35.873  20.965  17.149  1.00  0.00     0.002 C 
HETATM   10  C1  UNL     1      37.251  21.529  16.801  1.00  0.00     0.005 C 
ENDBRANCH   7   9
ENDBRANCH   6   7
BRANCH   6  11
HETATM   11  C26 UNL     1      35.777  22.704  20.039  1.00  0.00     0.243 C 
HETATM   12  O3  UNL     1      34.602  22.898  20.482  1.00  0.00    -0.271 OA
HETATM   13  N4  UNL     1      36.749  22.237  20.929  1.00  0.00    -0.348 N 
HETATM   14  C27 UNL     1      38.134  21.968  20.614  1.00  0.00     0.128 C 
HETATM   15  C30 UNL     1      36.533  21.948  22.331  1.00  0.00     0.157 C 
HETATM   16  C28 UNL     1      38.910  22.252  21.883  1.00  0.00     0.053 C 
HETATM   17  C29 UNL     1      37.891  22.097  22.990  1.00  0.00     0.137 C 
BRANCH  17  18
HETATM   18  O4  UNL     1      37.819  23.230  23.794  1.00  0.00    -0.394 OA
ATOM     19  H4  UNL     1      37.531  23.023  24.675  1.00  0.00     0.210 HD
ENDBRANCH  17  18
ENDBRANCH   6  11
ENDBRANCH   3   6
ENDBRANCH   1   2
BRANCH   1  20
HETATM   20  N2  UNL     1      35.926  27.495  19.101  1.00  0.00    -0.345 N 
HETATM   21  C8  UNL     1      36.447  28.447  20.026  1.00  0.00     0.240 C 
HETATM   22  O2  UNL     1      37.687  28.696  19.942  1.00  0.00    -0.271 OA
ATOM     23  H2  UNL     1      34.938  27.270  19.212  1.00  0.00     0.163 HD
BRANCH  21  24
HETATM   24  C9  UNL     1      35.575  29.088  21.012  1.00  0.00     0.170 C 
BRANCH  24  25
HETATM   25  C10 UNL     1      34.352  28.340  21.475  1.00  0.00     0.039 C 
BRANCH  25  26
HETATM   26  C11 UNL     1      34.199  27.852  22.845  1.00  0.00    -0.012 C 
HETATM   27  C12 UNL     1      35.018  28.434  23.928  1.00  0.00     0.005 C 
HETATM   28  C13 UNL     1      36.463  27.940  23.826  1.00  0.00     0.000 C 
HETATM   29  C14 UNL     1      36.503  26.454  23.839  1.00  0.00     0.000 C 
HETATM   30  C15 UNL     1      35.587  25.773  22.873  1.00  0.00     0.000 C 
HETATM   31  C16 UNL     1      34.182  26.321  22.918  1.00  0.00     0.005 C 
ENDBRANCH  25  26
ENDBRANCH  24  25
BRANCH  24  32
HETATM   32  N3  UNL     1      35.065  30.342  20.470  1.00  0.00    -0.405 N 
ATOM     33  H3  UNL     1      35.474  31.219  20.792  1.00  0.00     0.154 HD
BRANCH  32  34
HETATM   34  C17 UNL     1      34.063  30.385  19.551  1.00  0.00     0.077 C 
HETATM   35  C18 UNL     1      32.872  31.277  19.939  1.00  0.00     0.024 C 
HETATM   36  C19 UNL     1      31.927  31.017  18.790  1.00  0.00     0.002 C 
HETATM   37  C20 UNL     1      32.777  30.538  17.634  1.00  0.00     0.002 C 
HETATM   38  C21 UNL     1      34.212  30.759  18.145  1.00  0.00     0.024 C 
ENDBRANCH  32  34
ENDBRANCH  24  32
ENDBRANCH  21  24
ENDBRANCH   1  20
BRANCH   1  39
HETATM   39  C22 UNL     1      36.172  27.237  16.665  1.00  0.00    -0.022 C 
HETATM   40  C23 UNL     1      34.676  27.410  16.535  1.00  0.00     0.017 C 
HETATM   41  C24 UNL     1      36.697  26.373  15.553  1.00  0.00     0.017 C 
HETATM   42  C25 UNL     1      36.745  28.641  16.339  1.00  0.00     0.017 C 
ENDBRANCH   1  39
TORSDOF 13
ENDMDL
MODEL 2
REMARK VINA RESULT: -6.731822869      2.108      7.282
REMARK  13 active torsions:
REMARK  status: ('A' for Active; 'I' for Inactive)
REMARK    1  A    between atoms: C2_2  and  C3_3 
REMARK    2  A    between atoms: C3_3  and  C5_5 
REMARK    3  A    between atoms: C5_5  and  N1_6 
REMARK    4  A    between atoms: C5_5  and  C26_34 
REMARK       I    between atoms: N1_6  and  C6_8 
REMARK    5  A    between atoms: C6_8  and  C7_10 
REMARK    6  A    between atoms: C7_10  and  N2_11 
REMARK    7  A    between atoms: C7_10  and  C22_30 
REMARK       I    between atoms: N2_11  and  C8_13 
REMARK    8  A    between atoms: C8_13  and  C9_15 
REMARK    9  A    between atoms: C9_15  and  C10_16 
REMARK   10  A    between atoms: C9_15  and  N3_23 
REMARK   11  A    between atoms: C10_16  and  C11_17 
REMARK   12  A    between atoms: N3_23  and  C17_25 
REMARK       I    between atoms: C26_34  and  N4_36 
REMARK   13  A    between atoms: C29_39  and  O4_40 
ROOT
HETATM    1  C7  UNL     1      33.626  26.061  18.458  1.00  0.00     0.184 C 
ENDROOT
BRANCH   1   2
HETATM    2  C6  UNL     1      33.517  27.197  19.352  1.00  0.00     0.241 C 
HETATM    3  N1  UNL     1      34.445  28.236  19.543  1.00  0.00    -0.346 N 
ATOM      4  H1  UNL     1      35.317  28.240  19.013  1.00  0.00     0.163 HD
HETATM    5  O1  UNL     1      32.465  27.283  20.061  1.00  0.00    -0.271 OA
BRANCH   3   6
HETATM    6  C5  UNL     1      34.166  29.328  20.512  1.00  0.00     0.180 C 
BRANCH   6   7
HETATM    7  C3  UNL     1      34.037  30.627  19.802  1.00  0.00     0.013 C 
HETATM    8  C4  UNL     1      34.439  30.535  18.341  1.00  0.00     0.012 C 
BRANCH   7   9
HETATM    9  C2  UNL     1      32.619  31.180  19.851  1.00  0.00     0.002 C 
HETATM   10  C1  UNL     1      32.246  31.447  18.393  1.00  0.00     0.005 C 
ENDBRANCH   7   9
ENDBRANCH   6   7
BRANCH   6  11
HETATM   11  C26 UNL     1      35.287  29.418  21.487  1.00  0.00     0.243 C 
HETATM   12  O3  UNL     1      36.154  30.322  21.271  1.00  0.00    -0.271 OA
HETATM   13  N4  UNL     1      35.457  28.595  22.605  1.00  0.00    -0.348 N 
HETATM   14  C27 UNL     1      34.587  27.512  23.006  1.00  0.00     0.128 C 
HETATM   15  C30 UNL     1      36.548  28.682  23.553  1.00  0.00     0.157 C 
HETATM   16  C28 UNL     1      35.478  26.496  23.688  1.00  0.00     0.053 C 
HETATM   17  C29 UNL     1      36.673  27.296  24.156  1.00  0.00     0.137 C 
BRANCH  17  18
HETATM   18  O4  UNL     1      37.870  26.766  23.688  1.00  0.00    -0.394 OA
ATOM     19  H4  UNL     1      38.007  26.953  22.766  1.00  0.00     0.210 HD
ENDBRANCH  17  18
ENDBRANCH   6  11
ENDBRANCH   3   6
ENDBRANCH   1   2
BRANCH   1  20
HETATM   20  N2  UNL     1      34.634  25.126  18.872  1.00  0.00    -0.345 N 
HETATM   21  C8  UNL     1      34.476  23.800  19.372  1.00  0.00     0.240 C 
HETATM   22  O2  UNL     1      33.286  23.394  19.526  1.00  0.00    -0.271 OA
ATOM     23  H2  UNL     1      35.596  25.456  18.799  1.00  0.00     0.163 HD
BRANCH  21  24
HETATM   24  C9  UNL     1      35.643  22.974  19.684  1.00  0.00     0.170 C 
BRANCH  24  25
HETATM   25  C10 UNL     1      36.967  23.348  19.071  1.00  0.00     0.039 C 
BRANCH  25  26
HETATM   26  C11 UNL     1      38.025  24.017  19.828  1.00  0.00    -0.012 C 
HETATM   27  C12 UNL     1      39.320  23.341  20.036  1.00  0.00     0.005 C 
HETATM   28  C13 UNL     1      39.175  22.221  21.070  1.00  0.00     0.000 C 
HETATM   29  C14 UNL     1      38.620  22.760  22.340  1.00  0.00     0.000 C 
HETATM   30  C15 UNL     1      37.385  23.590  22.207  1.00  0.00     0.000 C 
HETATM   31  C16 UNL     1      37.502  24.639  21.128  1.00  0.00     0.005 C 
ENDBRANCH  25  26
ENDBRANCH  24  25
BRANCH  24  32
HETATM   32  N3  UNL     1      35.401  21.603  19.248  1.00  0.00    -0.405 N 
ATOM     33  H3  UNL     1      35.379  21.403  18.248  1.00  0.00     0.154 HD
BRANCH  32  34
HETATM   34  C17 UNL     1      35.203  20.583  20.125  1.00  0.00     0.077 C 
HETATM   35  C18 UNL     1      35.218  19.181  19.495  1.00  0.00     0.024 C 
HETATM   36  C19 UNL     1      34.870  18.321  20.688  1.00  0.00     0.002 C 
HETATM   37  C20 UNL     1      35.246  19.119  21.917  1.00  0.00     0.002 C 
HETATM   38  C21 UNL     1      35.995  20.328  21.329  1.00  0.00     0.024 C 
ENDBRANCH  32  34
ENDBRANCH  24  32
ENDBRANCH  21  24
ENDBRANCH   1  20
BRANCH   1  39
HETATM   39  C22 UNL     1      33.624  26.348  16.989  1.00  0.00    -0.022 C 
HETATM   40  C23 UNL     1      35.013  26.466  16.402  1.00  0.00     0.017 C 
HETATM   41  C24 UNL     1      32.786  27.529  16.588  1.00  0.00     0.017 C 
HETATM   42  C25 UNL     1      32.986  25.166  16.215  1.00  0.00     0.017 C 
ENDBRANCH   1  39
TORSDOF 13
ENDMDL
MODEL 3
REMARK VINA RESULT: -6.623199569      1.963      4.160
REMARK  13 active torsions:
REMARK  status: ('A' for Active; 'I' for Inactive)
REMARK    1  A    between atoms: C2_2  and  C3_3 
REMARK    2  A    between atoms: C3_3  and  C5_5 
REMARK    3  A    between atoms: C5_5  and  N1_6 
REMARK    4  A    between atoms: C5_5  and  C26_34 
REMARK       I    between atoms: N1_6  and  C6_8 
REMARK    5  A    between atoms: C6_8  and  C7_10 
REMARK    6  A    between atoms: C7_10  and  N2_11 
REMARK    7  A    between atoms: C7_10  and  C22_30 
REMARK       I    between atoms: N2_11  and  C8_13 
REMARK    8  A    between atoms: C8_13  and  C9_15 
REMARK    9  A    between atoms: C9_15  and  C10_16 
REMARK   10  A    between atoms: C9_15  and  N3_23 
REMARK   11  A    between atoms: C10_16  and  C11_17 
REMARK   12  A    between atoms: N3_23  and  C17_25 
REMARK       I    between atoms: C26_34  and  N4_36 
REMARK   13  A    between atoms: C29_39  and  O4_40 
ROOT
HETATM    1  C7  UNL     1      36.779  25.832  17.918  1.00  0.00     0.184 C 
ENDROOT
BRANCH   1   2
HETATM    2  C6  UNL     1      37.428  25.238  19.071  1.00  0.00     0.241 C 
HETATM    3  N1  UNL     1      36.829  24.802  20.267  1.00  0.00    -0.346 N 
ATOM      4  H1  UNL     1      35.820  24.889  20.389  1.00  0.00     0.163 HD
HETATM    5  O1  UNL     1      38.688  25.087  19.019  1.00  0.00    -0.271 OA
BRANCH   3   6
HETATM    6  C5  UNL     1      37.656  24.214  21.353  1.00  0.00     0.180 C 
BRANCH   6   7
HETATM    7  C3  UNL     1      37.318  22.779  21.541  1.00  0.00     0.013 C 
HETATM    8  C4  UNL     1      35.939  22.431  21.009  1.00  0.00     0.012 C 
BRANCH   7   9
HETATM    9  C2  UNL     1      38.316  21.852  20.861  1.00  0.00     0.002 C 
HETATM   10  C1  UNL     1      39.656  22.151  21.532  1.00  0.00     0.005 C 
ENDBRANCH   7   9
ENDBRANCH   6   7
BRANCH   6  11
HETATM   11  C26 UNL     1      37.390  24.945  22.623  1.00  0.00     0.243 C 
HETATM   12  O3  UNL     1      37.144  24.232  23.645  1.00  0.00    -0.271 OA
HETATM   13  N4  UNL     1      37.387  26.335  22.773  1.00  0.00    -0.348 N 
HETATM   14  C27 UNL     1      37.633  27.305  21.729  1.00  0.00     0.128 C 
HETATM   15  C30 UNL     1      37.127  27.046  24.007  1.00  0.00     0.157 C 
HETATM   16  C28 UNL     1      36.811  28.524  22.094  1.00  0.00     0.053 C 
HETATM   17  C29 UNL     1      36.615  28.411  23.589  1.00  0.00     0.137 C 
BRANCH  17  18
HETATM   18  O4  UNL     1      35.270  28.454  23.943  1.00  0.00    -0.394 OA
ATOM     19  H4  UNL     1      34.900  27.585  24.042  1.00  0.00     0.210 HD
ENDBRANCH  17  18
ENDBRANCH   6  11
ENDBRANCH   3   6
ENDBRANCH   1   2
BRANCH   1  20
HETATM   20  N2  UNL     1      36.112  27.064  18.232  1.00  0.00    -0.345 N 
HETATM   21  C8  UNL     1      36.643  28.387  18.269  1.00  0.00     0.240 C 
HETATM   22  O2  UNL     1      37.885  28.502  18.046  1.00  0.00    -0.271 OA
ATOM     23  H2  UNL     1      35.121  26.982  18.460  1.00  0.00     0.163 HD
BRANCH  21  24
HETATM   24  C9  UNL     1      35.779  29.533  18.553  1.00  0.00     0.170 C 
BRANCH  24  25
HETATM   25  C10 UNL     1      34.389  29.267  19.071  1.00  0.00     0.039 C 
BRANCH  25  26
HETATM   26  C11 UNL     1      33.834  29.967  20.229  1.00  0.00    -0.012 C 
HETATM   27  C12 UNL     1      33.154  29.202  21.293  1.00  0.00     0.005 C 
HETATM   28  C13 UNL     1      31.778  28.731  20.814  1.00  0.00     0.000 C 
HETATM   29  C14 UNL     1      30.965  29.891  20.359  1.00  0.00     0.000 C 
HETATM   30  C15 UNL     1      31.635  30.810  19.390  1.00  0.00     0.000 C 
HETATM   31  C16 UNL     1      33.024  31.205  19.826  1.00  0.00     0.005 C 
ENDBRANCH  25  26
ENDBRANCH  24  25
BRANCH  24  32
HETATM   32  N3  UNL     1      35.582  30.310  17.334  1.00  0.00    -0.405 N 
ATOM     33  H3  UNL     1      36.309  30.965  17.047  1.00  0.00     0.154 HD
BRANCH  32  34
HETATM   34  C17 UNL     1      34.465  30.192  16.567  1.00  0.00     0.077 C 
HETATM   35  C18 UNL     1      33.840  31.528  16.133  1.00  0.00     0.024 C 
HETATM   36  C19 UNL     1      32.600  31.049  15.415  1.00  0.00     0.002 C 
HETATM   37  C20 UNL     1      32.874  29.625  14.986  1.00  0.00     0.002 C 
HETATM   38  C21 UNL     1      34.368  29.447  15.312  1.00  0.00     0.024 C 
ENDBRANCH  32  34
ENDBRANCH  24  32
ENDBRANCH  21  24
ENDBRANCH   1  20
BRANCH   1  39
HETATM   39  C22 UNL     1      35.990  24.917  17.034  1.00  0.00    -0.022 C 
HETATM   40  C23 UNL     1      34.497  25.019  17.250  1.00  0.00     0.017 C 
HETATM   41  C24 UNL     1      36.427  23.480  17.080  1.00  0.00     0.017 C 
HETATM   42  C25 UNL     1      36.185  25.312  15.548  1.00  0.00     0.017 C 
ENDBRANCH   1  39
TORSDOF 13
ENDMDL
MODEL 4
REMARK VINA RESULT: -6.542258015      2.111      7.008
REMARK  13 active torsions:
REMARK  status: ('A' for Active; 'I' for Inactive)
REMARK    1  A    between atoms: C2_2  and  C3_3 
REMARK    2  A    between atoms: C3_3  and  C5_5 
REMARK    3  A    between atoms: C5_5  and  N1_6 
REMARK    4  A    between atoms: C5_5  and  C26_34 
REMARK       I    between atoms: N1_6  and  C6_8 
REMARK    5  A    between atoms: C6_8  and  C7_10 
REMARK    6  A    between atoms: C7_10  and  N2_11 
REMARK    7  A    between atoms: C7_10  and  C22_30 
REMARK       I    between atoms: N2_11  and  C8_13 
REMARK    8  A    between atoms: C8_13  and  C9_15 
REMARK    9  A    between atoms: C9_15  and  C10_16 
REMARK   10  A    between atoms: C9_15  and  N3_23 
REMARK   11  A    between atoms: C10_16  and  C11_17 
REMARK   12  A    between atoms: N3_23  and  C17_25 
REMARK       I    between atoms: C26_34  and  N4_36 
REMARK   13  A    between atoms: C29_39  and  O4_40 
ROOT
HETATM    1  C7  UNL     1      32.505  26.185  19.127  1.00  0.00     0.184 C 
ENDROOT
BRANCH   1   2
HETATM    2  C6  UNL     1      32.811  27.379  19.890  1.00  0.00     0.241 C 
HETATM    3  N1  UNL     1      34.003  28.127  19.880  1.00  0.00    -0.346 N 
ATOM      4  H1  UNL     1      34.776  27.838  19.279  1.00  0.00     0.163 HD
HETATM    5  O1  UNL     1      31.911  27.820  20.671  1.00  0.00    -0.271 OA
BRANCH   3   6
HETATM    6  C5  UNL     1      34.144  29.333  20.736  1.00  0.00     0.180 C 
BRANCH   6   7
HETATM    7  C3  UNL     1      34.109  30.564  19.903  1.00  0.00     0.013 C 
HETATM    8  C4  UNL     1      34.480  30.299  18.455  1.00  0.00     0.012 C 
BRANCH   7   9
HETATM    9  C2  UNL     1      32.741  31.232  19.907  1.00  0.00     0.002 C 
HETATM   10  C1  UNL     1      32.409  31.468  18.434  1.00  0.00     0.005 C 
ENDBRANCH   7   9
ENDBRANCH   6   7
BRANCH   6  11
HETATM   11  C26 UNL     1      35.444  29.274  21.459  1.00  0.00     0.243 C 
HETATM   12  O3  UNL     1      36.334  30.101  21.090  1.00  0.00    -0.271 OA
HETATM   13  N4  UNL     1      35.755  28.388  22.495  1.00  0.00    -0.348 N 
HETATM   14  C27 UNL     1      34.879  27.374  23.041  1.00  0.00     0.128 C 
HETATM   15  C30 UNL     1      37.019  28.330  23.198  1.00  0.00     0.157 C 
HETATM   16  C28 UNL     1      35.784  26.249  23.497  1.00  0.00     0.053 C 
HETATM   17  C29 UNL     1      37.124  26.912  23.727  1.00  0.00     0.137 C 
BRANCH  17  18
HETATM   18  O4  UNL     1      38.141  26.294  23.007  1.00  0.00    -0.394 OA
ATOM     19  H4  UNL     1      38.363  26.776  22.219  1.00  0.00     0.210 HD
ENDBRANCH  17  18
ENDBRANCH   6  11
ENDBRANCH   3   6
ENDBRANCH   1   2
BRANCH   1  20
HETATM   20  N2  UNL     1      33.609  25.269  19.067  1.00  0.00    -0.345 N 
HETATM   21  C8  UNL     1      34.030  24.308  20.032  1.00  0.00     0.240 C 
HETATM   22  O2  UNL     1      33.383  24.280  21.121  1.00  0.00    -0.271 OA
ATOM     23  H2  UNL     1      34.170  25.312  18.216  1.00  0.00     0.163 HD
BRANCH  21  24
HETATM   24  C9  UNL     1      35.155  23.413  19.756  1.00  0.00     0.170 C 
BRANCH  24  25
HETATM   25  C10 UNL     1      36.423  23.595  20.550  1.00  0.00     0.039 C 
BRANCH  25  26
HETATM   26  C11 UNL     1      37.328  22.486  20.852  1.00  0.00    -0.012 C 
HETATM   27  C12 UNL     1      36.782  21.136  21.091  1.00  0.00     0.005 C 
HETATM   28  C13 UNL     1      36.109  21.069  22.465  1.00  0.00     0.000 C 
HETATM   29  C14 UNL     1      37.066  21.477  23.528  1.00  0.00     0.000 C 
HETATM   30  C15 UNL     1      37.783  22.767  23.294  1.00  0.00     0.000 C 
HETATM   31  C16 UNL     1      38.373  22.863  21.909  1.00  0.00     0.005 C 
ENDBRANCH  25  26
ENDBRANCH  24  25
BRANCH  24  32
HETATM   32  N3  UNL     1      35.562  23.557  18.362  1.00  0.00    -0.405 N 
ATOM     33  H3  UNL     1      35.775  24.488  18.006  1.00  0.00     0.154 HD
BRANCH  32  34
HETATM   34  C17 UNL     1      35.667  22.493  17.520  1.00  0.00     0.077 C 
HETATM   35  C18 UNL     1      37.107  22.114  17.141  1.00  0.00     0.024 C 
HETATM   36  C19 UNL     1      36.863  21.005  16.144  1.00  0.00     0.002 C 
HETATM   37  C20 UNL     1      35.486  20.454  16.442  1.00  0.00     0.002 C 
HETATM   38  C21 UNL     1      35.107  21.162  17.756  1.00  0.00     0.024 C 
ENDBRANCH  32  34
ENDBRANCH  24  32
ENDBRANCH  21  24
ENDBRANCH   1  20
BRANCH   1  39
HETATM   39  C22 UNL     1      31.794  26.373  17.824  1.00  0.00    -0.022 C 
HETATM   40  C23 UNL     1      32.184  25.354  16.778  1.00  0.00     0.017 C 
HETATM   41  C24 UNL     1      31.888  27.763  17.260  1.00  0.00     0.017 C 
HETATM   42  C25 UNL     1      30.270  26.157  18.011  1.00  0.00     0.017 C 
ENDBRANCH   1  39
TORSDOF 13
ENDMDL
MODEL 5
REMARK VINA RESULT: -6.535682015      1.182      1.684
REMARK  13 active torsions:
REMARK  status: ('A' for Active; 'I' for Inactive)
REMARK    1  A    between atoms: C2_2  and  C3_3 
REMARK    2  A    between atoms: C3_3  and  C5_5 
REMARK    3  A    between atoms: C5_5  and  N1_6 
REMARK    4  A    between atoms: C5_5  and  C26_34 
REMARK       I    between atoms: N1_6  and  C6_8 
REMARK    5  A    between atoms: C6_8  and  C7_10 
REMARK    6  A    between atoms: C7_10  and  N2_11 
REMARK    7  A    between atoms: C7_10  and  C22_30 
REMARK       I    between atoms: N2_11  and  C8_13 
REMARK    8  A    between atoms: C8_13  and  C9_15 
REMARK    9  A    between atoms: C9_15  and  C10_16 
REMARK   10  A    between atoms: C9_15  and  N3_23 
REMARK   11  A    between atoms: C10_16  and  C11_17 
REMARK   12  A    between atoms: N3_23  and  C17_25 
REMARK       I    between atoms: C26_34  and  N4_36 
REMARK   13  A    between atoms: C29_39  and  O4_40 
ROOT
HETATM    1  C7  UNL     1      36.916  27.402  17.361  1.00  0.00     0.184 C 
ENDROOT
BRANCH   1   2
HETATM    2  C6  UNL     1      37.198  26.046  17.791  1.00  0.00     0.241 C 
HETATM    3  N1  UNL     1      36.359  24.921  17.698  1.00  0.00    -0.346 N 
ATOM      4  H1  UNL     1      35.431  25.014  17.285  1.00  0.00     0.163 HD
HETATM    5  O1  UNL     1      38.331  25.825  18.322  1.00  0.00    -0.271 OA
BRANCH   3   6
HETATM    6  C5  UNL     1      36.815  23.597  18.197  1.00  0.00     0.180 C 
BRANCH   6   7
HETATM    7  C3  UNL     1      36.343  22.515  17.293  1.00  0.00     0.013 C 
HETATM    8  C4  UNL     1      35.750  23.050  16.003  1.00  0.00     0.012 C 
BRANCH   7   9
HETATM    9  C2  UNL     1      37.454  21.545  16.916  1.00  0.00     0.002 C 
HETATM   10  C1  UNL     1      37.115  20.247  17.647  1.00  0.00     0.005 C 
ENDBRANCH   7   9
ENDBRANCH   6   7
BRANCH   6  11
HETATM   11  C26 UNL     1      36.260  23.367  19.559  1.00  0.00     0.243 C 
HETATM   12  O3  UNL     1      35.062  23.741  19.753  1.00  0.00    -0.271 OA
HETATM   13  N4  UNL     1      36.949  22.782  20.626  1.00  0.00    -0.348 N 
HETATM   14  C27 UNL     1      38.314  22.306  20.600  1.00  0.00     0.128 C 
HETATM   15  C30 UNL     1      36.410  22.559  21.951  1.00  0.00     0.157 C 
HETATM   16  C28 UNL     1      38.847  22.501  22.005  1.00  0.00     0.053 C 
HETATM   17  C29 UNL     1      37.612  22.522  22.876  1.00  0.00     0.137 C 
BRANCH  17  18
HETATM   18  O4  UNL     1      37.546  23.670  23.659  1.00  0.00    -0.394 OA
ATOM     19  H4  UNL     1      36.681  23.799  24.030  1.00  0.00     0.210 HD
ENDBRANCH  17  18
ENDBRANCH   6  11
ENDBRANCH   3   6
ENDBRANCH   1   2
BRANCH   1  20
HETATM   20  N2  UNL     1      36.356  28.209  18.408  1.00  0.00    -0.345 N 
HETATM   21  C8  UNL     1      36.994  29.194  19.219  1.00  0.00     0.240 C 
HETATM   22  O2  UNL     1      38.238  29.354  19.039  1.00  0.00    -0.271 OA
ATOM     23  H2  UNL     1      35.366  28.058  18.598  1.00  0.00     0.163 HD
BRANCH  21  24
HETATM   24  C9  UNL     1      36.230  29.963  20.202  1.00  0.00     0.170 C 
BRANCH  24  25
HETATM   25  C10 UNL     1      36.000  29.356  21.562  1.00  0.00     0.039 C 
BRANCH  25  26
HETATM   26  C11 UNL     1      36.751  28.197  22.044  1.00  0.00    -0.012 C 
HETATM   27  C12 UNL     1      36.416  26.847  21.549  1.00  0.00     0.005 C 
HETATM   28  C13 UNL     1      35.106  26.361  22.175  1.00  0.00     0.000 C 
HETATM   29  C14 UNL     1      35.197  26.402  23.659  1.00  0.00     0.000 C 
HETATM   30  C15 UNL     1      35.676  27.691  24.244  1.00  0.00     0.000 C 
HETATM   31  C16 UNL     1      36.922  28.209  23.568  1.00  0.00     0.005 C 
ENDBRANCH  25  26
ENDBRANCH  24  25
BRANCH  24  32
HETATM   32  N3  UNL     1      34.894  30.231  19.681  1.00  0.00    -0.405 N 
ATOM     33  H3  UNL     1      34.798  30.826  18.858  1.00  0.00     0.154 HD
BRANCH  32  34
HETATM   34  C17 UNL     1      33.772  29.715  20.251  1.00  0.00     0.077 C 
HETATM   35  C18 UNL     1      32.567  30.669  20.276  1.00  0.00     0.024 C 
HETATM   36  C19 UNL     1      31.561  29.848  21.049  1.00  0.00     0.002 C 
HETATM   37  C20 UNL     1      31.980  28.402  20.899  1.00  0.00     0.002 C 
HETATM   38  C21 UNL     1      33.106  28.475  19.851  1.00  0.00     0.024 C 
ENDBRANCH  32  34
ENDBRANCH  24  32
ENDBRANCH  21  24
ENDBRANCH   1  20
BRANCH   1  39
HETATM   39  C22 UNL     1      36.245  27.570  16.034  1.00  0.00    -0.022 C 
HETATM   40  C23 UNL     1      34.736  27.531  16.118  1.00  0.00     0.017 C 
HETATM   41  C24 UNL     1      36.733  26.629  14.968  1.00  0.00     0.017 C 
HETATM   42  C25 UNL     1      36.555  28.974  15.453  1.00  0.00     0.017 C 
ENDBRANCH   1  39
TORSDOF 13
ENDMDL
