MODEL 1
REMARK VINA RESULT: -3.849894869      0.000      0.000
REMARK  1 active torsions:
REMARK  status: ('A' for Active; 'I' for Inactive)
REMARK    1  A    between atoms: C4_4  and  O1_5 
ROOT
HETATM    1  C1  UNL     1       3.358  33.038  -1.149  1.00  0.00     0.040 C 
HETATM    2  C2  UNL     1       3.961  32.432   0.081  1.00  0.00     0.121 C 
HETATM    3  C3  UNL     1       5.385  31.976  -0.112  1.00  0.00     0.067 C 
HETATM    4  C4  UNL     1       5.337  30.687   0.722  1.00  0.00     0.160 C 
HETATM    5  C5  UNL     1       3.966  30.200   0.230  1.00  0.00     0.222 C 
HETATM    6  S1  UNL     1       3.412  28.765   1.116  1.00  0.00    -0.060 SA
HETATM    7  O2  UNL     1       3.212  31.338   0.446  1.00  0.00    -0.367 OA
ENDROOT
BRANCH   4   8
HETATM    8  O1  UNL     1       6.344  29.825   0.424  1.00  0.00    -0.392 OA
ATOM      9  H1  UNL     1       6.385  29.085   1.017  1.00  0.00     0.210 HD
ENDBRANCH   4   8
TORSDOF 1
ENDMDL
MODEL 2
REMARK VINA RESULT: -3.693325651      2.226      3.115
REMARK  1 active torsions:
REMARK  status: ('A' for Active; 'I' for Inactive)
REMARK    1  A    between atoms: C4_4  and  O1_5 
ROOT
HETATM    1  C1  UNL     1       5.753  35.293   0.921  1.00  0.00     0.040 C 
HETATM    2  C2  UNL     1       5.362  34.312  -0.141  1.00  0.00     0.121 C 
HETATM    3  C3  UNL     1       3.869  34.163  -0.298  1.00  0.00     0.067 C 
HETATM    4  C4  UNL     1       3.806  32.649  -0.550  1.00  0.00     0.160 C 
HETATM    5  C5  UNL     1       4.831  32.241   0.520  1.00  0.00     0.222 C 
HETATM    6  S1  UNL     1       5.215  30.510   0.446  1.00  0.00    -0.060 SA
HETATM    7  O2  UNL     1       5.878  33.080   0.185  1.00  0.00    -0.367 OA
ENDROOT
BRANCH   4   8
HETATM    8  O1  UNL     1       2.573  32.126  -0.329  1.00  0.00    -0.392 OA
ATOM      9  H1  UNL     1       2.101  31.940  -1.132  1.00  0.00     0.210 HD
ENDBRANCH   4   8
TORSDOF 1
ENDMDL
MODEL 3
REMARK VINA RESULT: -3.657176097      3.797      4.240
REMARK  1 active torsions:
REMARK  status: ('A' for Active; 'I' for Inactive)
REMARK    1  A    between atoms: C4_4  and  O1_5 
ROOT
HETATM    1  C1  UNL     1       2.849  32.056  -0.317  1.00  0.00     0.040 C 
HETATM    2  C2  UNL     1       3.968  32.982  -0.684  1.00  0.00     0.121 C 
HETATM    3  C3  UNL     1       5.094  32.987   0.320  1.00  0.00     0.067 C 
HETATM    4  C4  UNL     1       5.434  34.485   0.287  1.00  0.00     0.160 C 
HETATM    5  C5  UNL     1       3.987  35.002   0.276  1.00  0.00     0.222 C 
HETATM    6  S1  UNL     1       3.911  36.761   0.047  1.00  0.00    -0.060 SA
HETATM    7  O2  UNL     1       3.472  34.261  -0.772  1.00  0.00    -0.367 OA
ENDROOT
BRANCH   4   8
HETATM    8  O1  UNL     1       6.134  34.893   1.377  1.00  0.00    -0.392 OA
ATOM      9  H1  UNL     1       7.073  34.893   1.234  1.00  0.00     0.210 HD
ENDBRANCH   4   8
TORSDOF 1
ENDMDL
MODEL 4
REMARK VINA RESULT: -3.561041460      2.311      3.758
REMARK  1 active torsions:
REMARK  status: ('A' for Active; 'I' for Inactive)
REMARK    1  A    between atoms: C4_4  and  O1_5 
ROOT
HETATM    1  C1  UNL     1       2.894  28.347   0.329  1.00  0.00     0.040 C 
HETATM    2  C2  UNL     1       2.593  29.738   0.796  1.00  0.00     0.121 C 
HETATM    3  C3  UNL     1       1.658  30.488  -0.119  1.00  0.00     0.067 C 
HETATM    4  C4  UNL     1       2.307  31.877  -0.033  1.00  0.00     0.160 C 
HETATM    5  C5  UNL     1       3.766  31.406  -0.122  1.00  0.00     0.222 C 
HETATM    6  S1  UNL     1       4.912  32.738   0.132  1.00  0.00    -0.060 SA
HETATM    7  O2  UNL     1       3.771  30.443   0.869  1.00  0.00    -0.367 OA
ENDROOT
BRANCH   4   8
HETATM    8  O1  UNL     1       1.949  32.693  -1.059  1.00  0.00    -0.392 OA
ATOM      9  H1  UNL     1       1.184  33.221  -0.863  1.00  0.00     0.210 HD
ENDBRANCH   4   8
TORSDOF 1
ENDMDL
MODEL 5
REMARK VINA RESULT: -3.543529813      2.636      3.302
REMARK  1 active torsions:
REMARK  status: ('A' for Active; 'I' for Inactive)
REMARK    1  A    between atoms: C4_4  and  O1_5 
ROOT
HETATM    1  C1  UNL     1       5.488  30.469   0.461  1.00  0.00     0.040 C 
HETATM    2  C2  UNL     1       4.887  29.933   1.725  1.00  0.00     0.121 C 
HETATM    3  C3  UNL     1       5.728  28.866   2.381  1.00  0.00     0.067 C 
HETATM    4  C4  UNL     1       4.602  27.938   2.859  1.00  0.00     0.160 C 
HETATM    5  C5  UNL     1       3.746  28.014   1.585  1.00  0.00     0.222 C 
HETATM    6  S1  UNL     1       2.185  27.192   1.782  1.00  0.00    -0.060 SA
HETATM    7  O2  UNL     1       3.661  29.386   1.432  1.00  0.00    -0.367 OA
ENDROOT
BRANCH   4   8
HETATM    8  O1  UNL     1       5.033  26.679   3.133  1.00  0.00    -0.392 OA
ATOM      9  H1  UNL     1       5.163  26.527   4.061  1.00  0.00     0.210 HD
ENDBRANCH   4   8
TORSDOF 1
ENDMDL
