MODEL 1
REMARK VINA RESULT: -4.258974042      0.000      0.000
REMARK  2 active torsions:
REMARK  status: ('A' for Active; 'I' for Inactive)
REMARK    1  A    between atoms: C4_6  and  O3_7 
REMARK    2  A    between atoms: N1_9  and  O4_10 
ROOT
HETATM    1  C1  UNL     1       5.291  28.942   2.508  1.00  0.00     0.069 C 
HETATM    2  C2  UNL     1       4.195  28.491   3.445  1.00  0.00     0.171 C 
HETATM    3  C3  UNL     1       4.567  28.912   4.836  1.00  0.00     0.069 C 
HETATM    4  O1  UNL     1       2.991  28.959   3.009  1.00  0.00    -0.208 OA
HETATM    5  O2  UNL     1       2.199  27.955   2.759  1.00  0.00    -0.187 OA
HETATM    6  C4  UNL     1       3.042  26.874   2.406  1.00  0.00     0.403 C 
HETATM    7  N1  UNL     1       4.070  27.023   3.421  1.00  0.00    -0.107 NA
ENDROOT
BRANCH   7   8
HETATM    8  O4  UNL     1       5.210  26.417   3.127  1.00  0.00    -0.306 OA
ATOM      9  H4  UNL     1       5.105  25.482   2.995  1.00  0.00     0.237 HD
ENDBRANCH   7   8
BRANCH   6  10
HETATM   10  O3  UNL     1       3.527  27.203   1.128  1.00  0.00    -0.355 OA
ATOM     11  H3  UNL     1       4.412  26.857   1.109  1.00  0.00     0.214 HD
ENDBRANCH   6  10
TORSDOF 2
ENDMDL
MODEL 2
REMARK VINA RESULT: -4.141785259      2.276      3.018
REMARK  2 active torsions:
REMARK  status: ('A' for Active; 'I' for Inactive)
REMARK    1  A    between atoms: C4_6  and  O3_7 
REMARK    2  A    between atoms: N1_9  and  O4_10 
ROOT
HETATM    1  C1  UNL     1       3.059  27.734   0.003  1.00  0.00     0.069 C 
HETATM    2  C2  UNL     1       2.902  28.851   1.010  1.00  0.00     0.171 C 
HETATM    3  C3  UNL     1       2.152  29.971   0.351  1.00  0.00     0.069 C 
HETATM    4  O1  UNL     1       2.327  28.370   2.149  1.00  0.00    -0.208 OA
HETATM    5  O2  UNL     1       3.136  28.551   3.153  1.00  0.00    -0.187 OA
HETATM    6  C4  UNL     1       4.442  28.539   2.608  1.00  0.00     0.403 C 
HETATM    7  N1  UNL     1       4.221  29.356   1.427  1.00  0.00    -0.107 NA
ENDROOT
BRANCH   7   8
HETATM    8  O4  UNL     1       5.145  29.209   0.490  1.00  0.00    -0.306 OA
ATOM      9  H4  UNL     1       5.872  29.811   0.594  1.00  0.00     0.237 HD
ENDBRANCH   7   8
BRANCH   6  10
HETATM   10  O3  UNL     1       4.675  27.194   2.270  1.00  0.00    -0.355 OA
ATOM     11  H3  UNL     1       5.415  26.935   2.806  1.00  0.00     0.214 HD
ENDBRANCH   6  10
TORSDOF 2
ENDMDL
MODEL 3
REMARK VINA RESULT: -4.042086976      1.489      2.811
REMARK  2 active torsions:
REMARK  status: ('A' for Active; 'I' for Inactive)
REMARK    1  A    between atoms: C4_6  and  O3_7 
REMARK    2  A    between atoms: N1_9  and  O4_10 
ROOT
HETATM    1  C1  UNL     1       2.396  27.742   3.211  1.00  0.00     0.069 C 
HETATM    2  C2  UNL     1       3.404  27.996   2.114  1.00  0.00     0.171 C 
HETATM    3  C3  UNL     1       2.977  27.223   0.900  1.00  0.00     0.069 C 
HETATM    4  O1  UNL     1       3.547  29.337   1.916  1.00  0.00    -0.208 OA
HETATM    5  O2  UNL     1       4.784  29.679   2.141  1.00  0.00    -0.187 OA
HETATM    6  C4  UNL     1       5.280  28.746   3.082  1.00  0.00     0.403 C 
HETATM    7  N1  UNL     1       4.738  27.521   2.521  1.00  0.00    -0.107 NA
ENDROOT
BRANCH   7   8
HETATM    8  O4  UNL     1       4.682  26.514   3.380  1.00  0.00    -0.306 OA
ATOM      9  H4  UNL     1       5.383  26.540   4.020  1.00  0.00     0.237 HD
ENDBRANCH   7   8
BRANCH   6  10
HETATM   10  O3  UNL     1       4.648  29.086   4.290  1.00  0.00    -0.355 OA
ATOM     11  H3  UNL     1       5.051  28.523   4.941  1.00  0.00     0.214 HD
ENDBRANCH   6  10
TORSDOF 2
ENDMDL
MODEL 4
REMARK VINA RESULT: -4.031540179      3.371      4.224
REMARK  2 active torsions:
REMARK  status: ('A' for Active; 'I' for Inactive)
REMARK    1  A    between atoms: C4_6  and  O3_7 
REMARK    2  A    between atoms: N1_9  and  O4_10 
ROOT
HETATM    1  C1  UNL     1       4.829  29.118   2.126  1.00  0.00     0.069 C 
HETATM    2  C2  UNL     1       4.316  29.490   0.754  1.00  0.00     0.171 C 
HETATM    3  C3  UNL     1       3.856  28.236   0.071  1.00  0.00     0.069 C 
HETATM    4  O1  UNL     1       3.368  30.464   0.862  1.00  0.00    -0.208 OA
HETATM    5  O2  UNL     1       3.758  31.523   0.212  1.00  0.00    -0.187 OA
HETATM    6  C4  UNL     1       5.172  31.495   0.236  1.00  0.00     0.403 C 
HETATM    7  N1  UNL     1       5.394  30.089  -0.052  1.00  0.00    -0.107 NA
ENDROOT
BRANCH   7   8
HETATM    8  O4  UNL     1       6.595  29.651   0.293  1.00  0.00    -0.306 OA
ATOM      9  H4  UNL     1       7.290  30.247   0.039  1.00  0.00     0.237 HD
ENDBRANCH   7   8
BRANCH   6  10
HETATM   10  O3  UNL     1       5.513  31.811   1.563  1.00  0.00    -0.355 OA
ATOM     11  H3  UNL     1       6.149  31.150   1.813  1.00  0.00     0.214 HD
ENDBRANCH   6  10
TORSDOF 2
ENDMDL
MODEL 5
REMARK VINA RESULT: -3.965996169      2.663      3.702
REMARK  2 active torsions:
REMARK  status: ('A' for Active; 'I' for Inactive)
REMARK    1  A    between atoms: C4_6  and  O3_7 
REMARK    2  A    between atoms: N1_9  and  O4_10 
ROOT
HETATM    1  C1  UNL     1       1.768  28.565   2.072  1.00  0.00     0.069 C 
HETATM    2  C2  UNL     1       2.189  29.092   0.720  1.00  0.00     0.171 C 
HETATM    3  C3  UNL     1       1.118  28.743  -0.271  1.00  0.00     0.069 C 
HETATM    4  O1  UNL     1       2.475  30.421   0.809  1.00  0.00    -0.208 OA
HETATM    5  O2  UNL     1       3.716  30.623   0.470  1.00  0.00    -0.187 OA
HETATM    6  C4  UNL     1       4.404  29.427   0.787  1.00  0.00     0.403 C 
HETATM    7  N1  UNL     1       3.446  28.455   0.290  1.00  0.00    -0.107 NA
ENDROOT
BRANCH   7   8
HETATM    8  O4  UNL     1       3.602  27.239   0.791  1.00  0.00    -0.306 OA
ATOM      9  H4  UNL     1       4.515  27.010   0.920  1.00  0.00     0.237 HD
ENDBRANCH   7   8
BRANCH   6  10
HETATM   10  O3  UNL     1       4.471  29.415   2.191  1.00  0.00    -0.355 OA
ATOM     11  H3  UNL     1       5.398  29.473   2.390  1.00  0.00     0.214 HD
ENDBRANCH   6  10
TORSDOF 2
ENDMDL
