MODEL 1
REMARK VINA RESULT: -3.686492410      0.000      0.000
REMARK  2 active torsions:
REMARK  status: ('A' for Active; 'I' for Inactive)
REMARK    1  A    between atoms: C4_6  and  O1_7 
REMARK    2  A    between atoms: C4_6  and  O2_9 
ROOT
HETATM    1  C1  UNL     1       2.455  27.346   3.068  1.00  0.00     0.318 C 
HETATM    2  N1  UNL     1       3.439  28.279   2.646  1.00  0.00     0.159 N 
HETATM    3  C2  UNL     1       3.551  28.359   1.198  1.00  0.00     0.290 C 
HETATM    4  C3  UNL     1       4.403  29.613   0.952  1.00  0.00     0.112 C 
HETATM    5  S1  UNL     1       5.710  29.277   2.205  1.00  0.00    -0.067 SA
HETATM    6  C4  UNL     1       4.772  28.010   3.157  1.00  0.00     0.422 C 
ENDROOT
BRANCH   6   7
HETATM    7  O1  UNL     1       5.220  26.745   2.898  1.00  0.00    -0.333 OA
ATOM      8  H1  UNL     1       5.015  26.117   3.580  1.00  0.00     0.216 HD
ENDBRANCH   6   7
BRANCH   6   9
HETATM    9  O2  UNL     1       4.868  28.377   4.483  1.00  0.00    -0.333 OA
ATOM     10  H2  UNL     1       5.739  28.698   4.680  1.00  0.00     0.216 HD
ENDBRANCH   6   9
TORSDOF 2
ENDMDL
MODEL 2
REMARK VINA RESULT: -3.673516743      2.129      3.079
REMARK  2 active torsions:
REMARK  status: ('A' for Active; 'I' for Inactive)
REMARK    1  A    between atoms: C4_6  and  O1_7 
REMARK    2  A    between atoms: C4_6  and  O2_9 
ROOT
HETATM    1  C1  UNL     1       5.628  29.192   2.611  1.00  0.00     0.318 C 
HETATM    2  N1  UNL     1       4.384  28.702   3.090  1.00  0.00     0.159 N 
HETATM    3  C2  UNL     1       4.267  28.788   4.537  1.00  0.00     0.290 C 
HETATM    4  C3  UNL     1       2.780  28.525   4.814  1.00  0.00     0.112 C 
HETATM    5  S1  UNL     1       2.575  27.063   3.714  1.00  0.00    -0.067 SA
HETATM    6  C4  UNL     1       4.108  27.323   2.726  1.00  0.00     0.422 C 
ENDROOT
BRANCH   6   7
HETATM    7  O1  UNL     1       5.096  26.448   3.083  1.00  0.00    -0.333 OA
ATOM      8  H1  UNL     1       5.152  26.292   4.018  1.00  0.00     0.216 HD
ENDBRANCH   6   7
BRANCH   6   9
HETATM    9  O2  UNL     1       3.732  27.235   1.403  1.00  0.00    -0.333 OA
ATOM     10  H2  UNL     1       4.453  26.921   0.870  1.00  0.00     0.216 HD
ENDBRANCH   6   9
TORSDOF 2
ENDMDL
MODEL 3
REMARK VINA RESULT: -3.441076878      1.870      2.565
REMARK  2 active torsions:
REMARK  status: ('A' for Active; 'I' for Inactive)
REMARK    1  A    between atoms: C4_6  and  O1_7 
REMARK    2  A    between atoms: C4_6  and  O2_9 
ROOT
HETATM    1  C1  UNL     1       4.623  28.823   4.878  1.00  0.00     0.318 C 
HETATM    2  N1  UNL     1       3.799  28.555   3.752  1.00  0.00     0.159 N 
HETATM    3  C2  UNL     1       2.603  27.803   4.098  1.00  0.00     0.290 C 
HETATM    4  C3  UNL     1       1.719  27.900   2.847  1.00  0.00     0.112 C 
HETATM    5  S1  UNL     1       3.013  27.516   1.595  1.00  0.00    -0.067 SA
HETATM    6  C4  UNL     1       4.464  27.822   2.688  1.00  0.00     0.422 C 
ENDROOT
BRANCH   6   7
HETATM    7  O1  UNL     1       5.045  26.655   3.100  1.00  0.00    -0.333 OA
ATOM      8  H1  UNL     1       5.436  26.704   3.963  1.00  0.00     0.216 HD
ENDBRANCH   6   7
BRANCH   6   9
HETATM    9  O2  UNL     1       5.310  28.651   1.982  1.00  0.00    -0.333 OA
ATOM     10  H2  UNL     1       5.429  29.476   2.437  1.00  0.00     0.216 HD
ENDBRANCH   6   9
TORSDOF 2
ENDMDL
MODEL 4
REMARK VINA RESULT: -3.376041280      8.861      9.235
REMARK  2 active torsions:
REMARK  status: ('A' for Active; 'I' for Inactive)
REMARK    1  A    between atoms: C4_6  and  O1_7 
REMARK    2  A    between atoms: C4_6  and  O2_9 
ROOT
HETATM    1  C1  UNL     1      -0.979  34.494   3.729  1.00  0.00     0.318 C 
HETATM    2  N1  UNL     1      -0.026  34.861   4.716  1.00  0.00     0.159 N 
HETATM    3  C2  UNL     1      -0.016  33.952   5.851  1.00  0.00     0.290 C 
HETATM    4  C3  UNL     1       1.262  34.321   6.621  1.00  0.00     0.112 C 
HETATM    5  S1  UNL     1       1.050  36.149   6.595  1.00  0.00    -0.067 SA
HETATM    6  C4  UNL     1      -0.207  36.200   5.249  1.00  0.00     0.422 C 
ENDROOT
BRANCH   6   7
HETATM    7  O1  UNL     1      -1.463  36.436   5.736  1.00  0.00    -0.333 OA
ATOM      8  H1  UNL     1      -1.918  35.653   6.021  1.00  0.00     0.216 HD
ENDBRANCH   6   7
BRANCH   6   9
HETATM    9  O2  UNL     1       0.232  37.147   4.349  1.00  0.00    -0.333 OA
ATOM     10  H2  UNL     1      -0.383  37.868   4.294  1.00  0.00     0.216 HD
ENDBRANCH   6   9
TORSDOF 2
ENDMDL
MODEL 5
REMARK VINA RESULT: -3.342777098      1.721      2.510
REMARK  2 active torsions:
REMARK  status: ('A' for Active; 'I' for Inactive)
REMARK    1  A    between atoms: C4_6  and  O1_7 
REMARK    2  A    between atoms: C4_6  and  O2_9 
ROOT
HETATM    1  C1  UNL     1       5.939  29.584   2.171  1.00  0.00     0.318 C 
HETATM    2  N1  UNL     1       4.903  28.758   1.659  1.00  0.00     0.159 N 
HETATM    3  C2  UNL     1       3.874  29.516   0.964  1.00  0.00     0.290 C 
HETATM    4  C3  UNL     1       3.048  28.450   0.230  1.00  0.00     0.112 C 
HETATM    5  S1  UNL     1       2.877  27.261   1.625  1.00  0.00    -0.067 SA
HETATM    6  C4  UNL     1       4.228  27.956   2.665  1.00  0.00     0.422 C 
ENDROOT
BRANCH   6   7
HETATM    7  O1  UNL     1       3.739  28.683   3.715  1.00  0.00    -0.333 OA
ATOM      8  H1  UNL     1       4.409  29.120   4.225  1.00  0.00     0.216 HD
ENDBRANCH   6   7
BRANCH   6   9
HETATM    9  O2  UNL     1       5.013  26.887   3.042  1.00  0.00    -0.333 OA
ATOM     10  H2  UNL     1       4.596  26.067   2.807  1.00  0.00     0.216 HD
ENDBRANCH   6   9
TORSDOF 2
ENDMDL
