MODEL 1
REMARK VINA RESULT: -4.684757652      0.000      0.000
REMARK  5 active torsions:
REMARK  status: ('A' for Active; 'I' for Inactive)
REMARK    1  A    between atoms: O1_2  and  C2_3 
REMARK    2  A    between atoms: C2_3  and  O3_5 
REMARK    3  A    between atoms: O3_5  and  C3_6 
REMARK    4  A    between atoms: C3_6  and  O4_8 
REMARK    5  A    between atoms: C3_6  and  O5_10 
ROOT
HETATM    1  C3  UNL     1       5.794  29.731   1.530  1.00  0.00     0.283 C 
HETATM    2  C4  UNL     1       5.436  29.041   2.808  1.00  0.00     0.115 C 
ENDROOT
BRANCH   1   3
HETATM    3  O3  UNL     1       5.526  31.110   1.531  1.00  0.00    -0.235 OA
BRANCH   3   4
HETATM    4  C2  UNL     1       5.090  31.732   0.365  1.00  0.00     0.410 C 
HETATM    5  O2  UNL     1       5.939  31.982  -0.502  1.00  0.00    -0.229 OA
BRANCH   4   6
HETATM    6  O1  UNL     1       3.783  32.079   0.129  1.00  0.00    -0.303 OA
HETATM    7  C1  UNL     1       3.501  33.063  -0.848  1.00  0.00     0.215 C 
ENDBRANCH   4   6
ENDBRANCH   3   4
ENDBRANCH   1   3
BRANCH   1   8
HETATM    8  O4  UNL     1       4.974  29.171   0.521  1.00  0.00    -0.343 OA
ATOM      9  H4  UNL     1       5.165  28.242   0.511  1.00  0.00     0.215 HD
ENDBRANCH   1   8
BRANCH   1  10
HETATM   10  O5  UNL     1       7.121  29.520   1.163  1.00  0.00    -0.343 OA
ATOM     11  H5  UNL     1       7.594  29.145   1.896  1.00  0.00     0.215 HD
ENDBRANCH   1  10
TORSDOF 5
ENDMDL
MODEL 2
REMARK VINA RESULT: -4.536947320      1.655      2.197
REMARK  5 active torsions:
REMARK  status: ('A' for Active; 'I' for Inactive)
REMARK    1  A    between atoms: O1_2  and  C2_3 
REMARK    2  A    between atoms: C2_3  and  O3_5 
REMARK    3  A    between atoms: O3_5  and  C3_6 
REMARK    4  A    between atoms: C3_6  and  O4_8 
REMARK    5  A    between atoms: C3_6  and  O5_10 
ROOT
HETATM    1  C3  UNL     1       5.596  30.522   0.760  1.00  0.00     0.283 C 
HETATM    2  C4  UNL     1       4.368  29.682   0.602  1.00  0.00     0.115 C 
ENDROOT
BRANCH   1   3
HETATM    3  O3  UNL     1       5.667  31.605  -0.132  1.00  0.00    -0.235 OA
BRANCH   3   4
HETATM    4  C2  UNL     1       5.090  32.823   0.210  1.00  0.00     0.410 C 
HETATM    5  O2  UNL     1       3.980  33.086  -0.272  1.00  0.00    -0.229 OA
BRANCH   4   6
HETATM    6  O1  UNL     1       5.681  33.738   1.046  1.00  0.00    -0.303 OA
HETATM    7  C1  UNL     1       5.620  35.112   0.710  1.00  0.00     0.215 C 
ENDBRANCH   4   6
ENDBRANCH   3   4
ENDBRANCH   1   3
BRANCH   1   8
HETATM    8  O4  UNL     1       6.700  29.690   0.459  1.00  0.00    -0.343 OA
ATOM      9  H4  UNL     1       6.559  28.880   0.934  1.00  0.00     0.215 HD
ENDBRANCH   1   8
BRANCH   1  10
HETATM   10  O5  UNL     1       5.759  30.987   2.063  1.00  0.00    -0.343 OA
ATOM     11  H5  UNL     1       6.608  31.405   2.144  1.00  0.00     0.215 HD
ENDBRANCH   1  10
TORSDOF 5
ENDMDL
MODEL 3
REMARK VINA RESULT: -4.473787712      1.264      3.447
REMARK  5 active torsions:
REMARK  status: ('A' for Active; 'I' for Inactive)
REMARK    1  A    between atoms: O1_2  and  C2_3 
REMARK    2  A    between atoms: C2_3  and  O3_5 
REMARK    3  A    between atoms: O3_5  and  C3_6 
REMARK    4  A    between atoms: C3_6  and  O4_8 
REMARK    5  A    between atoms: C3_6  and  O5_10 
ROOT
HETATM    1  C3  UNL     1       5.247  32.490   0.233  1.00  0.00     0.283 C 
HETATM    2  C4  UNL     1       3.939  32.794  -0.428  1.00  0.00     0.115 C 
ENDROOT
BRANCH   1   3
HETATM    3  O3  UNL     1       5.157  31.547   1.270  1.00  0.00    -0.235 OA
BRANCH   3   4
HETATM    4  C2  UNL     1       5.518  30.224   1.036  1.00  0.00     0.410 C 
HETATM    5  O2  UNL     1       6.574  29.820   1.542  1.00  0.00    -0.229 OA
BRANCH   4   6
HETATM    6  O1  UNL     1       4.772  29.353   0.281  1.00  0.00    -0.303 OA
HETATM    7  C1  UNL     1       3.422  29.121   0.636  1.00  0.00     0.215 C 
ENDBRANCH   4   6
ENDBRANCH   3   4
ENDBRANCH   1   3
BRANCH   1   8
HETATM    8  O4  UNL     1       5.690  33.693   0.832  1.00  0.00    -0.343 OA
ATOM      9  H4  UNL     1       4.911  34.129   1.158  1.00  0.00     0.215 HD
ENDBRANCH   1   8
BRANCH   1  10
HETATM   10  O5  UNL     1       6.222  32.085  -0.676  1.00  0.00    -0.343 OA
ATOM     11  H5  UNL     1       6.773  32.826  -0.897  1.00  0.00     0.215 HD
ENDBRANCH   1  10
TORSDOF 5
ENDMDL
MODEL 4
REMARK VINA RESULT: -4.416499694      1.912      2.742
REMARK  5 active torsions:
REMARK  status: ('A' for Active; 'I' for Inactive)
REMARK    1  A    between atoms: O1_2  and  C2_3 
REMARK    2  A    between atoms: C2_3  and  O3_5 
REMARK    3  A    between atoms: O3_5  and  C3_6 
REMARK    4  A    between atoms: C3_6  and  O4_8 
REMARK    5  A    between atoms: C3_6  and  O5_10 
ROOT
HETATM    1  C3  UNL     1       5.289  30.987   0.528  1.00  0.00     0.283 C 
HETATM    2  C4  UNL     1       6.054  29.776   0.096  1.00  0.00     0.115 C 
ENDROOT
BRANCH   1   3
HETATM    3  O3  UNL     1       5.585  32.145  -0.211  1.00  0.00    -0.235 OA
BRANCH   3   4
HETATM    4  C2  UNL     1       5.092  33.377   0.204  1.00  0.00     0.410 C 
HETATM    5  O2  UNL     1       4.012  33.752  -0.272  1.00  0.00    -0.229 OA
BRANCH   4   6
HETATM    6  O1  UNL     1       5.734  34.191   1.105  1.00  0.00    -0.303 OA
HETATM    7  C1  UNL     1       5.878  35.566   0.805  1.00  0.00     0.215 C 
ENDBRANCH   4   6
ENDBRANCH   3   4
ENDBRANCH   1   3
BRANCH   1   8
HETATM    8  O4  UNL     1       5.678  31.261   1.861  1.00  0.00    -0.343 OA
ATOM      9  H4  UNL     1       6.565  30.936   1.949  1.00  0.00     0.215 HD
ENDBRANCH   1   8
BRANCH   1  10
HETATM   10  O5  UNL     1       3.911  30.778   0.522  1.00  0.00    -0.343 OA
ATOM     11  H5  UNL     1       3.527  31.198   1.282  1.00  0.00     0.215 HD
ENDBRANCH   1  10
TORSDOF 5
ENDMDL
MODEL 5
REMARK VINA RESULT: -4.397169800      1.300      1.694
REMARK  5 active torsions:
REMARK  status: ('A' for Active; 'I' for Inactive)
REMARK    1  A    between atoms: O1_2  and  C2_3 
REMARK    2  A    between atoms: C2_3  and  O3_5 
REMARK    3  A    between atoms: O3_5  and  C3_6 
REMARK    4  A    between atoms: C3_6  and  O4_8 
REMARK    5  A    between atoms: C3_6  and  O5_10 
ROOT
HETATM    1  C3  UNL     1       5.705  30.389   0.816  1.00  0.00     0.283 C 
HETATM    2  C4  UNL     1       4.505  29.515   0.634  1.00  0.00     0.115 C 
ENDROOT
BRANCH   1   3
HETATM    3  O3  UNL     1       5.836  31.392  -0.159  1.00  0.00    -0.235 OA
BRANCH   3   4
HETATM    4  C2  UNL     1       5.143  32.589  -0.018  1.00  0.00     0.410 C 
HETATM    5  O2  UNL     1       5.529  33.375   0.858  1.00  0.00    -0.229 OA
BRANCH   4   6
HETATM    6  O1  UNL     1       4.064  32.941  -0.792  1.00  0.00    -0.303 OA
HETATM    7  C1  UNL     1       2.779  32.469  -0.431  1.00  0.00     0.215 C 
ENDBRANCH   4   6
ENDBRANCH   3   4
ENDBRANCH   1   3
BRANCH   1   8
HETATM    8  O4  UNL     1       6.841  29.556   0.679  1.00  0.00    -0.343 OA
ATOM      9  H4  UNL     1       6.830  28.969   1.426  1.00  0.00     0.215 HD
ENDBRANCH   1   8
BRANCH   1  10
HETATM   10  O5  UNL     1       5.755  30.969   2.082  1.00  0.00    -0.343 OA
ATOM     11  H5  UNL     1       5.415  30.355   2.722  1.00  0.00     0.215 HD
ENDBRANCH   1  10
TORSDOF 5
ENDMDL
