MODEL 1
REMARK VINA RESULT: -4.573911906      0.000      0.000
REMARK  2 active torsions:
REMARK  status: ('A' for Active; 'I' for Inactive)
REMARK    1  A    between atoms: O1_1  and  N1_3 
REMARK    2  A    between atoms: N2_9  and  O2_10 
ROOT
HETATM    1  N1  UNL     1       4.457  31.426   0.452  1.00  0.00    -0.276 N 
ATOM      2  H1  UNL     1       3.603  30.918   0.220  1.00  0.00     0.193 HD
HETATM    3  C1  UNL     1       4.631  32.612   0.021  1.00  0.00     0.025 C 
HETATM    4  C2  UNL     1       3.644  33.336  -0.827  1.00  0.00     0.057 C 
HETATM    5  C3  UNL     1       3.456  34.721  -0.246  1.00  0.00     0.022 C 
HETATM    6  C4  UNL     1       4.789  35.400   0.021  1.00  0.00     0.121 C 
HETATM    7  N2  UNL     1       5.478  34.596   1.015  1.00  0.00    -0.194 NA
HETATM    8  C5  UNL     1       5.877  33.346   0.362  1.00  0.00     0.174 C 
ENDROOT
BRANCH   1   9
HETATM    9  O1  UNL     1       5.417  30.833   1.227  1.00  0.00    -0.290 OA
ATOM     10  H1  UNL     1       5.883  30.071   0.903  1.00  0.00     0.244 HD
ENDBRANCH   1   9
BRANCH   7  11
HETATM   11  O2  UNL     1       6.596  35.268   1.368  1.00  0.00    -0.313 OA
ATOM     12  H2  UNL     1       6.436  36.189   1.199  1.00  0.00     0.237 HD
ENDBRANCH   7  11
TORSDOF 2
ENDMDL
MODEL 2
REMARK VINA RESULT: -4.442178661      2.171      3.155
REMARK  2 active torsions:
REMARK  status: ('A' for Active; 'I' for Inactive)
REMARK    1  A    between atoms: O1_1  and  N1_3 
REMARK    2  A    between atoms: N2_9  and  O2_10 
ROOT
HETATM    1  N1  UNL     1       1.416  31.340   0.645  1.00  0.00    -0.276 N 
ATOM      2  H1  UNL     1       0.627  31.962   0.471  1.00  0.00     0.193 HD
HETATM    3  C1  UNL     1       2.536  31.556   0.078  1.00  0.00     0.025 C 
HETATM    4  C2  UNL     1       2.785  32.691  -0.854  1.00  0.00     0.057 C 
HETATM    5  C3  UNL     1       4.079  33.359  -0.440  1.00  0.00     0.022 C 
HETATM    6  C4  UNL     1       5.194  32.345  -0.250  1.00  0.00     0.121 C 
HETATM    7  N2  UNL     1       4.786  31.471   0.834  1.00  0.00    -0.194 NA
HETATM    8  C5  UNL     1       3.683  30.646   0.335  1.00  0.00     0.174 C 
ENDROOT
BRANCH   1   9
HETATM    9  O1  UNL     1       1.274  30.271   1.489  1.00  0.00    -0.290 OA
ATOM     10  H1  UNL     1       1.240  30.411   2.428  1.00  0.00     0.244 HD
ENDBRANCH   1   9
BRANCH   7  11
HETATM   11  O2  UNL     1       5.832  30.661   1.110  1.00  0.00    -0.313 OA
ATOM     12  H2  UNL     1       5.475  29.830   1.402  1.00  0.00     0.237 HD
ENDBRANCH   7  11
TORSDOF 2
ENDMDL
MODEL 3
REMARK VINA RESULT: -4.336380665      4.406      5.455
REMARK  2 active torsions:
REMARK  status: ('A' for Active; 'I' for Inactive)
REMARK    1  A    between atoms: O1_1  and  N1_3 
REMARK    2  A    between atoms: N2_9  and  O2_10 
ROOT
HETATM    1  N1  UNL     1       6.273  29.680   0.141  1.00  0.00    -0.276 N 
ATOM      2  H1  UNL     1       6.082  29.795  -0.855  1.00  0.00     0.193 HD
HETATM    3  C1  UNL     1       5.310  29.565   0.966  1.00  0.00     0.025 C 
HETATM    4  C2  UNL     1       3.874  29.587   0.568  1.00  0.00     0.057 C 
HETATM    5  C3  UNL     1       3.184  28.424   1.246  1.00  0.00     0.022 C 
HETATM    6  C4  UNL     1       3.503  28.374   2.731  1.00  0.00     0.121 C 
HETATM    7  N2  UNL     1       4.935  28.161   2.845  1.00  0.00    -0.194 NA
HETATM    8  C5  UNL     1       5.593  29.398   2.415  1.00  0.00     0.174 C 
ENDROOT
BRANCH   1   9
HETATM    9  O1  UNL     1       7.565  29.648   0.592  1.00  0.00    -0.290 OA
ATOM     10  H1  UNL     1       8.275  29.904   0.014  1.00  0.00     0.244 HD
ENDBRANCH   1   9
BRANCH   7  11
HETATM   11  O2  UNL     1       5.207  27.967   4.154  1.00  0.00    -0.313 OA
ATOM     12  H2  UNL     1       6.012  28.433   4.346  1.00  0.00     0.237 HD
ENDBRANCH   7  11
TORSDOF 2
ENDMDL
MODEL 4
REMARK VINA RESULT: -4.180245358      4.235      4.730
REMARK  2 active torsions:
REMARK  status: ('A' for Active; 'I' for Inactive)
REMARK    1  A    between atoms: O1_1  and  N1_3 
REMARK    2  A    between atoms: N2_9  and  O2_10 
ROOT
HETATM    1  N1  UNL     1       4.234  28.676   0.169  1.00  0.00    -0.276 N 
ATOM      2  H1  UNL     1       5.230  28.751  -0.038  1.00  0.00     0.193 HD
HETATM    3  C1  UNL     1       3.557  29.719   0.442  1.00  0.00     0.025 C 
HETATM    4  C2  UNL     1       4.136  31.092   0.481  1.00  0.00     0.057 C 
HETATM    5  C3  UNL     1       3.222  32.006  -0.305  1.00  0.00     0.022 C 
HETATM    6  C4  UNL     1       1.771  31.840   0.114  1.00  0.00     0.121 C 
HETATM    7  N2  UNL     1       1.398  30.473  -0.198  1.00  0.00    -0.194 NA
HETATM    8  C5  UNL     1       2.107  29.603   0.744  1.00  0.00     0.174 C 
ENDROOT
BRANCH   1   9
HETATM    9  O1  UNL     1       3.622  27.451   0.155  1.00  0.00    -0.290 OA
ATOM     10  H1  UNL     1       3.852  26.799   0.808  1.00  0.00     0.244 HD
ENDBRANCH   1   9
BRANCH   7  11
HETATM   11  O2  UNL     1       0.071  30.357   0.033  1.00  0.00    -0.313 OA
ATOM     12  H2  UNL     1      -0.052  29.602   0.595  1.00  0.00     0.237 HD
ENDBRANCH   7  11
TORSDOF 2
ENDMDL
MODEL 5
REMARK VINA RESULT: -4.155561252      3.102      4.084
REMARK  2 active torsions:
REMARK  status: ('A' for Active; 'I' for Inactive)
REMARK    1  A    between atoms: O1_1  and  N1_3 
REMARK    2  A    between atoms: N2_9  and  O2_10 
ROOT
HETATM    1  N1  UNL     1       1.323  31.838   0.529  1.00  0.00    -0.276 N 
ATOM      2  H1  UNL     1       0.971  32.791   0.430  1.00  0.00     0.193 HD
HETATM    3  C1  UNL     1       2.497  31.547   0.131  1.00  0.00     0.025 C 
HETATM    4  C2  UNL     1       3.426  32.531  -0.491  1.00  0.00     0.057 C 
HETATM    5  C3  UNL     1       4.775  32.387   0.180  1.00  0.00     0.022 C 
HETATM    6  C4  UNL     1       5.219  30.935   0.235  1.00  0.00     0.121 C 
HETATM    7  N2  UNL     1       4.247  30.230   1.049  1.00  0.00    -0.194 NA
HETATM    8  C5  UNL     1       3.004  30.158   0.277  1.00  0.00     0.174 C 
ENDROOT
BRANCH   1   9
HETATM    9  O1  UNL     1       0.533  30.871   1.090  1.00  0.00    -0.290 OA
ATOM     10  H1  UNL     1       0.741  30.532   1.953  1.00  0.00     0.244 HD
ENDBRANCH   1   9
BRANCH   7  11
HETATM   11  O2  UNL     1       4.711  28.973   1.228  1.00  0.00    -0.313 OA
ATOM     12  H2  UNL     1       4.066  28.380   0.860  1.00  0.00     0.237 HD
ENDBRANCH   7  11
TORSDOF 2
ENDMDL
