MODEL 1
REMARK VINA RESULT: -8.635308629      0.000      0.000
REMARK  16 active torsions:
REMARK  status: ('A' for Active; 'I' for Inactive)
REMARK    1  A    between atoms: C5_10  and  N3_11 
REMARK    2  A    between atoms: N3_11  and  C6_12 
REMARK    3  A    between atoms: C7_15  and  N5_16 
REMARK    4  A    between atoms: N5_16  and  C8_17 
REMARK    5  A    between atoms: N5_16  and  C10_21 
REMARK    6  A    between atoms: C8_17  and  C9_18 
REMARK    7  A    between atoms: C9_18  and  O1_19 
REMARK    8  A    between atoms: C10_21  and  C11_22 
REMARK    9  A    between atoms: C11_22  and  O2_23 
REMARK   10  A    between atoms: O2_23  and  C12_24 
REMARK   11  A    between atoms: C12_24  and  C13_25 
REMARK   12  A    between atoms: C13_25  and  O3_26 
REMARK   13  A    between atoms: C15_31  and  C16_32 
REMARK   14  A    between atoms: C16_32  and  C17_33 
REMARK   15  A    between atoms: C19_39  and  O6_40 
REMARK   16  A    between atoms: O6_40  and  S1_41 
ROOT
HETATM    1  C6  UNL     1      -4.600   2.849  28.587  1.00  0.00     0.300 A 
HETATM    2  N4  UNL     1      -3.897   3.620  27.693  1.00  0.00    -0.147 N 
ATOM      3  H4  UNL     1      -2.924   3.832  27.912  1.00  0.00     0.188 HD
HETATM    4  C7  UNL     1      -4.399   4.111  26.558  1.00  0.00     0.685 A 
HETATM    5  N6  UNL     1      -5.679   3.819  26.288  1.00  0.00    -0.174 N 
ATOM      6  H6  UNL     1      -6.087   4.180  25.427  1.00  0.00     0.186 HD
HETATM    7  C14 UNL     1      -6.455   3.069  27.102  1.00  0.00     0.158 A 
HETATM    8  C15 UNL     1      -7.764   2.645  27.040  1.00  0.00     0.030 A 
HETATM    9  C20 UNL     1      -7.962   1.900  28.193  1.00  0.00     0.123 A 
HETATM   10  N8  UNL     1      -6.800   1.902  28.885  1.00  0.00    -0.299 N 
ATOM     11  H8  UNL     1      -6.647   1.433  29.778  1.00  0.00     0.186 HD
HETATM   12  N9  UNL     1      -5.902   2.601  28.235  1.00  0.00    -0.195 N 
ENDROOT
BRANCH   1  13
HETATM   13  N3  UNL     1      -4.156   2.412  29.591  1.00  0.00    -0.333 NA
BRANCH  13  14
HETATM   14  C5  UNL     1      -3.649   1.926  30.722  1.00  0.00     0.263 A 
HETATM   15  N2  UNL     1      -4.407   1.353  31.638  1.00  0.00    -0.307 N 
HETATM   16  C4  UNL     1      -3.649   0.913  32.753  1.00  0.00     0.315 A 
ATOM     17  H2  UNL     1      -5.417   1.241  31.554  1.00  0.00     0.166 HD
HETATM   18  N1  UNL     1      -3.767  -0.538  32.818  1.00  0.00    -0.005 N 
HETATM   19  C21 UNL     1      -2.278   1.277  32.450  1.00  0.00     0.285 A 
HETATM   20  C22 UNL     1      -4.167   1.451  34.058  1.00  0.00     0.118 C 
HETATM   21  C2  UNL     1      -3.905  -0.780  34.233  1.00  0.00     0.223 C 
ATOM     22  H12 UNL     1      -3.008  -1.051  32.369  1.00  0.00     0.284 HD
ATOM     23  H11 UNL     1      -4.510  -0.934  32.243  1.00  0.00     0.284 HD
HETATM   24  C1  UNL     1      -2.628  -1.325  34.850  1.00  0.00     0.078 C 
HETATM   25  C3  UNL     1      -4.933  -1.918  34.363  1.00  0.00     0.078 C 
HETATM   26  O11 UNL     1      -4.331   0.359  34.854  1.00  0.00    -0.339 OA
HETATM   27  N10 UNL     1      -2.271   1.902  31.194  1.00  0.00    -0.283 N 
HETATM   28  O10 UNL     1      -1.211   1.108  33.122  1.00  0.00    -0.268 OA
ATOM     29  H10 UNL     1      -1.456   2.270  30.704  1.00  0.00     0.173 HD
HETATM   30  C23 UNL     1      -3.348   2.565  34.622  1.00  0.00     0.051 C 
HETATM   31  C24 UNL     1      -5.555   2.033  33.752  1.00  0.00     0.051 C 
ENDBRANCH  13  14
ENDBRANCH   1  13
BRANCH   4  32
HETATM   32  N5  UNL     1      -3.595   4.922  25.687  1.00  0.00    -0.213 N 
BRANCH  32  33
HETATM   33  C8  UNL     1      -3.399   6.299  26.016  1.00  0.00     0.167 C 
BRANCH  33  34
HETATM   34  C9  UNL     1      -4.387   6.840  27.016  1.00  0.00     0.184 C 
BRANCH  34  35
HETATM   35  O1  UNL     1      -5.437   7.431  26.311  1.00  0.00    -0.399 OA
ATOM     36  H1  UNL     1      -6.252   7.178  26.729  1.00  0.00     0.209 HD
ENDBRANCH  34  35
ENDBRANCH  33  34
ENDBRANCH  32  33
BRANCH  32  37
HETATM   37  C10 UNL     1      -2.996   4.379  24.485  1.00  0.00     0.167 C 
BRANCH  37  38
HETATM   38  C11 UNL     1      -3.299   5.276  23.294  1.00  0.00     0.188 C 
BRANCH  38  39
HETATM   39  O2  UNL     1      -2.187   5.616  22.570  1.00  0.00    -0.387 OA
BRANCH  39  40
HETATM   40  C12 UNL     1      -2.436   6.176  21.344  1.00  0.00     0.193 C 
BRANCH  40  41
HETATM   41  C13 UNL     1      -1.097   6.495  20.682  1.00  0.00     0.190 C 
BRANCH  41  42
HETATM   42  O3  UNL     1      -0.423   5.310  20.347  1.00  0.00    -0.399 OA
ATOM     43  H3  UNL     1      -0.729   4.591  20.889  1.00  0.00     0.209 HD
ENDBRANCH  41  42
ENDBRANCH  40  41
ENDBRANCH  39  40
ENDBRANCH  38  39
ENDBRANCH  37  38
ENDBRANCH  32  37
ENDBRANCH   4  32
BRANCH   8  44
HETATM   44  C16 UNL     1      -8.626   2.902  26.083  1.00  0.00     0.051 C 
BRANCH  44  45
HETATM   45  C17 UNL     1      -9.473   4.055  25.991  1.00  0.00     0.098 A 
HETATM   46  N7  UNL     1     -10.797   4.039  26.204  1.00  0.00    -0.298 N 
HETATM   47  C18 UNL     1     -11.240   5.282  26.034  1.00  0.00     0.372 A 
ATOM     48  H7  UNL     1     -11.360   3.225  26.451  1.00  0.00     0.171 HD
HETATM   49  O4  UNL     1     -12.435   5.630  26.157  1.00  0.00    -0.238 OA
HETATM   50  O5  UNL     1     -10.232   6.051  25.725  1.00  0.00    -0.234 OA
HETATM   51  C19 UNL     1      -9.130   5.355  25.685  1.00  0.00     0.236 A 
BRANCH  51  52
HETATM   52  O6  UNL     1      -7.827   5.747  25.401  1.00  0.00    -0.186 OA
BRANCH  52  53
HETATM   53  S1  UNL     1      -7.360   5.844  23.764  1.00  0.00     0.258 S 
HETATM   54  O7  UNL     1      -8.558   6.116  22.901  1.00  0.00    -0.572 OA
HETATM   55  O8  UNL     1      -6.302   6.889  23.627  1.00  0.00    -0.572 OA
HETATM   56  O9  UNL     1      -6.680   4.348  23.345  1.00  0.00    -0.572 OA
ENDBRANCH  52  53
ENDBRANCH  51  52
ENDBRANCH  44  45
ENDBRANCH   8  44
TORSDOF 16
ENDMDL
MODEL 2
REMARK VINA RESULT: -8.595411615      0.928      2.623
REMARK  16 active torsions:
REMARK  status: ('A' for Active; 'I' for Inactive)
REMARK    1  A    between atoms: C5_10  and  N3_11 
REMARK    2  A    between atoms: N3_11  and  C6_12 
REMARK    3  A    between atoms: C7_15  and  N5_16 
REMARK    4  A    between atoms: N5_16  and  C8_17 
REMARK    5  A    between atoms: N5_16  and  C10_21 
REMARK    6  A    between atoms: C8_17  and  C9_18 
REMARK    7  A    between atoms: C9_18  and  O1_19 
REMARK    8  A    between atoms: C10_21  and  C11_22 
REMARK    9  A    between atoms: C11_22  and  O2_23 
REMARK   10  A    between atoms: O2_23  and  C12_24 
REMARK   11  A    between atoms: C12_24  and  C13_25 
REMARK   12  A    between atoms: C13_25  and  O3_26 
REMARK   13  A    between atoms: C15_31  and  C16_32 
REMARK   14  A    between atoms: C16_32  and  C17_33 
REMARK   15  A    between atoms: C19_39  and  O6_40 
REMARK   16  A    between atoms: O6_40  and  S1_41 
ROOT
HETATM    1  C6  UNL     1      -4.699   2.860  28.646  1.00  0.00     0.300 A 
HETATM    2  N4  UNL     1      -4.009   3.640  27.750  1.00  0.00    -0.147 N 
ATOM      3  H4  UNL     1      -3.043   3.878  27.974  1.00  0.00     0.188 HD
HETATM    4  C7  UNL     1      -4.514   4.108  26.606  1.00  0.00     0.685 A 
HETATM    5  N6  UNL     1      -5.783   3.782  26.330  1.00  0.00    -0.174 N 
ATOM      6  H6  UNL     1      -6.194   4.125  25.462  1.00  0.00     0.186 HD
HETATM    7  C14 UNL     1      -6.547   3.020  27.145  1.00  0.00     0.158 A 
HETATM    8  C15 UNL     1      -7.845   2.562  27.077  1.00  0.00     0.030 A 
HETATM    9  C20 UNL     1      -8.032   1.823  28.235  1.00  0.00     0.123 A 
HETATM   10  N8  UNL     1      -6.877   1.861  28.936  1.00  0.00    -0.299 N 
ATOM     11  H8  UNL     1      -6.719   1.404  29.835  1.00  0.00     0.186 HD
HETATM   12  N9  UNL     1      -5.991   2.576  28.286  1.00  0.00    -0.195 N 
ENDROOT
BRANCH   1  13
HETATM   13  N3  UNL     1      -4.251   2.444  29.657  1.00  0.00    -0.333 NA
BRANCH  13  14
HETATM   14  C5  UNL     1      -3.754   1.969  30.797  1.00  0.00     0.263 A 
HETATM   15  N2  UNL     1      -4.524   1.434  31.726  1.00  0.00    -0.307 N 
HETATM   16  C4  UNL     1      -3.775   0.998  32.848  1.00  0.00     0.315 A 
ATOM     17  H2  UNL     1      -5.536   1.344  31.646  1.00  0.00     0.166 HD
HETATM   18  N1  UNL     1      -3.928  -0.448  32.944  1.00  0.00    -0.005 N 
HETATM   19  C21 UNL     1      -2.396   1.322  32.536  1.00  0.00     0.285 A 
HETATM   20  C22 UNL     1      -4.277   1.575  34.143  1.00  0.00     0.118 C 
HETATM   21  C2  UNL     1      -4.069  -0.657  34.364  1.00  0.00     0.223 C 
ATOM     22  H12 UNL     1      -3.183  -0.988  32.504  1.00  0.00     0.284 HD
ATOM     23  H11 UNL     1      -4.682  -0.838  32.378  1.00  0.00     0.284 HD
HETATM   24  C1  UNL     1      -2.805  -1.221  34.989  1.00  0.00     0.078 C 
HETATM   25  C3  UNL     1      -5.124  -1.768  34.519  1.00  0.00     0.078 C 
HETATM   26  O11 UNL     1      -4.466   0.504  34.961  1.00  0.00    -0.339 OA
HETATM   27  N10 UNL     1      -2.377   1.921  31.268  1.00  0.00    -0.283 N 
HETATM   28  O10 UNL     1      -1.332   1.141  33.210  1.00  0.00    -0.268 OA
ATOM     29  H10 UNL     1      -1.554   2.258  30.769  1.00  0.00     0.173 HD
HETATM   30  C23 UNL     1      -3.431   2.680  34.682  1.00  0.00     0.051 C 
HETATM   31  C24 UNL     1      -5.651   2.185  33.827  1.00  0.00     0.051 C 
ENDBRANCH  13  14
ENDBRANCH   1  13
BRANCH   4  32
HETATM   32  N5  UNL     1      -3.723   4.931  25.734  1.00  0.00    -0.213 N 
BRANCH  32  33
HETATM   33  C8  UNL     1      -3.201   4.358  24.533  1.00  0.00     0.167 C 
BRANCH  33  34
HETATM   34  C9  UNL     1      -2.926   5.359  23.441  1.00  0.00     0.184 C 
BRANCH  34  35
HETATM   35  O1  UNL     1      -3.958   5.272  22.505  1.00  0.00    -0.399 OA
ATOM     36  H1  UNL     1      -4.779   5.194  22.978  1.00  0.00     0.209 HD
ENDBRANCH  34  35
ENDBRANCH  33  34
ENDBRANCH  32  33
BRANCH  32  37
HETATM   37  C10 UNL     1      -3.438   6.315  26.052  1.00  0.00     0.167 C 
BRANCH  37  38
HETATM   38  C11 UNL     1      -4.418   6.827  27.098  1.00  0.00     0.188 C 
BRANCH  38  39
HETATM   39  O2  UNL     1      -5.153   7.903  26.676  1.00  0.00    -0.387 OA
BRANCH  39  40
HETATM   40  C12 UNL     1      -6.352   8.080  27.318  1.00  0.00     0.193 C 
BRANCH  40  41
HETATM   41  C13 UNL     1      -7.094   9.228  26.638  1.00  0.00     0.190 C 
BRANCH  41  42
HETATM   42  O3  UNL     1      -7.048   9.081  25.242  1.00  0.00    -0.399 OA
ATOM     43  H3  UNL     1      -7.344   8.213  24.992  1.00  0.00     0.209 HD
ENDBRANCH  41  42
ENDBRANCH  40  41
ENDBRANCH  39  40
ENDBRANCH  38  39
ENDBRANCH  37  38
ENDBRANCH  32  37
ENDBRANCH   4  32
BRANCH   8  44
HETATM   44  C16 UNL     1      -8.706   2.789  26.111  1.00  0.00     0.051 C 
BRANCH  44  45
HETATM   45  C17 UNL     1      -9.519   3.959  25.957  1.00  0.00     0.098 A 
HETATM   46  N7  UNL     1     -10.852   3.977  26.104  1.00  0.00    -0.298 N 
HETATM   47  C18 UNL     1     -11.256   5.227  25.891  1.00  0.00     0.372 A 
ATOM     48  H7  UNL     1     -11.446   3.182  26.337  1.00  0.00     0.171 HD
HETATM   49  O4  UNL     1     -12.447   5.605  25.948  1.00  0.00    -0.238 OA
HETATM   50  O5  UNL     1     -10.216   5.967  25.619  1.00  0.00    -0.234 OA
HETATM   51  C19 UNL     1      -9.130   5.245  25.645  1.00  0.00     0.236 A 
BRANCH  51  52
HETATM   52  O6  UNL     1      -7.806   5.602  25.420  1.00  0.00    -0.186 OA
BRANCH  52  53
HETATM   53  S1  UNL     1      -7.285   5.762  23.804  1.00  0.00     0.258 S 
HETATM   54  O7  UNL     1      -8.447   6.114  22.921  1.00  0.00    -0.572 OA
HETATM   55  O8  UNL     1      -6.191   6.777  23.750  1.00  0.00    -0.572 OA
HETATM   56  O9  UNL     1      -6.639   4.266  23.333  1.00  0.00    -0.572 OA
ENDBRANCH  52  53
ENDBRANCH  51  52
ENDBRANCH  44  45
ENDBRANCH   8  44
TORSDOF 16
ENDMDL
MODEL 3
REMARK VINA RESULT: -8.469349803      1.157      1.776
REMARK  16 active torsions:
REMARK  status: ('A' for Active; 'I' for Inactive)
REMARK    1  A    between atoms: C5_10  and  N3_11 
REMARK    2  A    between atoms: N3_11  and  C6_12 
REMARK    3  A    between atoms: C7_15  and  N5_16 
REMARK    4  A    between atoms: N5_16  and  C8_17 
REMARK    5  A    between atoms: N5_16  and  C10_21 
REMARK    6  A    between atoms: C8_17  and  C9_18 
REMARK    7  A    between atoms: C9_18  and  O1_19 
REMARK    8  A    between atoms: C10_21  and  C11_22 
REMARK    9  A    between atoms: C11_22  and  O2_23 
REMARK   10  A    between atoms: O2_23  and  C12_24 
REMARK   11  A    between atoms: C12_24  and  C13_25 
REMARK   12  A    between atoms: C13_25  and  O3_26 
REMARK   13  A    between atoms: C15_31  and  C16_32 
REMARK   14  A    between atoms: C16_32  and  C17_33 
REMARK   15  A    between atoms: C19_39  and  O6_40 
REMARK   16  A    between atoms: O6_40  and  S1_41 
ROOT
HETATM    1  C6  UNL     1      -4.359   3.127  28.743  1.00  0.00     0.300 A 
HETATM    2  N4  UNL     1      -3.711   3.926  27.832  1.00  0.00    -0.147 N 
ATOM      3  H4  UNL     1      -2.769   4.241  28.063  1.00  0.00     0.188 HD
HETATM    4  C7  UNL     1      -4.229   4.320  26.666  1.00  0.00     0.685 A 
HETATM    5  N6  UNL     1      -5.467   3.894  26.382  1.00  0.00    -0.174 N 
ATOM      6  H6  UNL     1      -5.886   4.178  25.497  1.00  0.00     0.186 HD
HETATM    7  C14 UNL     1      -6.188   3.105  27.210  1.00  0.00     0.158 A 
HETATM    8  C15 UNL     1      -7.448   2.553  27.138  1.00  0.00     0.030 A 
HETATM    9  C20 UNL     1      -7.602   1.839  28.316  1.00  0.00     0.123 A 
HETATM   10  N8  UNL     1      -6.464   1.983  29.033  1.00  0.00    -0.299 N 
ATOM     11  H8  UNL     1      -6.289   1.567  29.948  1.00  0.00     0.186 HD
HETATM   12  N9  UNL     1      -5.621   2.739  28.373  1.00  0.00    -0.195 N 
ENDROOT
BRANCH   1  13
HETATM   13  N3  UNL     1      -3.900   2.776  29.773  1.00  0.00    -0.333 NA
BRANCH  13  14
HETATM   14  C5  UNL     1      -3.376   2.377  30.930  1.00  0.00     0.263 A 
HETATM   15  N2  UNL     1      -2.838   1.180  31.077  1.00  0.00    -0.307 N 
HETATM   16  C4  UNL     1      -2.346   0.979  32.391  1.00  0.00     0.315 A 
ATOM     17  H2  UNL     1      -2.783   0.484  30.334  1.00  0.00     0.166 HD
HETATM   18  N1  UNL     1      -0.902   0.797  32.297  1.00  0.00    -0.005 N 
HETATM   19  C21 UNL     1      -2.635   2.211  33.101  1.00  0.00     0.285 A 
HETATM   20  C22 UNL     1      -2.899  -0.262  33.037  1.00  0.00     0.118 C 
HETATM   21  C2  UNL     1      -0.655  -0.262  33.244  1.00  0.00     0.223 C 
ATOM     22  H12 UNL     1      -0.353   1.643  32.449  1.00  0.00     0.284 HD
ATOM     23  H11 UNL     1      -0.554   0.618  31.355  1.00  0.00     0.284 HD
HETATM   24  C1  UNL     1      -0.034   0.251  34.531  1.00  0.00     0.078 C 
HETATM   25  C3  UNL     1       0.425  -1.151  32.602  1.00  0.00     0.078 C 
HETATM   26  O11 UNL     1      -1.810  -0.955  33.469  1.00  0.00    -0.339 OA
HETATM   27  N10 UNL     1      -3.271   3.079  32.201  1.00  0.00    -0.283 N 
HETATM   28  O10 UNL     1      -2.401   2.545  34.306  1.00  0.00    -0.268 OA
ATOM     29  H10 UNL     1      -3.598   4.025  32.399  1.00  0.00     0.173 HD
HETATM   30  C23 UNL     1      -3.961   0.006  34.052  1.00  0.00     0.051 C 
HETATM   31  C24 UNL     1      -3.560  -1.064  31.907  1.00  0.00     0.051 C 
ENDBRANCH  13  14
ENDBRANCH   1  13
BRANCH   4  32
HETATM   32  N5  UNL     1      -3.485   5.170  25.779  1.00  0.00    -0.213 N 
BRANCH  32  33
HETATM   33  C8  UNL     1      -3.372   6.560  26.092  1.00  0.00     0.167 C 
BRANCH  33  34
HETATM   34  C9  UNL     1      -4.401   7.055  27.074  1.00  0.00     0.184 C 
BRANCH  34  35
HETATM   35  O1  UNL     1      -5.487   7.551  26.351  1.00  0.00    -0.399 OA
ATOM     36  H1  UNL     1      -5.712   8.403  26.704  1.00  0.00     0.209 HD
ENDBRANCH  34  35
ENDBRANCH  33  34
ENDBRANCH  32  33
BRANCH  32  37
HETATM   37  C10 UNL     1      -2.863   4.651  24.578  1.00  0.00     0.167 C 
BRANCH  37  38
HETATM   38  C11 UNL     1      -2.370   5.796  23.704  1.00  0.00     0.188 C 
BRANCH  38  39
HETATM   39  O2  UNL     1      -2.367   5.499  22.367  1.00  0.00    -0.387 OA
BRANCH  39  40
HETATM   40  C12 UNL     1      -1.997   6.529  21.541  1.00  0.00     0.193 C 
BRANCH  40  41
HETATM   41  C13 UNL     1      -1.535   5.935  20.212  1.00  0.00     0.190 C 
BRANCH  41  42
HETATM   42  O3  UNL     1      -0.328   5.238  20.381  1.00  0.00    -0.399 OA
ATOM     43  H3  UNL     1       0.155   5.211  19.563  1.00  0.00     0.209 HD
ENDBRANCH  41  42
ENDBRANCH  40  41
ENDBRANCH  39  40
ENDBRANCH  38  39
ENDBRANCH  37  38
ENDBRANCH  32  37
ENDBRANCH   4  32
BRANCH   8  44
HETATM   44  C16 UNL     1      -8.306   2.686  26.152  1.00  0.00     0.051 C 
BRANCH  44  45
HETATM   45  C17 UNL     1      -9.195   3.791  25.944  1.00  0.00     0.098 A 
HETATM   46  N7  UNL     1     -10.529   3.721  26.071  1.00  0.00    -0.298 N 
HETATM   47  C18 UNL     1     -11.013   4.932  25.808  1.00  0.00     0.372 A 
ATOM     48  H7  UNL     1     -11.070   2.894  26.322  1.00  0.00     0.171 HD
HETATM   49  O4  UNL     1     -12.229   5.228  25.834  1.00  0.00    -0.238 OA
HETATM   50  O5  UNL     1     -10.023   5.732  25.525  1.00  0.00    -0.234 OA
HETATM   51  C19 UNL     1      -8.890   5.089  25.594  1.00  0.00     0.236 A 
BRANCH  51  52
HETATM   52  O6  UNL     1      -7.590   5.529  25.376  1.00  0.00    -0.186 OA
BRANCH  52  53
HETATM   53  S1  UNL     1      -7.018   5.568  23.770  1.00  0.00     0.258 S 
HETATM   54  O7  UNL     1      -5.908   6.571  23.643  1.00  0.00    -0.572 OA
HETATM   55  O8  UNL     1      -6.597   4.190  23.377  1.00  0.00    -0.572 OA
HETATM   56  O9  UNL     1      -8.318   6.023  22.782  1.00  0.00    -0.572 OA
ENDBRANCH  52  53
ENDBRANCH  51  52
ENDBRANCH  44  45
ENDBRANCH   8  44
TORSDOF 16
ENDMDL
MODEL 4
REMARK VINA RESULT: -8.378137073      1.981      5.805
REMARK  16 active torsions:
REMARK  status: ('A' for Active; 'I' for Inactive)
REMARK    1  A    between atoms: C5_10  and  N3_11 
REMARK    2  A    between atoms: N3_11  and  C6_12 
REMARK    3  A    between atoms: C7_15  and  N5_16 
REMARK    4  A    between atoms: N5_16  and  C8_17 
REMARK    5  A    between atoms: N5_16  and  C10_21 
REMARK    6  A    between atoms: C8_17  and  C9_18 
REMARK    7  A    between atoms: C9_18  and  O1_19 
REMARK    8  A    between atoms: C10_21  and  C11_22 
REMARK    9  A    between atoms: C11_22  and  O2_23 
REMARK   10  A    between atoms: O2_23  and  C12_24 
REMARK   11  A    between atoms: C12_24  and  C13_25 
REMARK   12  A    between atoms: C13_25  and  O3_26 
REMARK   13  A    between atoms: C15_31  and  C16_32 
REMARK   14  A    between atoms: C16_32  and  C17_33 
REMARK   15  A    between atoms: C19_39  and  O6_40 
REMARK   16  A    between atoms: O6_40  and  S1_41 
ROOT
HETATM    1  C6  UNL     1      -6.585   3.013  28.041  1.00  0.00     0.300 A 
HETATM    2  N4  UNL     1      -7.828   3.520  27.750  1.00  0.00    -0.147 N 
ATOM      3  H4  UNL     1      -8.624   3.149  28.268  1.00  0.00     0.188 HD
HETATM    4  C7  UNL     1      -8.067   4.463  26.836  1.00  0.00     0.685 A 
HETATM    5  N6  UNL     1      -7.007   4.938  26.168  1.00  0.00    -0.174 N 
ATOM      6  H6  UNL     1      -7.160   5.660  25.465  1.00  0.00     0.186 HD
HETATM    7  C14 UNL     1      -5.743   4.506  26.381  1.00  0.00     0.158 A 
HETATM    8  C15 UNL     1      -4.523   4.835  25.833  1.00  0.00     0.030 A 
HETATM    9  C20 UNL     1      -3.601   4.030  26.485  1.00  0.00     0.123 A 
HETATM   10  N8  UNL     1      -4.279   3.269  27.373  1.00  0.00    -0.299 N 
ATOM     11  H8  UNL     1      -3.860   2.579  27.997  1.00  0.00     0.186 HD
HETATM   12  N9  UNL     1      -5.557   3.553  27.311  1.00  0.00    -0.195 N 
ENDROOT
BRANCH   1  13
HETATM   13  N3  UNL     1      -6.372   2.181  28.852  1.00  0.00    -0.333 NA
BRANCH  13  14
HETATM   14  C5  UNL     1      -6.139   1.247  29.772  1.00  0.00     0.263 A 
HETATM   15  N2  UNL     1      -5.255   1.422  30.736  1.00  0.00    -0.307 N 
HETATM   16  C4  UNL     1      -5.178   0.297  31.595  1.00  0.00     0.315 A 
ATOM     17  H2  UNL     1      -4.694   2.266  30.850  1.00  0.00     0.166 HD
HETATM   18  N1  UNL     1      -5.601   0.727  32.922  1.00  0.00    -0.005 N 
HETATM   19  C21 UNL     1      -6.135  -0.656  31.064  1.00  0.00     0.285 A 
HETATM   20  C22 UNL     1      -3.778  -0.234  31.737  1.00  0.00     0.118 C 
HETATM   21  C2  UNL     1      -4.669   0.047  33.787  1.00  0.00     0.223 C 
ATOM     22  H12 UNL     1      -6.584   0.555  33.135  1.00  0.00     0.284 HD
ATOM     23  H11 UNL     1      -5.645   1.737  33.051  1.00  0.00     0.284 HD
HETATM   24  C1  UNL     1      -5.299  -1.146  34.486  1.00  0.00     0.078 C 
HETATM   25  C3  UNL     1      -4.340   1.045  34.911  1.00  0.00     0.078 C 
HETATM   26  O11 UNL     1      -3.555  -0.300  33.078  1.00  0.00    -0.339 OA
HETATM   27  N10 UNL     1      -6.733  -0.072  29.937  1.00  0.00    -0.283 N 
HETATM   28  O10 UNL     1      -6.450  -1.821  31.464  1.00  0.00    -0.268 OA
ATOM     29  H10 UNL     1      -7.450  -0.492  29.345  1.00  0.00     0.173 HD
HETATM   30  C23 UNL     1      -3.522  -1.483  30.959  1.00  0.00     0.051 C 
HETATM   31  C24 UNL     1      -2.857   0.847  31.151  1.00  0.00     0.051 C 
ENDBRANCH  13  14
ENDBRANCH   1  13
BRANCH   4  32
HETATM   32  N5  UNL     1      -9.404   4.924  26.585  1.00  0.00    -0.213 N 
BRANCH  32  33
HETATM   33  C8  UNL     1     -10.246   4.156  25.722  1.00  0.00     0.167 C 
BRANCH  33  34
HETATM   34  C9  UNL     1     -11.650   4.689  25.598  1.00  0.00     0.184 C 
BRANCH  34  35
HETATM   35  O1  UNL     1     -11.838   5.108  24.280  1.00  0.00    -0.399 OA
ATOM     36  H1  UNL     1     -12.107   4.355  23.767  1.00  0.00     0.209 HD
ENDBRANCH  34  35
ENDBRANCH  33  34
ENDBRANCH  32  33
BRANCH  32  37
HETATM   37  C10 UNL     1      -9.906   6.149  27.175  1.00  0.00     0.167 C 
BRANCH  37  38
HETATM   38  C11 UNL     1      -9.430   7.352  26.373  1.00  0.00     0.188 C 
BRANCH  38  39
HETATM   39  O2  UNL     1     -10.446   8.027  25.749  1.00  0.00    -0.387 OA
BRANCH  39  40
HETATM   40  C12 UNL     1     -11.645   8.023  26.415  1.00  0.00     0.193 C 
BRANCH  40  41
HETATM   41  C13 UNL     1     -12.761   8.210  25.390  1.00  0.00     0.190 C 
BRANCH  41  42
HETATM   42  O3  UNL     1     -12.291   7.928  24.098  1.00  0.00    -0.399 OA
ATOM     43  H3  UNL     1     -12.010   8.728  23.667  1.00  0.00     0.209 HD
ENDBRANCH  41  42
ENDBRANCH  40  41
ENDBRANCH  39  40
ENDBRANCH  38  39
ENDBRANCH  37  38
ENDBRANCH  32  37
ENDBRANCH   4  32
BRANCH   8  44
HETATM   44  C16 UNL     1      -4.300   5.726  24.894  1.00  0.00     0.051 C 
BRANCH  44  45
HETATM   45  C17 UNL     1      -4.290   5.485  23.481  1.00  0.00     0.098 A 
HETATM   46  N7  UNL     1      -3.177   5.403  22.736  1.00  0.00    -0.298 N 
HETATM   47  C18 UNL     1      -3.557   5.170  21.483  1.00  0.00     0.372 A 
ATOM     48  H7  UNL     1      -2.218   5.503  23.069  1.00  0.00     0.171 HD
HETATM   49  O4  UNL     1      -2.770   5.035  20.519  1.00  0.00    -0.238 OA
HETATM   50  O5  UNL     1      -4.859   5.107  21.440  1.00  0.00    -0.234 OA
HETATM   51  C19 UNL     1      -5.358   5.292  22.631  1.00  0.00     0.236 A 
BRANCH  51  52
HETATM   52  O6  UNL     1      -6.680   5.310  23.060  1.00  0.00    -0.186 OA
BRANCH  52  53
HETATM   53  S1  UNL     1      -7.588   6.728  22.791  1.00  0.00     0.258 S 
HETATM   54  O7  UNL     1      -7.089   7.835  23.675  1.00  0.00    -0.572 OA
HETATM   55  O8  UNL     1      -7.520   7.075  21.339  1.00  0.00    -0.572 OA
HETATM   56  O9  UNL     1      -9.202   6.374  23.172  1.00  0.00    -0.572 OA
ENDBRANCH  52  53
ENDBRANCH  51  52
ENDBRANCH  44  45
ENDBRANCH   8  44
TORSDOF 16
ENDMDL
MODEL 5
REMARK VINA RESULT: -8.339926277      1.372      3.106
REMARK  16 active torsions:
REMARK  status: ('A' for Active; 'I' for Inactive)
REMARK    1  A    between atoms: C5_10  and  N3_11 
REMARK    2  A    between atoms: N3_11  and  C6_12 
REMARK    3  A    between atoms: C7_15  and  N5_16 
REMARK    4  A    between atoms: N5_16  and  C8_17 
REMARK    5  A    between atoms: N5_16  and  C10_21 
REMARK    6  A    between atoms: C8_17  and  C9_18 
REMARK    7  A    between atoms: C9_18  and  O1_19 
REMARK    8  A    between atoms: C10_21  and  C11_22 
REMARK    9  A    between atoms: C11_22  and  O2_23 
REMARK   10  A    between atoms: O2_23  and  C12_24 
REMARK   11  A    between atoms: C12_24  and  C13_25 
REMARK   12  A    between atoms: C13_25  and  O3_26 
REMARK   13  A    between atoms: C15_31  and  C16_32 
REMARK   14  A    between atoms: C16_32  and  C17_33 
REMARK   15  A    between atoms: C19_39  and  O6_40 
REMARK   16  A    between atoms: O6_40  and  S1_41 
ROOT
HETATM    1  C6  UNL     1      -4.489   3.142  28.568  1.00  0.00     0.300 A 
HETATM    2  N4  UNL     1      -3.833   3.896  27.625  1.00  0.00    -0.147 N 
ATOM      3  H4  UNL     1      -2.869   4.164  27.819  1.00  0.00     0.188 HD
HETATM    4  C7  UNL     1      -4.371   4.302  26.472  1.00  0.00     0.685 A 
HETATM    5  N6  UNL     1      -5.639   3.938  26.237  1.00  0.00    -0.174 N 
ATOM      6  H6  UNL     1      -6.074   4.233  25.363  1.00  0.00     0.186 HD
HETATM    7  C14 UNL     1      -6.370   3.197  27.100  1.00  0.00     0.158 A 
HETATM    8  C15 UNL     1      -7.658   2.709  27.079  1.00  0.00     0.030 A 
HETATM    9  C20 UNL     1      -7.806   2.018  28.271  1.00  0.00     0.123 A 
HETATM   10  N8  UNL     1      -6.638   2.111  28.946  1.00  0.00    -0.299 N 
ATOM     11  H8  UNL     1      -6.453   1.697  29.860  1.00  0.00     0.186 HD
HETATM   12  N9  UNL     1      -5.781   2.815  28.247  1.00  0.00    -0.195 N 
ENDROOT
BRANCH   1  13
HETATM   13  N3  UNL     1      -4.012   2.780  29.586  1.00  0.00    -0.333 NA
BRANCH  13  14
HETATM   14  C5  UNL     1      -3.483   2.369  30.737  1.00  0.00     0.263 A 
HETATM   15  N2  UNL     1      -2.868   1.206  30.847  1.00  0.00    -0.307 N 
HETATM   16  C4  UNL     1      -2.387   0.985  32.163  1.00  0.00     0.315 A 
ATOM     17  H2  UNL     1      -2.752   0.546  30.079  1.00  0.00     0.166 HD
HETATM   18  N1  UNL     1      -0.933   0.903  32.091  1.00  0.00    -0.005 N 
HETATM   19  C21 UNL     1      -2.772   2.164  32.914  1.00  0.00     0.285 A 
HETATM   20  C22 UNL     1      -2.866  -0.316  32.747  1.00  0.00     0.118 C 
HETATM   21  C2  UNL     1      -0.632  -0.174  33.000  1.00  0.00     0.223 C 
ATOM     22  H12 UNL     1      -0.445   1.778  32.288  1.00  0.00     0.284 HD
ATOM     23  H11 UNL     1      -0.557   0.788  31.151  1.00  0.00     0.284 HD
HETATM   24  C1  UNL     1      -0.070   0.327  34.320  1.00  0.00     0.078 C 
HETATM   25  C3  UNL     1       0.518  -0.962  32.346  1.00  0.00     0.078 C 
HETATM   26  O11 UNL     1      -1.741  -0.951  33.174  1.00  0.00    -0.339 OA
HETATM   27  N10 UNL     1      -3.449   3.024  32.037  1.00  0.00    -0.283 N 
HETATM   28  O10 UNL     1      -2.583   2.464  34.136  1.00  0.00    -0.268 OA
ATOM     29  H10 UNL     1      -3.842   3.937  32.266  1.00  0.00     0.173 HD
HETATM   30  C23 UNL     1      -3.962  -0.161  33.750  1.00  0.00     0.051 C 
HETATM   31  C24 UNL     1      -3.452  -1.114  31.573  1.00  0.00     0.051 C 
ENDBRANCH  13  14
ENDBRANCH   1  13
BRANCH   4  32
HETATM   32  N5  UNL     1      -3.616   5.103  25.549  1.00  0.00    -0.213 N 
BRANCH  32  33
HETATM   33  C8  UNL     1      -3.237   4.533  24.294  1.00  0.00     0.167 C 
BRANCH  33  34
HETATM   34  C9  UNL     1      -3.086   5.538  23.182  1.00  0.00     0.184 C 
BRANCH  34  35
HETATM   35  O1  UNL     1      -4.057   5.265  22.217  1.00  0.00    -0.399 OA
ATOM     36  H1  UNL     1      -4.897   5.551  22.556  1.00  0.00     0.209 HD
ENDBRANCH  34  35
ENDBRANCH  33  34
ENDBRANCH  32  33
BRANCH  32  37
HETATM   37  C10 UNL     1      -3.224   6.460  25.869  1.00  0.00     0.167 C 
BRANCH  37  38
HETATM   38  C11 UNL     1      -4.118   7.021  26.966  1.00  0.00     0.188 C 
BRANCH  38  39
HETATM   39  O2  UNL     1      -5.210   7.696  26.487  1.00  0.00    -0.387 OA
BRANCH  39  40
HETATM   40  C12 UNL     1      -6.062   8.183  27.445  1.00  0.00     0.193 C 
BRANCH  40  41
HETATM   41  C13 UNL     1      -7.194   8.930  26.744  1.00  0.00     0.190 C 
BRANCH  41  42
HETATM   42  O3  UNL     1      -7.029   8.871  25.351  1.00  0.00    -0.399 OA
ATOM     43  H3  UNL     1      -7.856   9.040  24.913  1.00  0.00     0.209 HD
ENDBRANCH  41  42
ENDBRANCH  40  41
ENDBRANCH  39  40
ENDBRANCH  38  39
ENDBRANCH  37  38
ENDBRANCH  32  37
ENDBRANCH   4  32
BRANCH   8  44
HETATM   44  C16 UNL     1      -8.542   2.875  26.121  1.00  0.00     0.051 C 
BRANCH  44  45
HETATM   45  C17 UNL     1      -9.427   3.993  25.968  1.00  0.00     0.098 A 
HETATM   46  N7  UNL     1     -10.754   3.937  26.156  1.00  0.00    -0.298 N 
HETATM   47  C18 UNL     1     -11.236   5.156  25.929  1.00  0.00     0.372 A 
ATOM     48  H7  UNL     1     -11.293   3.114  26.423  1.00  0.00     0.171 HD
HETATM   49  O4  UNL     1     -12.445   5.466  26.015  1.00  0.00    -0.238 OA
HETATM   50  O5  UNL     1     -10.250   5.949  25.610  1.00  0.00    -0.234 OA
HETATM   51  C19 UNL     1      -9.123   5.292  25.619  1.00  0.00     0.236 A 
BRANCH  51  52
HETATM   52  O6  UNL     1      -7.829   5.720  25.346  1.00  0.00    -0.186 OA
BRANCH  52  53
HETATM   53  S1  UNL     1      -7.342   5.802  23.714  1.00  0.00     0.258 S 
HETATM   54  O7  UNL     1      -8.530   6.066  22.834  1.00  0.00    -0.572 OA
HETATM   55  O8  UNL     1      -6.283   6.847  23.580  1.00  0.00    -0.572 OA
HETATM   56  O9  UNL     1      -6.656   4.303  23.316  1.00  0.00    -0.572 OA
ENDBRANCH  52  53
ENDBRANCH  51  52
ENDBRANCH  44  45
ENDBRANCH   8  44
TORSDOF 16
ENDMDL
