MODEL 1
REMARK VINA RESULT: -7.656059686      0.000      0.000
REMARK  5 active torsions:
REMARK  status: ('A' for Active; 'I' for Inactive)
REMARK    1  A    between atoms: C2_2  and  N1_4 
REMARK    2  A    between atoms: N1_4  and  C4_6 
REMARK    3  A    between atoms: C5_7  and  O1_8 
REMARK    4  A    between atoms: C8_15  and  C9_16 
REMARK    5  A    between atoms: C14_23  and  C15_24 
ROOT
HETATM    1  C4  UNL     1      12.728 -12.781  21.280  1.00  0.00     0.219 C 
HETATM    2  C5  UNL     1      14.107 -12.602  21.794  1.00  0.00     0.193 C 
HETATM    3  C6  UNL     1      14.426 -14.018  21.437  1.00  0.00     0.214 C 
HETATM    4  C7  UNL     1      15.518 -14.205  20.450  1.00  0.00     0.247 C 
HETATM    5  O2  UNL     1      15.499 -13.315  19.510  1.00  0.00    -0.271 OA
HETATM    6  N2  UNL     1      16.518 -15.160  20.384  1.00  0.00    -0.324 N 
ATOM      7  H2  UNL     1      16.394 -15.784  19.587  1.00  0.00     0.169 HD
HETATM    8  C8  UNL     1      17.663 -15.492  21.134  1.00  0.00     0.084 C 
HETATM    9  C12 UNL     1      17.494 -16.552  22.160  1.00  0.00     0.267 C 
HETATM   10  O3  UNL     1      17.829 -16.188  23.353  1.00  0.00    -0.266 OA
HETATM   11  N3  UNL     1      17.024 -17.872  21.983  1.00  0.00    -0.332 N 
HETATM   12  C13 UNL     1      17.647 -19.130  22.444  1.00  0.00     0.134 C 
HETATM   13  C14 UNL     1      17.096 -20.151  21.485  1.00  0.00     0.032 C 
HETATM   14  C19 UNL     1      15.672 -19.747  21.428  1.00  0.00     0.120 C 
HETATM   15 CL1  UNL     1      14.922 -20.459  19.992  1.00  0.00    -0.122 Cl
HETATM   16  C20 UNL     1      15.776 -18.229  21.310  1.00  0.00     0.198 C 
HETATM   17  C21 UNL     1      14.599 -17.720  22.074  1.00  0.00     0.242 C 
HETATM   18  O4  UNL     1      14.591 -18.057  23.309  1.00  0.00    -0.271 OA
HETATM   19  N4  UNL     1      13.552 -16.949  21.592  1.00  0.00    -0.346 N 
ATOM     20  H4  UNL     1      12.895 -16.602  22.291  1.00  0.00     0.163 HD
HETATM   21  C22 UNL     1      13.278 -16.579  20.233  1.00  0.00     0.172 C 
HETATM   22  C23 UNL     1      12.198 -17.578  19.761  1.00  0.00     0.042 C 
HETATM   23  C24 UNL     1      12.687 -15.234  20.064  1.00  0.00     0.244 C 
HETATM   24  O5  UNL     1      11.739 -15.065  19.203  1.00  0.00    -0.271 OA
HETATM   25  N5  UNL     1      13.123 -14.119  20.810  1.00  0.00    -0.310 N 
ENDROOT
BRANCH   1  26
HETATM   26  N1  UNL     1      11.618 -12.716  22.166  1.00  0.00    -0.371 N 
ATOM     27  H1  UNL     1      10.839 -13.342  21.964  1.00  0.00     0.161 HD
BRANCH  26  28
HETATM   28  C2  UNL     1      11.474 -11.876  23.301  1.00  0.00    -0.007 C 
HETATM   29  C1  UNL     1      11.034 -12.316  24.455  1.00  0.00     0.037 C 
HETATM   30  C3  UNL     1      11.833 -10.448  23.175  1.00  0.00     0.067 C 
ENDBRANCH  26  28
ENDBRANCH   1  26
BRANCH   2  31
HETATM   31  O1  UNL     1      14.875 -11.701  21.048  1.00  0.00    -0.389 OA
ATOM     32  H1  UNL     1      15.734 -12.032  20.813  1.00  0.00     0.210 HD
ENDBRANCH   2  31
BRANCH   8  33
HETATM   33  C9  UNL     1      18.496 -14.357  21.665  1.00  0.00     0.033 C 
HETATM   34  C10 UNL     1      19.978 -14.565  21.643  1.00  0.00     0.016 C 
HETATM   35  C11 UNL     1      18.195 -13.049  20.972  1.00  0.00     0.016 C 
ENDBRANCH   8  33
BRANCH  13  36
HETATM   36  C15 UNL     1      17.375 -21.542  21.964  1.00  0.00    -0.045 C 
HETATM   37  C16 UNL     1      16.269 -22.175  22.743  1.00  0.00     0.015 C 
HETATM   38  C17 UNL     1      17.743 -22.442  20.792  1.00  0.00     0.015 C 
HETATM   39  C18 UNL     1      18.612 -21.495  22.843  1.00  0.00     0.015 C 
ENDBRANCH  13  36
TORSDOF 5
ENDMDL
MODEL 2
REMARK VINA RESULT: -7.338310932      2.659      5.921
REMARK  5 active torsions:
REMARK  status: ('A' for Active; 'I' for Inactive)
REMARK    1  A    between atoms: C2_2  and  N1_4 
REMARK    2  A    between atoms: N1_4  and  C4_6 
REMARK    3  A    between atoms: C5_7  and  O1_8 
REMARK    4  A    between atoms: C8_15  and  C9_16 
REMARK    5  A    between atoms: C14_23  and  C15_24 
ROOT
HETATM    1  C4  UNL     1      19.065 -14.421  22.201  1.00  0.00     0.219 C 
HETATM    2  C5  UNL     1      18.363 -13.761  21.075  1.00  0.00     0.193 C 
HETATM    3  C6  UNL     1      17.333 -14.844  21.078  1.00  0.00     0.214 C 
HETATM    4  C7  UNL     1      15.939 -14.409  21.345  1.00  0.00     0.247 C 
HETATM    5  O2  UNL     1      15.869 -13.480  22.243  1.00  0.00    -0.271 OA
HETATM    6  N2  UNL     1      14.742 -14.837  20.796  1.00  0.00    -0.324 N 
ATOM      7  H2  UNL     1      14.168 -15.331  21.479  1.00  0.00     0.169 HD
HETATM    8  C8  UNL     1      14.114 -14.767  19.537  1.00  0.00     0.084 C 
HETATM    9  C12 UNL     1      14.295 -15.938  18.644  1.00  0.00     0.267 C 
HETATM   10  O3  UNL     1      14.796 -15.648  17.489  1.00  0.00    -0.266 OA
HETATM   11  N3  UNL     1      13.989 -17.292  18.906  1.00  0.00    -0.332 N 
HETATM   12  C13 UNL     1      13.206 -18.228  18.071  1.00  0.00     0.134 C 
HETATM   13  C14 UNL     1      12.700 -19.231  19.071  1.00  0.00     0.032 C 
HETATM   14  C19 UNL     1      13.915 -19.456  19.887  1.00  0.00     0.120 C 
HETATM   15 CL1  UNL     1      13.454 -20.196  21.427  1.00  0.00    -0.122 Cl
HETATM   16  C20 UNL     1      14.435 -18.034  20.084  1.00  0.00     0.198 C 
HETATM   17  C21 UNL     1      15.920 -18.184  20.083  1.00  0.00     0.242 C 
HETATM   18  O4  UNL     1      16.397 -18.671  18.999  1.00  0.00    -0.271 OA
HETATM   19  N4  UNL     1      16.799 -17.859  21.105  1.00  0.00    -0.346 N 
ATOM     20  H4  UNL     1      17.792 -17.925  20.879  1.00  0.00     0.163 HD
HETATM   21  C22 UNL     1      16.487 -17.441  22.442  1.00  0.00     0.172 C 
HETATM   22  C23 UNL     1      16.629 -18.719  23.299  1.00  0.00     0.042 C 
HETATM   23  C24 UNL     1      17.427 -16.458  23.020  1.00  0.00     0.244 C 
HETATM   24  O5  UNL     1      17.783 -16.576  24.257  1.00  0.00    -0.271 OA
HETATM   25  N5  UNL     1      17.955 -15.386  22.269  1.00  0.00    -0.310 N 
ENDROOT
BRANCH   1  26
HETATM   26  N1  UNL     1      20.368 -14.958  22.019  1.00  0.00    -0.371 N 
ATOM     27  H1  UNL     1      20.744 -14.925  21.071  1.00  0.00     0.161 HD
BRANCH  26  28
HETATM   28  C2  UNL     1      21.206 -15.534  23.010  1.00  0.00    -0.007 C 
HETATM   29  C1  UNL     1      21.204 -16.817  23.278  1.00  0.00     0.037 C 
HETATM   30  C3  UNL     1      22.115 -14.651  23.768  1.00  0.00     0.067 C 
ENDBRANCH  26  28
ENDBRANCH   1  26
BRANCH   2  31
HETATM   31  O1  UNL     1      17.803 -12.521  21.408  1.00  0.00    -0.389 OA
ATOM     32  H1  UNL     1      16.963 -12.585  21.846  1.00  0.00     0.210 HD
ENDBRANCH   2  31
BRANCH   8  33
HETATM   33  C9  UNL     1      14.244 -13.479  18.770  1.00  0.00     0.033 C 
HETATM   34  C10 UNL     1      13.641 -12.269  19.412  1.00  0.00     0.016 C 
HETATM   35  C11 UNL     1      15.678 -13.160  18.419  1.00  0.00     0.016 C 
ENDBRANCH   8  33
BRANCH  13  36
HETATM   36  C15 UNL     1      12.128 -20.432  18.383  1.00  0.00    -0.045 C 
HETATM   37  C16 UNL     1      13.084 -21.563  18.187  1.00  0.00     0.015 C 
HETATM   38  C17 UNL     1      10.900 -20.936  19.130  1.00  0.00     0.015 C 
HETATM   39  C18 UNL     1      11.622 -19.993  17.020  1.00  0.00     0.015 C 
ENDBRANCH  13  36
TORSDOF 5
ENDMDL
MODEL 3
REMARK VINA RESULT: -7.172005316      1.293      1.389
REMARK  5 active torsions:
REMARK  status: ('A' for Active; 'I' for Inactive)
REMARK    1  A    between atoms: C2_2  and  N1_4 
REMARK    2  A    between atoms: N1_4  and  C4_6 
REMARK    3  A    between atoms: C5_7  and  O1_8 
REMARK    4  A    between atoms: C8_15  and  C9_16 
REMARK    5  A    between atoms: C14_23  and  C15_24 
ROOT
HETATM    1  C4  UNL     1      13.794 -13.197  20.619  1.00  0.00     0.219 C 
HETATM    2  C5  UNL     1      14.900 -13.084  21.599  1.00  0.00     0.193 C 
HETATM    3  C6  UNL     1      15.225 -14.530  21.403  1.00  0.00     0.214 C 
HETATM    4  C7  UNL     1      16.585 -14.822  20.885  1.00  0.00     0.247 C 
HETATM    5  O2  UNL     1      16.973 -13.969  19.992  1.00  0.00    -0.271 OA
HETATM    6  N2  UNL     1      17.469 -15.839  21.202  1.00  0.00    -0.324 N 
ATOM      7  H2  UNL     1      17.599 -16.485  20.423  1.00  0.00     0.169 HD
HETATM    8  C8  UNL     1      18.236 -16.212  22.323  1.00  0.00     0.084 C 
HETATM    9  C12 UNL     1      17.629 -17.219  23.230  1.00  0.00     0.267 C 
HETATM   10  O3  UNL     1      17.533 -16.831  24.458  1.00  0.00    -0.266 OA
HETATM   11  N3  UNL     1      17.162 -18.514  22.911  1.00  0.00    -0.332 N 
HETATM   12  C13 UNL     1      17.484 -19.790  23.584  1.00  0.00     0.134 C 
HETATM   13  C14 UNL     1      17.248 -20.810  22.504  1.00  0.00     0.032 C 
HETATM   14  C19 UNL     1      15.975 -20.321  21.925  1.00  0.00     0.120 C 
HETATM   15 CL1  UNL     1      15.749 -21.040  20.324  1.00  0.00    -0.122 Cl
HETATM   16  C20 UNL     1      16.223 -18.818  21.833  1.00  0.00     0.198 C 
HETATM   17  C21 UNL     1      14.889 -18.209  22.107  1.00  0.00     0.242 C 
HETATM   18  O4  UNL     1      14.408 -18.497  23.258  1.00  0.00    -0.271 OA
HETATM   19  N4  UNL     1      14.147 -17.393  21.265  1.00  0.00    -0.346 N 
ATOM     20  H4  UNL     1      13.307 -16.979  21.671  1.00  0.00     0.163 HD
HETATM   21  C22 UNL     1      14.413 -17.059  19.896  1.00  0.00     0.172 C 
HETATM   22  C23 UNL     1      13.510 -18.007  19.075  1.00  0.00     0.042 C 
HETATM   23  C24 UNL     1      14.022 -15.688  19.505  1.00  0.00     0.244 C 
HETATM   24  O5  UNL     1      13.467 -15.493  18.355  1.00  0.00    -0.271 OA
HETATM   25  N5  UNL     1      14.235 -14.574  20.344  1.00  0.00    -0.310 N 
ENDROOT
BRANCH   1  26
HETATM   26  N1  UNL     1      12.445 -13.029  21.037  1.00  0.00    -0.371 N 
ATOM     27  H1  UNL     1      11.758 -13.652  20.613  1.00  0.00     0.161 HD
BRANCH  26  28
HETATM   28  C2  UNL     1      11.949 -12.091  21.979  1.00  0.00    -0.007 C 
HETATM   29  C1  UNL     1      11.424 -12.450  23.126  1.00  0.00     0.037 C 
HETATM   30  C3  UNL     1      12.029 -10.652  21.654  1.00  0.00     0.067 C 
ENDBRANCH  26  28
ENDBRANCH   1  26
BRANCH   2  31
HETATM   31  O1  UNL     1      15.950 -12.262  21.173  1.00  0.00    -0.389 OA
ATOM     32  H1  UNL     1      16.232 -11.632  21.826  1.00  0.00     0.210 HD
ENDBRANCH   2  31
BRANCH   8  33
HETATM   33  C9  UNL     1      18.897 -15.111  23.106  1.00  0.00     0.033 C 
HETATM   34  C10 UNL     1      19.964 -15.539  24.066  1.00  0.00     0.016 C 
HETATM   35  C11 UNL     1      19.471 -14.035  22.216  1.00  0.00     0.016 C 
ENDBRANCH   8  33
BRANCH  13  36
HETATM   36  C15 UNL     1      17.232 -22.196  23.070  1.00  0.00    -0.045 C 
HETATM   37  C16 UNL     1      15.877 -22.727  23.404  1.00  0.00     0.015 C 
HETATM   38  C17 UNL     1      17.932 -23.162  22.123  1.00  0.00     0.015 C 
HETATM   39  C18 UNL     1      18.070 -22.193  24.337  1.00  0.00     0.015 C 
ENDBRANCH  13  36
TORSDOF 5
ENDMDL
MODEL 4
REMARK VINA RESULT: -7.159823326      2.481      7.469
REMARK  5 active torsions:
REMARK  status: ('A' for Active; 'I' for Inactive)
REMARK    1  A    between atoms: C2_2  and  N1_4 
REMARK    2  A    between atoms: N1_4  and  C4_6 
REMARK    3  A    between atoms: C5_7  and  O1_8 
REMARK    4  A    between atoms: C8_15  and  C9_16 
REMARK    5  A    between atoms: C14_23  and  C15_24 
ROOT
HETATM    1  C4  UNL     1      19.206 -19.828  21.356  1.00  0.00     0.219 C 
HETATM    2  C5  UNL     1      19.983 -18.592  21.608  1.00  0.00     0.193 C 
HETATM    3  C6  UNL     1      18.712 -17.822  21.770  1.00  0.00     0.214 C 
HETATM    4  C7  UNL     1      18.506 -17.184  23.094  1.00  0.00     0.247 C 
HETATM    5  O2  UNL     1      18.916 -17.924  24.074  1.00  0.00    -0.271 OA
HETATM    6  N2  UNL     1      17.958 -15.957  23.426  1.00  0.00    -0.324 N 
ATOM      7  H2  UNL     1      17.071 -16.060  23.918  1.00  0.00     0.169 HD
HETATM    8  C8  UNL     1      18.309 -14.603  23.259  1.00  0.00     0.084 C 
HETATM    9  C12 UNL     1      17.728 -13.913  22.080  1.00  0.00     0.267 C 
HETATM   10  O3  UNL     1      18.605 -13.381  21.295  1.00  0.00    -0.266 OA
HETATM   11  N3  UNL     1      16.365 -13.774  21.733  1.00  0.00    -0.332 N 
HETATM   12  C13 UNL     1      15.638 -12.539  21.373  1.00  0.00     0.134 C 
HETATM   13  C14 UNL     1      14.212 -12.873  21.719  1.00  0.00     0.032 C 
HETATM   14  C19 UNL     1      14.104 -14.247  21.176  1.00  0.00     0.120 C 
HETATM   15 CL1  UNL     1      12.703 -15.050  21.899  1.00  0.00    -0.122 Cl
HETATM   16  C20 UNL     1      15.413 -14.879  21.642  1.00  0.00     0.198 C 
HETATM   17  C21 UNL     1      15.785 -15.809  20.536  1.00  0.00     0.242 C 
HETATM   18  O4  UNL     1      15.963 -15.233  19.406  1.00  0.00    -0.271 OA
HETATM   19  N4  UNL     1      15.950 -17.184  20.612  1.00  0.00    -0.346 N 
ATOM     20  H4  UNL     1      16.318 -17.636  19.775  1.00  0.00     0.163 HD
HETATM   21  C22 UNL     1      15.667 -18.049  21.720  1.00  0.00     0.172 C 
HETATM   22  C23 UNL     1      14.283 -18.659  21.403  1.00  0.00     0.042 C 
HETATM   23  C24 UNL     1      16.591 -19.194  21.865  1.00  0.00     0.244 C 
HETATM   24  O5  UNL     1      16.116 -20.352  22.186  1.00  0.00    -0.271 OA
HETATM   25  N5  UNL     1      17.983 -19.071  21.666  1.00  0.00    -0.310 N 
ENDROOT
BRANCH   1  26
HETATM   26  N1  UNL     1      19.260 -20.463  20.085  1.00  0.00    -0.371 N 
ATOM     27  H1  UNL     1      20.184 -20.553  19.661  1.00  0.00     0.161 HD
BRANCH  26  28
HETATM   28  C2  UNL     1      18.171 -20.986  19.340  1.00  0.00    -0.007 C 
HETATM   29  C1  UNL     1      17.572 -20.307  18.392  1.00  0.00     0.037 C 
HETATM   30  C3  UNL     1      17.695 -22.351  19.646  1.00  0.00     0.067 C 
ENDBRANCH  26  28
ENDBRANCH   1  26
BRANCH   2  31
HETATM   31  O1  UNL     1      20.719 -18.620  22.799  1.00  0.00    -0.389 OA
ATOM     32  H1  UNL     1      20.183 -18.561  23.582  1.00  0.00     0.210 HD
ENDBRANCH   2  31
BRANCH   8  33
HETATM   33  C9  UNL     1      19.757 -14.237  23.437  1.00  0.00     0.033 C 
HETATM   34  C10 UNL     1      20.296 -14.351  24.829  1.00  0.00     0.016 C 
HETATM   35  C11 UNL     1      20.667 -15.016  22.517  1.00  0.00     0.016 C 
ENDBRANCH   8  33
BRANCH  13  36
HETATM   36  C15 UNL     1      13.271 -11.857  21.152  1.00  0.00    -0.045 C 
HETATM   37  C16 UNL     1      11.858 -11.971  21.623  1.00  0.00     0.015 C 
HETATM   38  C17 UNL     1      13.781 -10.449  21.430  1.00  0.00     0.015 C 
HETATM   39  C18 UNL     1      13.283 -12.001  19.640  1.00  0.00     0.015 C 
ENDBRANCH  13  36
TORSDOF 5
ENDMDL
MODEL 5
REMARK VINA RESULT: -7.019989975      4.068      7.064
REMARK  5 active torsions:
REMARK  status: ('A' for Active; 'I' for Inactive)
REMARK    1  A    between atoms: C2_2  and  N1_4 
REMARK    2  A    between atoms: N1_4  and  C4_6 
REMARK    3  A    between atoms: C5_7  and  O1_8 
REMARK    4  A    between atoms: C8_15  and  C9_16 
REMARK    5  A    between atoms: C14_23  and  C15_24 
ROOT
HETATM    1  C4  UNL     1      22.202 -16.305  24.370  1.00  0.00     0.219 C 
HETATM    2  C5  UNL     1      22.114 -17.785  24.380  1.00  0.00     0.193 C 
HETATM    3  C6  UNL     1      20.951 -17.725  23.442  1.00  0.00     0.214 C 
HETATM    4  C7  UNL     1      21.142 -18.397  22.134  1.00  0.00     0.247 C 
HETATM    5  O2  UNL     1      22.336 -18.236  21.658  1.00  0.00    -0.271 OA
HETATM    6  N2  UNL     1      20.262 -19.144  21.369  1.00  0.00    -0.324 N 
ATOM      7  H2  UNL     1      20.016 -18.668  20.501  1.00  0.00     0.169 HD
HETATM    8  C8  UNL     1      19.620 -20.393  21.480  1.00  0.00     0.084 C 
HETATM    9  C12 UNL     1      18.243 -20.377  22.035  1.00  0.00     0.267 C 
HETATM   10  O3  UNL     1      18.085 -21.131  23.072  1.00  0.00    -0.266 OA
HETATM   11  N3  UNL     1      17.122 -19.655  21.571  1.00  0.00    -0.332 N 
HETATM   12  C13 UNL     1      15.765 -20.165  21.283  1.00  0.00     0.134 C 
HETATM   13  C14 UNL     1      15.235 -19.171  20.285  1.00  0.00     0.032 C 
HETATM   14  C19 UNL     1      15.674 -17.895  20.895  1.00  0.00     0.120 C 
HETATM   15 CL1  UNL     1      15.625 -16.617  19.672  1.00  0.00    -0.122 Cl
HETATM   16  C20 UNL     1      17.107 -18.217  21.311  1.00  0.00     0.198 C 
HETATM   17  C21 UNL     1      17.303 -17.449  22.575  1.00  0.00     0.242 C 
HETATM   18  O4  UNL     1      16.498 -17.775  23.516  1.00  0.00    -0.271 OA
HETATM   19  N4  UNL     1      18.236 -16.453  22.820  1.00  0.00    -0.346 N 
ATOM     20  H4  UNL     1      18.294 -16.122  23.783  1.00  0.00     0.163 HD
HETATM   21  C22 UNL     1      19.131 -15.830  21.887  1.00  0.00     0.172 C 
HETATM   22  C23 UNL     1      18.442 -14.501  21.505  1.00  0.00     0.042 C 
HETATM   23  C24 UNL     1      20.448 -15.458  22.445  1.00  0.00     0.244 C 
HETATM   24  O5  UNL     1      20.981 -14.330  22.108  1.00  0.00    -0.271 OA
HETATM   25  N5  UNL     1      21.154 -16.294  23.336  1.00  0.00    -0.310 N 
ENDROOT
BRANCH   1  26
HETATM   26  N1  UNL     1      21.941 -15.562  25.553  1.00  0.00    -0.371 N 
ATOM     27  H1  UNL     1      22.655 -15.603  26.282  1.00  0.00     0.161 HD
BRANCH  26  28
HETATM   28  C2  UNL     1      20.798 -14.770  25.834  1.00  0.00    -0.007 C 
HETATM   29  C1  UNL     1      20.814 -13.460  25.777  1.00  0.00     0.037 C 
HETATM   30  C3  UNL     1      19.540 -15.449  26.206  1.00  0.00     0.067 C 
ENDBRANCH  26  28
ENDBRANCH   1  26
BRANCH   2  31
HETATM   31  O1  UNL     1      23.214 -18.420  23.792  1.00  0.00    -0.389 OA
ATOM     32  H1  UNL     1      23.650 -17.897  23.130  1.00  0.00     0.210 HD
ENDBRANCH   2  31
BRANCH   8  33
HETATM   33  C9  UNL     1      20.418 -21.534  22.051  1.00  0.00     0.033 C 
HETATM   34  C10 UNL     1      21.543 -22.037  21.201  1.00  0.00     0.016 C 
HETATM   35  C11 UNL     1      20.968 -21.223  23.423  1.00  0.00     0.016 C 
ENDBRANCH   8  33
BRANCH  13  36
HETATM   36  C15 UNL     1      13.761 -19.343  20.088  1.00  0.00    -0.045 C 
HETATM   37  C16 UNL     1      12.903 -18.467  20.942  1.00  0.00     0.015 C 
HETATM   38  C17 UNL     1      13.394 -19.133  18.625  1.00  0.00     0.015 C 
HETATM   39  C18 UNL     1      13.414 -20.791  20.390  1.00  0.00     0.015 C 
ENDBRANCH  13  36
TORSDOF 5
ENDMDL
