MODEL 1
REMARK VINA RESULT: -8.414363420      0.000      0.000
REMARK  2 active torsions:
REMARK  status: ('A' for Active; 'I' for Inactive)
REMARK       I    between atoms: N1_2  and  C2_4 
REMARK    1  A    between atoms: C2_4  and  C3_6 
REMARK    2  A    between atoms: C5_9  and  N3_10 
REMARK       I    between atoms: C6_12  and  N5_14 
REMARK       I    between atoms: C7_16  and  N6_17 
REMARK       I    between atoms: C7_16  and  N7_23 
ROOT
HETATM    1  N3  UNL     1      18.433 -13.640  21.218  1.00  0.00    -0.328 N 
ATOM      2  H3  UNL     1      19.048 -13.254  20.501  1.00  0.00     0.168 HD
HETATM    3  C6  UNL     1      17.170 -13.585  21.097  1.00  0.00     0.207 C 
HETATM    4  N4  UNL     1      17.473 -12.752  19.560  1.00  0.00    -0.063 NA
HETATM    5  N5  UNL     1      15.924 -13.557  21.025  1.00  0.00    -0.163 N 
ATOM      6  H5  UNL     1      15.628 -12.719  21.525  1.00  0.00     0.187 HD
HETATM    7  C7  UNL     1      14.871 -14.107  20.609  1.00  0.00     0.681 C 
HETATM    8  N6  UNL     1      13.635 -13.490  20.907  1.00  0.00    -0.214 N 
HETATM    9  C8  UNL     1      12.790 -14.122  21.919  1.00  0.00     0.167 C 
HETATM   10  C9  UNL     1      12.344 -13.008  22.854  1.00  0.00     0.188 C 
HETATM   11  O2  UNL     1      11.520 -12.176  22.106  1.00  0.00    -0.388 OA
HETATM   12  C10 UNL     1      12.321 -11.447  21.229  1.00  0.00     0.188 C 
HETATM   13  C11 UNL     1      13.141 -12.277  20.302  1.00  0.00     0.167 C 
HETATM   14  N7  UNL     1      14.910 -15.309  19.873  1.00  0.00    -0.205 N 
HETATM   15  C12 UNL     1      15.514 -16.526  20.452  1.00  0.00     0.168 C 
HETATM   16  C13 UNL     1      14.706 -17.733  20.119  1.00  0.00     0.188 C 
HETATM   17  O3  UNL     1      14.428 -17.851  18.782  1.00  0.00    -0.387 OA
HETATM   18  C14 UNL     1      15.027 -16.830  18.067  1.00  0.00     0.198 C 
HETATM   19  C15 UNL     1      14.393 -15.503  18.532  1.00  0.00     0.064 C 
HETATM   20  C16 UNL     1      12.898 -15.718  18.491  1.00  0.00     0.041 C 
HETATM   21  C17 UNL     1      14.850 -14.472  17.542  1.00  0.00     0.041 C 
ENDROOT
BRANCH   1  22
HETATM   22  C5  UNL     1      18.975 -14.270  22.412  1.00  0.00     0.060 A 
HETATM   23  C4  UNL     1      20.332 -14.460  22.469  1.00  0.00     0.090 A 
HETATM   24  C3  UNL     1      20.870 -15.080  23.623  1.00  0.00     0.076 A 
HETATM   25  N2  UNL     1      21.147 -14.009  21.393  1.00  0.00    -0.099 NA
HETATM   26  C21 UNL     1      20.013 -15.454  24.615  1.00  0.00     0.034 A 
HETATM   27  C19 UNL     1      18.645 -15.247  24.524  1.00  0.00    -0.041 A 
HETATM   28 BR1  UNL     1      20.692 -16.279  26.205  1.00  0.00    -0.049 Br
HETATM   29  C18 UNL     1      18.133 -14.651  23.412  1.00  0.00     0.039 A 
HETATM   30  C20 UNL     1      17.753 -15.658  25.655  1.00  0.00     0.049 C 
BRANCH  24  31
HETATM   31  C2  UNL     1      22.300 -15.274  23.581  1.00  0.00     0.254 C 
HETATM   32  N1  UNL     1      23.289 -14.328  23.749  1.00  0.00    -0.361 N 
HETATM   33  C1  UNL     1      24.699 -14.847  23.644  1.00  0.00     0.149 C 
ATOM     34  H1  UNL     1      23.081 -13.346  23.932  1.00  0.00     0.162 HD
HETATM   35  O1  UNL     1      22.719 -16.472  23.359  1.00  0.00    -0.268 OA
ENDBRANCH  24  31
ENDBRANCH   1  22
TORSDOF 2
ENDMDL
MODEL 2
REMARK VINA RESULT: -8.300120316      3.054      8.412
REMARK  2 active torsions:
REMARK  status: ('A' for Active; 'I' for Inactive)
REMARK       I    between atoms: N1_2  and  C2_4 
REMARK    1  A    between atoms: C2_4  and  C3_6 
REMARK    2  A    between atoms: C5_9  and  N3_10 
REMARK       I    between atoms: C6_12  and  N5_14 
REMARK       I    between atoms: C7_16  and  N6_17 
REMARK       I    between atoms: C7_16  and  N7_23 
ROOT
HETATM    1  N3  UNL     1      18.465 -14.317  20.827  1.00  0.00    -0.328 N 
ATOM      2  H3  UNL     1      18.938 -13.560  20.335  1.00  0.00     0.168 HD
HETATM    3  C6  UNL     1      19.124 -15.221  21.429  1.00  0.00     0.207 C 
HETATM    4  N4  UNL     1      20.575 -14.366  20.872  1.00  0.00    -0.063 NA
HETATM    5  N5  UNL     1      19.725 -16.131  22.037  1.00  0.00    -0.163 N 
ATOM      6  H5  UNL     1      19.816 -16.903  21.377  1.00  0.00     0.187 HD
HETATM    7  C7  UNL     1      20.268 -16.517  23.105  1.00  0.00     0.681 C 
HETATM    8  N6  UNL     1      20.826 -17.815  23.136  1.00  0.00    -0.214 N 
HETATM    9  C8  UNL     1      20.110 -18.840  23.894  1.00  0.00     0.167 C 
HETATM   10  C9  UNL     1      20.038 -20.062  22.990  1.00  0.00     0.188 C 
HETATM   11  O2  UNL     1      21.343 -20.514  22.838  1.00  0.00    -0.388 OA
HETATM   12  C10 UNL     1      22.012 -19.630  21.994  1.00  0.00     0.188 C 
HETATM   13  C11 UNL     1      22.041 -18.217  22.471  1.00  0.00     0.167 C 
HETATM   14  N7  UNL     1      20.318 -15.690  24.246  1.00  0.00    -0.205 N 
HETATM   15  C12 UNL     1      19.076 -15.188  24.865  1.00  0.00     0.168 C 
HETATM   16  C13 UNL     1      19.165 -15.233  26.352  1.00  0.00     0.188 C 
HETATM   17  O3  UNL     1      20.294 -14.638  26.848  1.00  0.00    -0.387 OA
HETATM   18  C14 UNL     1      21.047 -14.090  25.826  1.00  0.00     0.198 C 
HETATM   19  C15 UNL     1      21.521 -15.250  24.926  1.00  0.00     0.064 C 
HETATM   20  C16 UNL     1      22.100 -16.291  25.856  1.00  0.00     0.041 C 
HETATM   21  C17 UNL     1      22.557 -14.655  24.018  1.00  0.00     0.041 C 
ENDROOT
BRANCH   1  22
HETATM   22  C5  UNL     1      17.012 -14.399  20.862  1.00  0.00     0.060 A 
HETATM   23  C4  UNL     1      16.307 -13.241  20.650  1.00  0.00     0.090 A 
HETATM   24  C3  UNL     1      14.893 -13.307  20.689  1.00  0.00     0.076 A 
HETATM   25  N2  UNL     1      17.009 -12.034  20.375  1.00  0.00    -0.099 NA
HETATM   26  C21 UNL     1      14.308 -14.514  20.935  1.00  0.00     0.034 A 
HETATM   27  C19 UNL     1      15.052 -15.665  21.144  1.00  0.00    -0.041 A 
HETATM   28 BR1  UNL     1      12.398 -14.660  20.979  1.00  0.00    -0.049 Br
HETATM   29  C18 UNL     1      16.411 -15.596  21.106  1.00  0.00     0.039 A 
HETATM   30  C20 UNL     1      14.356 -16.968  21.387  1.00  0.00     0.049 C 
BRANCH  24  31
HETATM   31  C2  UNL     1      14.234 -12.037  20.495  1.00  0.00     0.254 C 
HETATM   32  N1  UNL     1      14.083 -11.012  21.405  1.00  0.00    -0.361 N 
HETATM   33  C1  UNL     1      13.339  -9.806  20.895  1.00  0.00     0.149 C 
ATOM     34  H1  UNL     1      14.450 -11.066  22.355  1.00  0.00     0.162 HD
HETATM   35  O1  UNL     1      13.720 -11.820  19.334  1.00  0.00    -0.268 OA
ENDBRANCH  24  31
ENDBRANCH   1  22
TORSDOF 2
ENDMDL
MODEL 3
REMARK VINA RESULT: -7.459779988      1.442      1.514
REMARK  2 active torsions:
REMARK  status: ('A' for Active; 'I' for Inactive)
REMARK       I    between atoms: N1_2  and  C2_4 
REMARK    1  A    between atoms: C2_4  and  C3_6 
REMARK    2  A    between atoms: C5_9  and  N3_10 
REMARK       I    between atoms: C6_12  and  N5_14 
REMARK       I    between atoms: C7_16  and  N6_17 
REMARK       I    between atoms: C7_16  and  N7_23 
ROOT
HETATM    1  N3  UNL     1      18.417 -14.286  21.351  1.00  0.00    -0.328 N 
ATOM      2  H3  UNL     1      19.072 -13.822  20.721  1.00  0.00     0.168 HD
HETATM    3  C6  UNL     1      17.163 -14.191  21.180  1.00  0.00     0.207 C 
HETATM    4  N4  UNL     1      17.552 -13.171  19.782  1.00  0.00    -0.063 NA
HETATM    5  N5  UNL     1      15.922 -14.131  21.053  1.00  0.00    -0.163 N 
ATOM      6  H5  UNL     1      15.613 -13.360  21.644  1.00  0.00     0.187 HD
HETATM    7  C7  UNL     1      14.884 -14.601  20.518  1.00  0.00     0.681 C 
HETATM    8  N6  UNL     1      13.644 -14.004  20.836  1.00  0.00    -0.214 N 
HETATM    9  C8  UNL     1      12.741 -14.747  21.714  1.00  0.00     0.167 C 
HETATM   10  C9  UNL     1      12.264 -13.757  22.766  1.00  0.00     0.188 C 
HETATM   11  O2  UNL     1      11.488 -12.818  22.096  1.00  0.00    -0.388 OA
HETATM   12  C10 UNL     1      12.341 -11.996  21.362  1.00  0.00     0.188 C 
HETATM   13  C11 UNL     1      13.196 -12.713  20.373  1.00  0.00     0.167 C 
HETATM   14  N7  UNL     1      14.944 -15.696  19.633  1.00  0.00    -0.205 N 
HETATM   15  C12 UNL     1      15.503 -16.990  20.074  1.00  0.00     0.168 C 
HETATM   16  C13 UNL     1      14.697 -18.127  19.547  1.00  0.00     0.188 C 
HETATM   17  O3  UNL     1      14.484 -18.063  18.195  1.00  0.00    -0.387 OA
HETATM   18  C14 UNL     1      15.131 -16.970  17.650  1.00  0.00     0.198 C 
HETATM   19  C15 UNL     1      14.492 -15.703  18.255  1.00  0.00     0.064 C 
HETATM   20  C16 UNL     1      12.997 -15.881  18.115  1.00  0.00     0.041 C 
HETATM   21  C17 UNL     1      15.010 -14.560  17.432  1.00  0.00     0.041 C 
ENDROOT
BRANCH   1  22
HETATM   22  C5  UNL     1      18.891 -15.078  22.477  1.00  0.00     0.060 A 
HETATM   23  C4  UNL     1      19.996 -15.867  22.277  1.00  0.00     0.090 A 
HETATM   24  C3  UNL     1      20.462 -16.648  23.363  1.00  0.00     0.076 A 
HETATM   25  N2  UNL     1      20.646 -15.852  21.011  1.00  0.00    -0.099 NA
HETATM   26  C21 UNL     1      19.789 -16.576  24.547  1.00  0.00     0.034 A 
HETATM   27  C19 UNL     1      18.675 -15.768  24.713  1.00  0.00    -0.041 A 
HETATM   28 BR1  UNL     1      20.389 -17.598  26.051  1.00  0.00    -0.049 Br
HETATM   29  C18 UNL     1      18.231 -15.019  23.666  1.00  0.00     0.039 A 
HETATM   30  C20 UNL     1      17.988 -15.711  26.043  1.00  0.00     0.049 C 
BRANCH  24  31
HETATM   31  C2  UNL     1      21.604 -17.474  23.052  1.00  0.00     0.254 C 
HETATM   32  N1  UNL     1      21.622 -18.680  22.384  1.00  0.00    -0.361 N 
HETATM   33  C1  UNL     1      22.983 -19.303  22.219  1.00  0.00     0.149 C 
ATOM     34  H1  UNL     1      20.773 -19.119  22.027  1.00  0.00     0.162 HD
HETATM   35  O1  UNL     1      22.755 -17.045  23.441  1.00  0.00    -0.268 OA
ENDBRANCH  24  31
ENDBRANCH   1  22
TORSDOF 2
ENDMDL
MODEL 4
REMARK VINA RESULT: -7.459166069      3.121      8.235
REMARK  2 active torsions:
REMARK  status: ('A' for Active; 'I' for Inactive)
REMARK       I    between atoms: N1_2  and  C2_4 
REMARK    1  A    between atoms: C2_4  and  C3_6 
REMARK    2  A    between atoms: C5_9  and  N3_10 
REMARK       I    between atoms: C6_12  and  N5_14 
REMARK       I    between atoms: C7_16  and  N6_17 
REMARK       I    between atoms: C7_16  and  N7_23 
ROOT
HETATM    1  N3  UNL     1      18.138 -14.024  20.873  1.00  0.00    -0.328 N 
ATOM      2  H3  UNL     1      18.643 -13.319  20.335  1.00  0.00     0.168 HD
HETATM    3  C6  UNL     1      18.749 -14.988  21.428  1.00  0.00     0.207 C 
HETATM    4  N4  UNL     1      20.228 -14.287  20.744  1.00  0.00    -0.063 NA
HETATM    5  N5  UNL     1      19.304 -15.953  21.995  1.00  0.00    -0.163 N 
ATOM      6  H5  UNL     1      19.260 -16.732  21.338  1.00  0.00     0.187 HD
HETATM    7  C7  UNL     1      19.892 -16.390  23.018  1.00  0.00     0.681 C 
HETATM    8  N6  UNL     1      20.315 -17.738  23.017  1.00  0.00    -0.214 N 
HETATM    9  C8  UNL     1      19.565 -18.683  23.843  1.00  0.00     0.167 C 
HETATM   10  C9  UNL     1      19.293 -19.893  22.962  1.00  0.00     0.188 C 
HETATM   11  O2  UNL     1      20.530 -20.476  22.708  1.00  0.00    -0.388 OA
HETATM   12  C10 UNL     1      21.212 -19.667  21.802  1.00  0.00     0.188 C 
HETATM   13  C11 UNL     1      21.423 -18.264  22.259  1.00  0.00     0.167 C 
HETATM   14  N7  UNL     1      20.120 -15.570  24.142  1.00  0.00    -0.205 N 
HETATM   15  C12 UNL     1      18.990 -14.942  24.856  1.00  0.00     0.168 C 
HETATM   16  C13 UNL     1      19.198 -14.991  26.331  1.00  0.00     0.188 C 
HETATM   17  O3  UNL     1      20.419 -14.513  26.726  1.00  0.00    -0.387 OA
HETATM   18  C14 UNL     1      21.136 -14.048  25.639  1.00  0.00     0.198 C 
HETATM   19  C15 UNL     1      21.414 -15.252  24.715  1.00  0.00     0.064 C 
HETATM   20  C16 UNL     1      21.959 -16.345  25.606  1.00  0.00     0.041 C 
HETATM   21  C17 UNL     1      22.426 -14.769  23.719  1.00  0.00     0.041 C 
ENDROOT
BRANCH   1  22
HETATM   22  C5  UNL     1      16.692 -13.956  21.028  1.00  0.00     0.060 A 
HETATM   23  C4  UNL     1      15.995 -15.137  20.994  1.00  0.00     0.090 A 
HETATM   24  C3  UNL     1      14.587 -15.083  21.136  1.00  0.00     0.076 A 
HETATM   25  N2  UNL     1      16.702 -16.364  20.846  1.00  0.00    -0.099 NA
HETATM   26  C21 UNL     1      13.999 -13.864  21.299  1.00  0.00     0.034 A 
HETATM   27  C19 UNL     1      14.735 -12.690  21.329  1.00  0.00    -0.041 A 
HETATM   28 BR1  UNL     1      12.100 -13.738  21.515  1.00  0.00    -0.049 Br
HETATM   29  C18 UNL     1      16.089 -12.747  21.192  1.00  0.00     0.039 A 
HETATM   30  C20 UNL     1      14.039 -11.379  21.534  1.00  0.00     0.049 C 
BRANCH  24  31
HETATM   31  C2  UNL     1      13.932 -16.367  21.049  1.00  0.00     0.254 C 
HETATM   32  N1  UNL     1      13.739 -17.146  19.928  1.00  0.00    -0.361 N 
HETATM   33  C1  UNL     1      13.012 -18.444  20.165  1.00  0.00     0.149 C 
ATOM     34  H1  UNL     1      14.065 -16.864  19.004  1.00  0.00     0.162 HD
HETATM   35  O1  UNL     1      13.466 -16.858  22.145  1.00  0.00    -0.268 OA
ENDBRANCH  24  31
ENDBRANCH   1  22
TORSDOF 2
ENDMDL
MODEL 5
REMARK VINA RESULT: -7.337674679      4.035      8.802
REMARK  2 active torsions:
REMARK  status: ('A' for Active; 'I' for Inactive)
REMARK       I    between atoms: N1_2  and  C2_4 
REMARK    1  A    between atoms: C2_4  and  C3_6 
REMARK    2  A    between atoms: C5_9  and  N3_10 
REMARK       I    between atoms: C6_12  and  N5_14 
REMARK       I    between atoms: C7_16  and  N6_17 
REMARK       I    between atoms: C7_16  and  N7_23 
ROOT
HETATM    1  N3  UNL     1      20.550 -15.021  23.630  1.00  0.00    -0.328 N 
ATOM      2  H3  UNL     1      20.579 -14.533  24.526  1.00  0.00     0.168 HD
HETATM    3  C6  UNL     1      21.181 -16.109  23.455  1.00  0.00     0.207 C 
HETATM    4  N4  UNL     1      21.721 -15.926  25.135  1.00  0.00    -0.063 NA
HETATM    5  N5  UNL     1      21.782 -17.181  23.233  1.00  0.00    -0.163 N 
ATOM      6  H5  UNL     1      22.679 -16.925  22.822  1.00  0.00     0.187 HD
HETATM    7  C7  UNL     1      21.769 -18.438  23.292  1.00  0.00     0.681 C 
HETATM    8  N6  UNL     1      22.900 -19.137  22.814  1.00  0.00    -0.214 N 
HETATM    9  C8  UNL     1      22.770 -19.845  21.542  1.00  0.00     0.167 C 
HETATM   10  C9  UNL     1      23.997 -19.472  20.723  1.00  0.00     0.188 C 
HETATM   11  O2  UNL     1      25.089 -20.027  21.380  1.00  0.00    -0.388 OA
HETATM   12  C10 UNL     1      25.330 -19.276  22.529  1.00  0.00     0.188 C 
HETATM   13  C11 UNL     1      24.181 -19.203  23.476  1.00  0.00     0.167 C 
HETATM   14  N7  UNL     1      20.661 -19.139  23.809  1.00  0.00    -0.205 N 
HETATM   15  C12 UNL     1      19.325 -18.989  23.199  1.00  0.00     0.168 C 
HETATM   16  C13 UNL     1      18.620 -20.300  23.128  1.00  0.00     0.188 C 
HETATM   17  O3  UNL     1      18.596 -20.971  24.322  1.00  0.00    -0.387 OA
HETATM   18  C14 UNL     1      19.194 -20.219  25.316  1.00  0.00     0.198 C 
HETATM   19  C15 UNL     1      20.681 -20.048  24.939  1.00  0.00     0.064 C 
HETATM   20  C16 UNL     1      21.184 -21.430  24.588  1.00  0.00     0.041 C 
HETATM   21  C17 UNL     1      21.344 -19.492  26.164  1.00  0.00     0.041 C 
ENDROOT
BRANCH   1  22
HETATM   22  C5  UNL     1      19.784 -14.492  22.512  1.00  0.00     0.060 A 
HETATM   23  C4  UNL     1      18.416 -14.556  22.593  1.00  0.00     0.090 A 
HETATM   24  C3  UNL     1      17.660 -14.051  21.507  1.00  0.00     0.076 A 
HETATM   25  N2  UNL     1      17.809 -15.095  23.762  1.00  0.00    -0.099 NA
HETATM   26  C21 UNL     1      18.330 -13.529  20.440  1.00  0.00     0.034 A 
HETATM   27  C19 UNL     1      19.714 -13.481  20.391  1.00  0.00    -0.041 A 
HETATM   28 BR1  UNL     1      17.354 -12.817  18.954  1.00  0.00    -0.049 Br
HETATM   29  C18 UNL     1      20.437 -13.967  21.438  1.00  0.00     0.039 A 
HETATM   30  C20 UNL     1      20.397 -12.876  19.203  1.00  0.00     0.049 C 
BRANCH  24  31
HETATM   31  C2  UNL     1      16.232 -14.194  21.661  1.00  0.00     0.254 C 
HETATM   32  N1  UNL     1      15.466 -15.323  21.457  1.00  0.00    -0.361 N 
HETATM   33  C1  UNL     1      13.990 -15.149  21.701  1.00  0.00     0.149 C 
ATOM     34  H1  UNL     1      15.870 -16.211  21.162  1.00  0.00     0.162 HD
HETATM   35  O1  UNL     1      15.579 -13.148  22.034  1.00  0.00    -0.268 OA
ENDBRANCH  24  31
ENDBRANCH   1  22
TORSDOF 2
ENDMDL
