MODEL 1
REMARK VINA RESULT: -7.217990799      0.000      0.000
REMARK  5 active torsions:
REMARK  status: ('A' for Active; 'I' for Inactive)
REMARK    1  A    between atoms: C2_2  and  N1_3 
REMARK    2  A    between atoms: C2_2  and  C4_9 
REMARK    3  A    between atoms: N1_3  and  C3_5 
REMARK    4  A    between atoms: C3_5  and  O1_6 
REMARK       I    between atoms: C4_9  and  N2_11 
REMARK    5  A    between atoms: C17_30  and  S2_31 
ROOT
HETATM    1  C4  UNL     1      15.391 -13.076  17.497  1.00  0.00     0.243 C 
HETATM    2  O2  UNL     1      15.920 -11.970  17.839  1.00  0.00    -0.271 OA
HETATM    3  N2  UNL     1      15.092 -13.985  18.541  1.00  0.00    -0.322 N 
HETATM    4  C5  UNL     1      14.517 -15.263  18.110  1.00  0.00     0.156 C 
HETATM    5  C6  UNL     1      13.955 -16.152  19.153  1.00  0.00     0.086 C 
HETATM    6 BR1  UNL     1      11.989 -16.221  19.045  1.00  0.00    -0.076 Br
HETATM    7  C7  UNL     1      14.328 -17.561  18.822  1.00  0.00     0.062 A 
HETATM    8  N3  UNL     1      14.381 -18.157  17.591  1.00  0.00    -0.308 N 
ATOM      9  H3  UNL     1      14.254 -17.677  16.700  1.00  0.00     0.170 HD
HETATM   10  C8  UNL     1      14.626 -19.476  17.735  1.00  0.00     0.325 A 
HETATM   11  O3  UNL     1      14.750 -20.372  16.877  1.00  0.00    -0.247 OA
HETATM   12  N4  UNL     1      14.736 -19.739  19.072  1.00  0.00    -0.307 N 
ATOM     13  H4  UNL     1      14.919 -20.644  19.506  1.00  0.00     0.170 HD
HETATM   14  C9  UNL     1      14.554 -18.560  19.701  1.00  0.00     0.060 A 
HETATM   15  C10 UNL     1      14.698 -18.251  21.120  1.00  0.00     0.028 C 
HETATM   16  C11 UNL     1      14.620 -16.993  21.442  1.00  0.00    -0.017 C 
HETATM   17  C12 UNL     1      14.419 -15.845  20.549  1.00  0.00     0.043 C 
HETATM   18  C13 UNL     1      15.737 -15.204  20.333  1.00  0.00     0.054 A 
HETATM   19  C14 UNL     1      16.478 -14.081  20.721  1.00  0.00     0.003 A 
HETATM   20  C15 UNL     1      17.786 -13.704  19.998  1.00  0.00     0.019 C 
HETATM   21  C16 UNL     1      16.622 -13.867  22.186  1.00  0.00     0.019 C 
HETATM   22  C17 UNL     1      15.295 -13.792  19.932  1.00  0.00     0.170 A 
ENDROOT
BRANCH   1  23
HETATM   23  C2  UNL     1      15.172 -13.239  16.072  1.00  0.00     0.172 C 
HETATM   24  C1  UNL     1      16.099 -14.158  15.332  1.00  0.00     0.042 C 
BRANCH  23  25
HETATM   25  N1  UNL     1      15.151 -11.984  15.343  1.00  0.00    -0.349 N 
ATOM     26  H1  UNL     1      14.255 -11.503  15.257  1.00  0.00     0.163 HD
BRANCH  25  27
HETATM   27  C3  UNL     1      16.274 -11.379  14.745  1.00  0.00     0.208 C 
HETATM   28  S1  UNL     1      16.622 -11.590  13.193  1.00  0.00    -0.033 SA
BRANCH  27  29
HETATM   29  O1  UNL     1      17.086 -10.585  15.538  1.00  0.00    -0.338 OA
ATOM     30  H1  UNL     1      18.021 -10.596  15.372  1.00  0.00     0.220 HD
ENDBRANCH  27  29
ENDBRANCH  25  27
ENDBRANCH  23  25
ENDBRANCH   1  23
BRANCH  22  31
HETATM   31  S2  UNL     1      14.226 -12.740  20.731  1.00  0.00     0.132 S 
HETATM   32  O4  UNL     1      12.941 -12.656  19.887  1.00  0.00    -0.593 OA
HETATM   33  O5  UNL     1      14.624 -11.286  20.810  1.00  0.00    -0.593 OA
HETATM   34  O6  UNL     1      13.675 -13.119  22.249  1.00  0.00    -0.593 OA
ENDBRANCH  22  31
TORSDOF 5
ENDMDL
MODEL 2
REMARK VINA RESULT: -6.870041999      3.083      5.433
REMARK  5 active torsions:
REMARK  status: ('A' for Active; 'I' for Inactive)
REMARK    1  A    between atoms: C2_2  and  N1_3 
REMARK    2  A    between atoms: C2_2  and  C4_9 
REMARK    3  A    between atoms: N1_3  and  C3_5 
REMARK    4  A    between atoms: C3_5  and  O1_6 
REMARK       I    between atoms: C4_9  and  N2_11 
REMARK    5  A    between atoms: C17_30  and  S2_31 
ROOT
HETATM    1  C4  UNL     1      14.567 -15.866  17.362  1.00  0.00     0.243 C 
HETATM    2  O2  UNL     1      14.428 -17.077  16.993  1.00  0.00    -0.271 OA
HETATM    3  N2  UNL     1      14.139 -15.551  18.674  1.00  0.00    -0.322 N 
HETATM    4  C5  UNL     1      14.280 -14.143  19.055  1.00  0.00     0.156 C 
HETATM    5  C6  UNL     1      14.088 -13.792  20.482  1.00  0.00     0.086 C 
HETATM    6 BR1  UNL     1      15.796 -13.293  21.328  1.00  0.00    -0.076 Br
HETATM    7  C7  UNL     1      13.327 -12.507  20.553  1.00  0.00     0.062 A 
HETATM    8  N3  UNL     1      13.444 -11.407  19.748  1.00  0.00    -0.308 N 
ATOM      9  H3  UNL     1      14.025 -11.350  18.912  1.00  0.00     0.170 HD
HETATM   10  C8  UNL     1      12.675 -10.408  20.230  1.00  0.00     0.325 A 
HETATM   11  O3  UNL     1      12.497  -9.250  19.804  1.00  0.00    -0.247 OA
HETATM   12  N4  UNL     1      12.051 -10.865  21.357  1.00  0.00    -0.307 N 
ATOM     13  H4  UNL     1      11.404 -10.348  21.952  1.00  0.00     0.170 HD
HETATM   14  C9  UNL     1      12.463 -12.139  21.522  1.00  0.00     0.060 A 
HETATM   15  C10 UNL     1      12.004 -13.128  22.492  1.00  0.00     0.028 C 
HETATM   16  C11 UNL     1      12.455 -14.338  22.332  1.00  0.00    -0.017 C 
HETATM   17  C12 UNL     1      13.358 -14.831  21.286  1.00  0.00     0.043 C 
HETATM   18  C13 UNL     1      12.536 -15.528  20.269  1.00  0.00     0.054 A 
HETATM   19  C14 UNL     1      12.206 -16.817  19.834  1.00  0.00     0.003 A 
HETATM   20  C15 UNL     1      11.452 -17.038  18.507  1.00  0.00     0.019 C 
HETATM   21  C16 UNL     1      11.696 -17.748  20.875  1.00  0.00     0.019 C 
HETATM   22  C17 UNL     1      13.594 -16.440  19.637  1.00  0.00     0.170 A 
ENDROOT
BRANCH   1  23
HETATM   23  C2  UNL     1      15.149 -14.983  16.369  1.00  0.00     0.172 C 
HETATM   24  C1  UNL     1      16.085 -15.594  15.367  1.00  0.00     0.042 C 
BRANCH  23  25
HETATM   25  N1  UNL     1      15.834 -13.838  16.943  1.00  0.00    -0.349 N 
ATOM     26  H1  UNL     1      16.420 -14.002  17.762  1.00  0.00     0.163 HD
BRANCH  25  27
HETATM   27  C3  UNL     1      15.752 -12.521  16.455  1.00  0.00     0.208 C 
HETATM   28  S1  UNL     1      16.952 -11.847  15.630  1.00  0.00    -0.033 SA
BRANCH  27  29
HETATM   29  O1  UNL     1      14.592 -11.804  16.706  1.00  0.00    -0.338 OA
ATOM     30  H1  UNL     1      14.079 -12.038  17.471  1.00  0.00     0.220 HD
ENDBRANCH  27  29
ENDBRANCH  25  27
ENDBRANCH  23  25
ENDBRANCH   1  23
BRANCH  22  31
HETATM   31  S2  UNL     1      14.669 -17.515  20.395  1.00  0.00     0.132 S 
HETATM   32  O4  UNL     1      16.090 -16.950  20.219  1.00  0.00    -0.593 OA
HETATM   33  O5  UNL     1      14.817 -18.886  19.780  1.00  0.00    -0.593 OA
HETATM   34  O6  UNL     1      14.553 -17.784  22.028  1.00  0.00    -0.593 OA
ENDBRANCH  22  31
TORSDOF 5
ENDMDL
MODEL 3
REMARK VINA RESULT: -6.775395060      4.734      6.260
REMARK  5 active torsions:
REMARK  status: ('A' for Active; 'I' for Inactive)
REMARK    1  A    between atoms: C2_2  and  N1_3 
REMARK    2  A    between atoms: C2_2  and  C4_9 
REMARK    3  A    between atoms: N1_3  and  C3_5 
REMARK    4  A    between atoms: C3_5  and  O1_6 
REMARK       I    between atoms: C4_9  and  N2_11 
REMARK    5  A    between atoms: C17_30  and  S2_31 
ROOT
HETATM    1  C4  UNL     1      16.997 -14.920  21.918  1.00  0.00     0.243 C 
HETATM    2  O2  UNL     1      17.170 -13.697  22.227  1.00  0.00    -0.271 OA
HETATM    3  N2  UNL     1      18.074 -15.799  22.188  1.00  0.00    -0.322 N 
HETATM    4  C5  UNL     1      17.856 -17.193  21.788  1.00  0.00     0.156 C 
HETATM    5  C6  UNL     1      18.829 -18.205  22.261  1.00  0.00     0.086 C 
HETATM    6 BR1  UNL     1      18.027 -19.380  23.625  1.00  0.00    -0.076 Br
HETATM    7  C7  UNL     1      19.088 -19.167  21.146  1.00  0.00     0.062 A 
HETATM    8  N3  UNL     1      18.197 -19.672  20.238  1.00  0.00    -0.308 N 
ATOM      9  H3  UNL     1      17.224 -19.381  20.146  1.00  0.00     0.170 HD
HETATM   10  C8  UNL     1      18.801 -20.614  19.485  1.00  0.00     0.325 A 
HETATM   11  O3  UNL     1      18.353 -21.313  18.555  1.00  0.00    -0.247 OA
HETATM   12  N4  UNL     1      20.098 -20.719  19.905  1.00  0.00    -0.307 N 
ATOM     13  H4  UNL     1      20.813 -21.345  19.535  1.00  0.00     0.170 HD
HETATM   14  C9  UNL     1      20.239 -19.829  20.908  1.00  0.00     0.060 A 
HETATM   15  C10 UNL     1      21.453 -19.441  21.619  1.00  0.00     0.028 C 
HETATM   16  C11 UNL     1      21.340 -18.438  22.440  1.00  0.00    -0.017 C 
HETATM   17  C12 UNL     1      20.142 -17.639  22.725  1.00  0.00     0.043 C 
HETATM   18  C13 UNL     1      20.250 -16.372  21.963  1.00  0.00     0.054 A 
HETATM   19  C14 UNL     1      20.537 -15.014  22.146  1.00  0.00     0.003 A 
HETATM   20  C15 UNL     1      20.272 -13.989  21.025  1.00  0.00     0.019 C 
HETATM   21  C16 UNL     1      21.819 -14.703  22.833  1.00  0.00     0.019 C 
HETATM   22  C17 UNL     1      19.319 -15.475  22.787  1.00  0.00     0.170 A 
ENDROOT
BRANCH   1  23
HETATM   23  C2  UNL     1      15.708 -15.230  21.330  1.00  0.00     0.172 C 
HETATM   24  C1  UNL     1      15.599 -15.171  19.835  1.00  0.00     0.042 C 
BRANCH  23  25
HETATM   25  N1  UNL     1      14.621 -14.429  21.864  1.00  0.00    -0.349 N 
ATOM     26  H1  UNL     1      14.864 -13.553  22.327  1.00  0.00     0.163 HD
BRANCH  25  27
HETATM   27  C3  UNL     1      13.257 -14.770  21.792  1.00  0.00     0.208 C 
HETATM   28  S1  UNL     1      12.183 -13.816  21.077  1.00  0.00    -0.033 SA
BRANCH  27  29
HETATM   29  O1  UNL     1      12.853 -15.967  22.362  1.00  0.00    -0.338 OA
ATOM     30  H1  UNL     1      11.970 -16.270  22.186  1.00  0.00     0.220 HD
ENDBRANCH  27  29
ENDBRANCH  25  27
ENDBRANCH  23  25
ENDBRANCH   1  23
BRANCH  22  31
HETATM   31  S2  UNL     1      19.319 -15.184  24.461  1.00  0.00     0.132 S 
HETATM   32  O4  UNL     1      17.870 -15.331  24.957  1.00  0.00    -0.593 OA
HETATM   33  O5  UNL     1      19.648 -13.783  24.915  1.00  0.00    -0.593 OA
HETATM   34  O6  UNL     1      20.183 -16.178  25.471  1.00  0.00    -0.593 OA
ENDBRANCH  22  31
TORSDOF 5
ENDMDL
MODEL 4
REMARK VINA RESULT: -6.748196247      3.660      6.473
REMARK  5 active torsions:
REMARK  status: ('A' for Active; 'I' for Inactive)
REMARK    1  A    between atoms: C2_2  and  N1_3 
REMARK    2  A    between atoms: C2_2  and  C4_9 
REMARK    3  A    between atoms: N1_3  and  C3_5 
REMARK    4  A    between atoms: C3_5  and  O1_6 
REMARK       I    between atoms: C4_9  and  N2_11 
REMARK    5  A    between atoms: C17_30  and  S2_31 
ROOT
HETATM    1  C4  UNL     1      14.114 -16.701  20.488  1.00  0.00     0.243 C 
HETATM    2  O2  UNL     1      13.064 -16.435  19.820  1.00  0.00    -0.271 OA
HETATM    3  N2  UNL     1      15.088 -15.677  20.571  1.00  0.00    -0.322 N 
HETATM    4  C5  UNL     1      16.300 -16.027  21.317  1.00  0.00     0.156 C 
HETATM    5  C6  UNL     1      17.243 -14.934  21.653  1.00  0.00     0.086 C 
HETATM    6 BR1  UNL     1      17.213 -14.537  23.583  1.00  0.00    -0.076 Br
HETATM    7  C7  UNL     1      18.637 -15.440  21.468  1.00  0.00     0.062 A 
HETATM    8  N3  UNL     1      19.135 -16.680  21.766  1.00  0.00    -0.308 N 
ATOM      9  H3  UNL     1      18.581 -17.475  22.083  1.00  0.00     0.170 HD
HETATM   10  C8  UNL     1      20.471 -16.689  21.578  1.00  0.00     0.325 A 
HETATM   11  O3  UNL     1      21.301 -17.606  21.734  1.00  0.00    -0.247 OA
HETATM   12  N4  UNL     1      20.844 -15.445  21.150  1.00  0.00    -0.307 N 
ATOM     13  H4  UNL     1      21.787 -15.132  20.922  1.00  0.00     0.170 HD
HETATM   14  C9  UNL     1      19.711 -14.716  21.091  1.00  0.00     0.060 A 
HETATM   15  C10 UNL     1      19.522 -13.365  20.573  1.00  0.00     0.028 C 
HETATM   16  C11 UNL     1      18.291 -12.952  20.486  1.00  0.00    -0.017 C 
HETATM   17  C12 UNL     1      17.068 -13.687  20.831  1.00  0.00     0.043 C 
HETATM   18  C13 UNL     1      16.473 -14.193  19.573  1.00  0.00     0.054 A 
HETATM   19  C14 UNL     1      15.420 -13.937  18.687  1.00  0.00     0.003 A 
HETATM   20  C15 UNL     1      15.046 -14.947  17.583  1.00  0.00     0.019 C 
HETATM   21  C16 UNL     1      15.328 -12.548  18.164  1.00  0.00     0.019 C 
HETATM   22  C17 UNL     1      15.015 -14.375  20.011  1.00  0.00     0.170 A 
ENDROOT
BRANCH   1  23
HETATM   23  C2  UNL     1      14.154 -18.029  21.071  1.00  0.00     0.172 C 
HETATM   24  C1  UNL     1      15.061 -19.038  20.428  1.00  0.00     0.042 C 
BRANCH  23  25
HETATM   25  N1  UNL     1      12.846 -18.650  21.185  1.00  0.00    -0.349 N 
ATOM     26  H1  UNL     1      12.036 -18.098  20.903  1.00  0.00     0.163 HD
BRANCH  25  27
HETATM   27  C3  UNL     1      12.612 -19.956  21.656  1.00  0.00     0.208 C 
HETATM   28  S1  UNL     1      11.982 -21.094  20.717  1.00  0.00    -0.033 SA
BRANCH  27  29
HETATM   29  O1  UNL     1      12.941 -20.243  22.971  1.00  0.00    -0.338 OA
ATOM     30  H1  UNL     1      13.672 -20.829  23.131  1.00  0.00     0.220 HD
ENDBRANCH  27  29
ENDBRANCH  25  27
ENDBRANCH  23  25
ENDBRANCH   1  23
BRANCH  22  31
HETATM   31  S2  UNL     1      13.981 -13.262  20.772  1.00  0.00     0.132 S 
HETATM   32  O4  UNL     1      13.680 -13.800  22.182  1.00  0.00    -0.593 OA
HETATM   33  O5  UNL     1      12.590 -13.118  20.206  1.00  0.00    -0.593 OA
HETATM   34  O6  UNL     1      14.498 -11.709  21.046  1.00  0.00    -0.593 OA
ENDBRANCH  22  31
TORSDOF 5
ENDMDL
MODEL 5
REMARK VINA RESULT: -6.689029367      3.506      5.677
REMARK  5 active torsions:
REMARK  status: ('A' for Active; 'I' for Inactive)
REMARK    1  A    between atoms: C2_2  and  N1_3 
REMARK    2  A    between atoms: C2_2  and  C4_9 
REMARK    3  A    between atoms: N1_3  and  C3_5 
REMARK    4  A    between atoms: C3_5  and  O1_6 
REMARK       I    between atoms: C4_9  and  N2_11 
REMARK    5  A    between atoms: C17_30  and  S2_31 
ROOT
HETATM    1  C4  UNL     1      13.617 -17.548  18.724  1.00  0.00     0.243 C 
HETATM    2  O2  UNL     1      12.799 -16.788  18.111  1.00  0.00    -0.271 OA
HETATM    3  N2  UNL     1      14.475 -16.927  19.664  1.00  0.00    -0.322 N 
HETATM    4  C5  UNL     1      15.427 -17.824  20.326  1.00  0.00     0.156 C 
HETATM    5  C6  UNL     1      16.177 -17.295  21.489  1.00  0.00     0.086 C 
HETATM    6 BR1  UNL     1      15.561 -18.122  23.168  1.00  0.00    -0.076 Br
HETATM    7  C7  UNL     1      17.586 -17.788  21.406  1.00  0.00     0.062 A 
HETATM    8  N3  UNL     1      18.031 -19.018  21.005  1.00  0.00    -0.308 N 
ATOM      9  H3  UNL     1      17.445 -19.756  20.612  1.00  0.00     0.170 HD
HETATM   10  C8  UNL     1      19.361 -19.108  21.206  1.00  0.00     0.325 A 
HETATM   11  O3  UNL     1      20.150 -20.047  20.981  1.00  0.00    -0.247 OA
HETATM   12  N4  UNL     1      19.786 -17.924  21.742  1.00  0.00    -0.307 N 
ATOM     13  H4  UNL     1      20.739 -17.678  22.008  1.00  0.00     0.170 HD
HETATM   14  C9  UNL     1      18.688 -17.147  21.846  1.00  0.00     0.060 A 
HETATM   15  C10 UNL     1      18.599 -15.742  22.232  1.00  0.00     0.028 C 
HETATM   16  C11 UNL     1      17.430 -15.185  22.097  1.00  0.00    -0.017 C 
HETATM   17  C12 UNL     1      16.195 -15.795  21.589  1.00  0.00     0.043 C 
HETATM   18  C13 UNL     1      16.022 -15.362  20.183  1.00  0.00     0.054 A 
HETATM   19  C14 UNL     1      15.266 -14.480  19.401  1.00  0.00     0.003 A 
HETATM   20  C15 UNL     1      15.282 -14.570  17.862  1.00  0.00     0.019 C 
HETATM   21  C16 UNL     1      15.269 -13.057  19.832  1.00  0.00     0.019 C 
HETATM   22  C17 UNL     1      14.510 -15.554  20.019  1.00  0.00     0.170 A 
ENDROOT
BRANCH   1  23
HETATM   23  C2  UNL     1      13.545 -18.950  18.361  1.00  0.00     0.172 C 
HETATM   24  C1  UNL     1      13.468 -19.282  16.899  1.00  0.00     0.042 C 
BRANCH  23  25
HETATM   25  N1  UNL     1      12.458 -19.661  19.012  1.00  0.00    -0.349 N 
ATOM     26  H1  UNL     1      12.006 -20.411  18.488  1.00  0.00     0.163 HD
BRANCH  25  27
HETATM   27  C3  UNL     1      11.983 -19.395  20.309  1.00  0.00     0.208 C 
HETATM   28  S1  UNL     1      12.436 -20.272  21.574  1.00  0.00    -0.033 SA
BRANCH  27  29
HETATM   29  O1  UNL     1      11.098 -18.341  20.475  1.00  0.00    -0.338 OA
ATOM     30  H1  UNL     1      11.314 -17.673  21.116  1.00  0.00     0.220 HD
ENDBRANCH  27  29
ENDBRANCH  25  27
ENDBRANCH  23  25
ENDBRANCH   1  23
BRANCH  22  31
HETATM   31  S2  UNL     1      13.247 -14.975  20.998  1.00  0.00     0.132 S 
HETATM   32  O4  UNL     1      12.668 -16.177  21.766  1.00  0.00    -0.593 OA
HETATM   33  O5  UNL     1      12.018 -14.452  20.295  1.00  0.00    -0.593 OA
HETATM   34  O6  UNL     1      13.568 -13.865  22.189  1.00  0.00    -0.593 OA
ENDBRANCH  22  31
TORSDOF 5
ENDMDL
