MODEL 1
REMARK VINA RESULT: -6.920069396      0.000      0.000
REMARK  2 active torsions:
REMARK  status: ('A' for Active; 'I' for Inactive)
REMARK    1  A    between atoms: C7_13  and  C8_14 
REMARK    2  A    between atoms: C19_32  and  C20_33 
ROOT
HETATM    1  C1  UNL     1      17.799 -16.121  25.862  1.00  0.00     0.042 C 
HETATM    2  C2  UNL     1      18.012 -16.491  24.370  1.00  0.00     0.172 C 
HETATM    3  N1  UNL     1      18.365 -17.874  24.254  1.00  0.00    -0.346 N 
ATOM      4  H1  UNL     1      18.440 -18.371  25.142  1.00  0.00     0.163 HD
HETATM    5  C3  UNL     1      18.623 -18.649  23.134  1.00  0.00     0.240 C 
HETATM    6  O1  UNL     1      19.786 -19.201  23.039  1.00  0.00    -0.271 OA
HETATM    7  C4  UNL     1      17.756 -18.970  21.976  1.00  0.00     0.172 C 
HETATM    8  C5  UNL     1      18.505 -18.750  20.661  1.00  0.00     0.042 C 
HETATM    9  N2  UNL     1      16.496 -18.268  21.955  1.00  0.00    -0.347 N 
ATOM     10  H2  UNL     1      16.537 -17.252  21.883  1.00  0.00     0.163 HD
HETATM   11  C6  UNL     1      15.204 -18.854  22.025  1.00  0.00     0.231 C 
HETATM   12  O2  UNL     1      14.434 -18.475  22.946  1.00  0.00    -0.273 OA
HETATM   13  C7  UNL     1      14.669 -19.883  21.103  1.00  0.00     0.172 C 
HETATM   14  C11 UNL     1      14.049 -19.136  19.981  1.00  0.00     0.164 C 
HETATM   15  O3  UNL     1      13.030 -19.572  19.492  1.00  0.00    -0.295 OA
HETATM   16  C12 UNL     1      14.645 -17.888  19.457  1.00  0.00     0.151 C 
HETATM   17  C13 UNL     1      14.352 -17.873  17.948  1.00  0.00     0.040 C 
HETATM   18  N3  UNL     1      14.078 -16.713  20.078  1.00  0.00    -0.348 N 
ATOM     19  H3  UNL     1      13.353 -16.885  20.775  1.00  0.00     0.163 HD
HETATM   20  C14 UNL     1      14.394 -15.382  19.849  1.00  0.00     0.240 C 
HETATM   21  O4  UNL     1      13.395 -14.587  19.679  1.00  0.00    -0.271 OA
HETATM   22  C15 UNL     1      15.766 -14.782  19.781  1.00  0.00     0.174 C 
HETATM   23  C16 UNL     1      15.743 -13.880  18.527  1.00  0.00     0.042 C 
HETATM   24  N4  UNL     1      16.042 -13.968  20.954  1.00  0.00    -0.342 N 
HETATM   25  C17 UNL     1      14.849 -13.447  21.643  1.00  0.00     0.153 C 
HETATM   26  C18 UNL     1      17.313 -13.649  21.456  1.00  0.00     0.243 C 
HETATM   27  O5  UNL     1      17.496 -12.422  21.788  1.00  0.00    -0.271 OA
HETATM   28  C19 UNL     1      18.481 -14.540  21.658  1.00  0.00     0.180 C 
HETATM   29  N5  UNL     1      18.955 -14.485  23.037  1.00  0.00    -0.346 N 
ATOM     30  H5  UNL     1      19.232 -13.566  23.382  1.00  0.00     0.163 HD
HETATM   31  C23 UNL     1      19.074 -15.544  23.938  1.00  0.00     0.240 C 
HETATM   32  O6  UNL     1      20.221 -15.744  24.471  1.00  0.00    -0.271 OA
ENDROOT
BRANCH  13  33
HETATM   33  C8  UNL     1      13.746 -20.850  21.764  1.00  0.00     0.049 C 
HETATM   34  C9  UNL     1      13.680 -22.090  20.877  1.00  0.00     0.033 C 
HETATM   35  C10 UNL     1      14.124 -21.277  23.131  1.00  0.00     0.033 C 
HETATM   36 CL1  UNL     1      12.103 -20.168  21.806  1.00  0.00    -0.119 Cl
ENDBRANCH  13  33
BRANCH  28  37
HETATM   37  C20 UNL     1      19.664 -14.209  20.771  1.00  0.00     0.009 C 
HETATM   38  C21 UNL     1      20.956 -14.010  21.503  1.00  0.00     0.012 C 
HETATM   39  C22 UNL     1      19.387 -13.119  19.768  1.00  0.00     0.012 C 
ENDBRANCH  28  37
TORSDOF 2
ENDMDL
MODEL 2
REMARK VINA RESULT: -6.880263057      2.372      6.670
REMARK  2 active torsions:
REMARK  status: ('A' for Active; 'I' for Inactive)
REMARK    1  A    between atoms: C7_13  and  C8_14 
REMARK    2  A    between atoms: C19_32  and  C20_33 
ROOT
HETATM    1  C1  UNL     1      12.424 -20.488  21.809  1.00  0.00     0.042 C 
HETATM    2  C2  UNL     1      13.516 -19.797  20.951  1.00  0.00     0.172 C 
HETATM    3  N1  UNL     1      12.912 -19.120  19.843  1.00  0.00    -0.346 N 
ATOM      4  H1  UNL     1      11.898 -19.218  19.785  1.00  0.00     0.163 HD
HETATM    5  C3  UNL     1      13.477 -18.354  18.835  1.00  0.00     0.240 C 
HETATM    6  O1  UNL     1      13.312 -18.746  17.617  1.00  0.00    -0.271 OA
HETATM    7  C4  UNL     1      14.272 -17.106  18.918  1.00  0.00     0.172 C 
HETATM    8  C5  UNL     1      15.536 -17.212  18.062  1.00  0.00     0.042 C 
HETATM    9  N2  UNL     1      14.611 -16.696  20.258  1.00  0.00    -0.347 N 
ATOM     10  H2  UNL     1      15.200 -17.330  20.798  1.00  0.00     0.163 HD
HETATM   11  C6  UNL     1      14.206 -15.496  20.900  1.00  0.00     0.231 C 
HETATM   12  O2  UNL     1      13.588 -15.592  21.993  1.00  0.00    -0.273 OA
HETATM   13  C7  UNL     1      14.444 -14.122  20.398  1.00  0.00     0.172 C 
HETATM   14  C11 UNL     1      15.768 -13.723  20.932  1.00  0.00     0.164 C 
HETATM   15  O3  UNL     1      15.928 -12.572  21.278  1.00  0.00    -0.295 OA
HETATM   16  C12 UNL     1      16.882 -14.689  21.047  1.00  0.00     0.151 C 
HETATM   17  C13 UNL     1      18.171 -13.893  20.786  1.00  0.00     0.040 C 
HETATM   18  N3  UNL     1      16.940 -15.297  22.357  1.00  0.00    -0.348 N 
ATOM     19  H3  UNL     1      16.231 -14.987  23.023  1.00  0.00     0.163 HD
HETATM   20  C14 UNL     1      17.835 -16.248  22.826  1.00  0.00     0.240 C 
HETATM   21  O4  UNL     1      18.358 -16.010  23.978  1.00  0.00    -0.271 OA
HETATM   22  C15 UNL     1      18.249 -17.511  22.132  1.00  0.00     0.174 C 
HETATM   23  C16 UNL     1      19.787 -17.553  22.271  1.00  0.00     0.042 C 
HETATM   24  N4  UNL     1      17.676 -18.679  22.783  1.00  0.00    -0.342 N 
HETATM   25  C17 UNL     1      17.316 -18.487  24.199  1.00  0.00     0.153 C 
HETATM   26  C18 UNL     1      17.455 -19.929  22.186  1.00  0.00     0.243 C 
HETATM   27  O5  UNL     1      17.811 -20.953  22.874  1.00  0.00    -0.271 OA
HETATM   28  C19 UNL     1      16.860 -20.233  20.862  1.00  0.00     0.180 C 
HETATM   29  N5  UNL     1      15.725 -21.141  20.988  1.00  0.00    -0.346 N 
ATOM     30  H5  UNL     1      15.914 -22.040  21.431  1.00  0.00     0.163 HD
HETATM   31  C23 UNL     1      14.410 -20.923  20.574  1.00  0.00     0.240 C 
HETATM   32  O6  UNL     1      13.890 -21.778  19.776  1.00  0.00    -0.271 OA
ENDROOT
BRANCH  13  33
HETATM   33  C8  UNL     1      13.347 -13.169  20.735  1.00  0.00     0.049 C 
HETATM   34  C9  UNL     1      12.028 -13.906  20.519  1.00  0.00     0.033 C 
HETATM   35  C10 UNL     1      13.357 -12.628  22.112  1.00  0.00     0.033 C 
HETATM   36 CL1  UNL     1      13.365 -11.815  19.581  1.00  0.00    -0.119 Cl
ENDBRANCH  13  33
BRANCH  28  37
HETATM   37  C20 UNL     1      17.829 -20.870  19.887  1.00  0.00     0.009 C 
HETATM   38  C21 UNL     1      19.245 -20.396  20.017  1.00  0.00     0.012 C 
HETATM   39  C22 UNL     1      17.343 -20.875  18.461  1.00  0.00     0.012 C 
ENDBRANCH  28  37
TORSDOF 2
ENDMDL
MODEL 3
REMARK VINA RESULT: -6.813091149      2.399      6.628
REMARK  2 active torsions:
REMARK  status: ('A' for Active; 'I' for Inactive)
REMARK    1  A    between atoms: C7_13  and  C8_14 
REMARK    2  A    between atoms: C19_32  and  C20_33 
ROOT
HETATM    1  C1  UNL     1      13.267 -12.900  22.330  1.00  0.00     0.042 C 
HETATM    2  C2  UNL     1      14.450 -13.414  21.468  1.00  0.00     0.172 C 
HETATM    3  N1  UNL     1      15.547 -12.497  21.545  1.00  0.00    -0.346 N 
ATOM      4  H1  UNL     1      15.371 -11.670  22.115  1.00  0.00     0.163 HD
HETATM    5  C3  UNL     1      16.808 -12.547  20.971  1.00  0.00     0.240 C 
HETATM    6  O1  UNL     1      17.144 -11.591  20.172  1.00  0.00    -0.271 OA
HETATM    7  C4  UNL     1      17.886 -13.552  21.124  1.00  0.00     0.172 C 
HETATM    8  C5  UNL     1      18.435 -13.970  19.759  1.00  0.00     0.042 C 
HETATM    9  N2  UNL     1      17.519 -14.717  21.891  1.00  0.00    -0.347 N 
ATOM     10  H2  UNL     1      16.771 -15.299  21.514  1.00  0.00     0.163 HD
HETATM   11  C6  UNL     1      18.096 -15.132  23.121  1.00  0.00     0.231 C 
HETATM   12  O2  UNL     1      17.330 -15.285  24.109  1.00  0.00    -0.273 OA
HETATM   13  C7  UNL     1      19.533 -15.408  23.354  1.00  0.00     0.172 C 
HETATM   14  C11 UNL     1      19.730 -16.837  23.010  1.00  0.00     0.164 C 
HETATM   15  O3  UNL     1      20.502 -17.489  23.678  1.00  0.00    -0.295 OA
HETATM   16  C12 UNL     1      19.012 -17.470  21.882  1.00  0.00     0.151 C 
HETATM   17  C13 UNL     1      19.973 -18.515  21.293  1.00  0.00     0.040 C 
HETATM   18  N3  UNL     1      17.790 -18.113  22.309  1.00  0.00    -0.348 N 
ATOM     19  H3  UNL     1      17.585 -18.060  23.307  1.00  0.00     0.163 HD
HETATM   20  C14 UNL     1      16.861 -18.794  21.536  1.00  0.00     0.240 C 
HETATM   21  O4  UNL     1      16.480 -19.938  21.990  1.00  0.00    -0.271 OA
HETATM   22  C15 UNL     1      16.262 -18.337  20.240  1.00  0.00     0.174 C 
HETATM   23  C16 UNL     1      16.344 -19.568  19.310  1.00  0.00     0.042 C 
HETATM   24  N4  UNL     1      14.869 -17.956  20.412  1.00  0.00    -0.342 N 
HETATM   25  C17 UNL     1      14.193 -18.575  21.565  1.00  0.00     0.153 C 
HETATM   26  C18 UNL     1      14.148 -17.079  19.588  1.00  0.00     0.243 C 
HETATM   27  O5  UNL     1      12.968 -17.462  19.254  1.00  0.00    -0.271 OA
HETATM   28  C19 UNL     1      14.561 -15.762  19.047  1.00  0.00     0.180 C 
HETATM   29  N5  UNL     1      13.602 -14.720  19.403  1.00  0.00    -0.346 N 
ATOM     30  H5  UNL     1      12.641 -14.868  19.095  1.00  0.00     0.163 HD
HETATM   31  C23 UNL     1      13.847 -13.545  20.115  1.00  0.00     0.240 C 
HETATM   32  O6  UNL     1      13.524 -12.438  19.562  1.00  0.00    -0.271 OA
ENDROOT
BRANCH  13  33
HETATM   33  C8  UNL     1      19.990 -15.050  24.727  1.00  0.00     0.049 C 
HETATM   34  C9  UNL     1      21.434 -15.526  24.860  1.00  0.00     0.033 C 
HETATM   35  C10 UNL     1      19.942 -13.612  25.074  1.00  0.00     0.033 C 
HETATM   36 CL1  UNL     1      19.043 -15.965  25.924  1.00  0.00    -0.119 Cl
ENDBRANCH  13  33
BRANCH  28  37
HETATM   37  C20 UNL     1      14.702 -15.735  17.539  1.00  0.00     0.009 C 
HETATM   38  C21 UNL     1      15.309 -16.971  16.948  1.00  0.00     0.012 C 
HETATM   39  C22 UNL     1      15.322 -14.469  17.007  1.00  0.00     0.012 C 
ENDBRANCH  28  37
TORSDOF 2
ENDMDL
MODEL 4
REMARK VINA RESULT: -6.809896607      2.855      6.466
REMARK  2 active torsions:
REMARK  status: ('A' for Active; 'I' for Inactive)
REMARK    1  A    between atoms: C7_13  and  C8_14 
REMARK    2  A    between atoms: C19_32  and  C20_33 
ROOT
HETATM    1  C1  UNL     1      23.349 -15.793  23.694  1.00  0.00     0.042 C 
HETATM    2  C2  UNL     1      21.934 -16.181  24.197  1.00  0.00     0.172 C 
HETATM    3  N1  UNL     1      21.278 -15.034  24.748  1.00  0.00    -0.346 N 
ATOM      4  H1  UNL     1      21.837 -14.180  24.744  1.00  0.00     0.163 HD
HETATM    5  C3  UNL     1      20.009 -14.891  25.289  1.00  0.00     0.240 C 
HETATM    6  O1  UNL     1      19.918 -14.500  26.515  1.00  0.00    -0.271 OA
HETATM    7  C4  UNL     1      18.680 -15.118  24.674  1.00  0.00     0.172 C 
HETATM    8  C5  UNL     1      17.796 -15.965  25.591  1.00  0.00     0.042 C 
HETATM    9  N2  UNL     1      18.718 -15.691  23.351  1.00  0.00    -0.347 N 
ATOM     10  H2  UNL     1      19.127 -16.622  23.265  1.00  0.00     0.163 HD
HETATM   11  C6  UNL     1      18.244 -15.087  22.157  1.00  0.00     0.231 C 
HETATM   12  O2  UNL     1      19.054 -14.953  21.202  1.00  0.00    -0.273 OA
HETATM   13  C7  UNL     1      16.867 -14.593  21.924  1.00  0.00     0.172 C 
HETATM   14  C11 UNL     1      16.106 -15.754  21.400  1.00  0.00     0.164 C 
HETATM   15  O3  UNL     1      15.272 -15.558  20.543  1.00  0.00    -0.295 OA
HETATM   16  C12 UNL     1      16.343 -17.126  21.899  1.00  0.00     0.151 C 
HETATM   17  C13 UNL     1      14.982 -17.840  21.857  1.00  0.00     0.040 C 
HETATM   18  N3  UNL     1      17.297 -17.843  21.084  1.00  0.00    -0.348 N 
ATOM     19  H3  UNL     1      17.672 -17.331  20.285  1.00  0.00     0.163 HD
HETATM   20  C14 UNL     1      17.769 -19.136  21.250  1.00  0.00     0.240 C 
HETATM   21  O4  UNL     1      17.776 -19.874  20.193  1.00  0.00    -0.271 OA
HETATM   22  C15 UNL     1      18.268 -19.756  22.521  1.00  0.00     0.174 C 
HETATM   23  C16 UNL     1      17.587 -21.141  22.580  1.00  0.00     0.042 C 
HETATM   24  N4  UNL     1      19.712 -19.930  22.488  1.00  0.00    -0.342 N 
HETATM   25  C17 UNL     1      20.297 -20.012  21.138  1.00  0.00     0.153 C 
HETATM   26  C18 UNL     1      20.555 -20.029  23.605  1.00  0.00     0.243 C 
HETATM   27  O5  UNL     1      21.439 -20.960  23.563  1.00  0.00    -0.271 OA
HETATM   28  C19 UNL     1      20.569 -19.200  24.834  1.00  0.00     0.180 C 
HETATM   29  N5  UNL     1      21.887 -18.617  25.065  1.00  0.00    -0.346 N 
ATOM     30  H5  UNL     1      22.661 -19.275  25.153  1.00  0.00     0.163 HD
HETATM   31  C23 UNL     1      22.211 -17.265  25.177  1.00  0.00     0.240 C 
HETATM   32  O6  UNL     1      22.820 -16.887  26.237  1.00  0.00    -0.271 OA
ENDROOT
BRANCH  13  33
HETATM   33  C8  UNL     1      16.808 -13.390  21.045  1.00  0.00     0.049 C 
HETATM   34  C9  UNL     1      15.554 -12.611  21.430  1.00  0.00     0.033 C 
HETATM   35  C10 UNL     1      17.968 -12.472  21.124  1.00  0.00     0.033 C 
HETATM   36 CL1  UNL     1      16.589 -13.900  19.355  1.00  0.00    -0.119 Cl
ENDBRANCH  13  33
BRANCH  28  37
HETATM   37  C20 UNL     1      20.196 -19.961  26.090  1.00  0.00     0.009 C 
HETATM   38  C21 UNL     1      19.016 -19.407  26.827  1.00  0.00     0.012 C 
HETATM   39  C22 UNL     1      21.365 -20.252  26.995  1.00  0.00     0.012 C 
ENDBRANCH  28  37
TORSDOF 2
ENDMDL
MODEL 5
REMARK VINA RESULT: -6.780112296      2.507      6.177
REMARK  2 active torsions:
REMARK  status: ('A' for Active; 'I' for Inactive)
REMARK    1  A    between atoms: C7_13  and  C8_14 
REMARK    2  A    between atoms: C19_32  and  C20_33 
ROOT
HETATM    1  C1  UNL     1      12.492 -14.479  22.284  1.00  0.00     0.042 C 
HETATM    2  C2  UNL     1      13.825 -14.680  21.517  1.00  0.00     0.172 C 
HETATM    3  N1  UNL     1      14.834 -13.815  22.053  1.00  0.00    -0.346 N 
ATOM      4  H1  UNL     1      14.517 -13.210  22.812  1.00  0.00     0.163 HD
HETATM    5  C3  UNL     1      16.169 -13.664  21.712  1.00  0.00     0.240 C 
HETATM    6  O1  UNL     1      16.559 -12.501  21.312  1.00  0.00    -0.271 OA
HETATM    7  C4  UNL     1      17.275 -14.650  21.729  1.00  0.00     0.172 C 
HETATM    8  C5  UNL     1      18.055 -14.613  20.413  1.00  0.00     0.042 C 
HETATM    9  N2  UNL     1      16.872 -16.002  22.031  1.00  0.00    -0.347 N 
ATOM     10  H2  UNL     1      16.232 -16.449  21.374  1.00  0.00     0.163 HD
HETATM   11  C6  UNL     1      17.278 -16.771  23.153  1.00  0.00     0.231 C 
HETATM   12  O2  UNL     1      16.382 -17.237  23.904  1.00  0.00    -0.273 OA
HETATM   13  C7  UNL     1      18.677 -17.084  23.528  1.00  0.00     0.172 C 
HETATM   14  C11 UNL     1      19.020 -18.331  22.802  1.00  0.00     0.164 C 
HETATM   15  O3  UNL     1      19.721 -19.148  23.358  1.00  0.00    -0.295 OA
HETATM   16  C12 UNL     1      18.529 -18.591  21.432  1.00  0.00     0.151 C 
HETATM   17  C13 UNL     1      19.638 -19.385  20.721  1.00  0.00     0.040 C 
HETATM   18  N3  UNL     1      17.302 -19.354  21.430  1.00  0.00    -0.348 N 
ATOM     19  H3  UNL     1      16.942 -19.619  22.348  1.00  0.00     0.163 HD
HETATM   20  C14 UNL     1      16.551 -19.774  20.342  1.00  0.00     0.240 C 
HETATM   21  O4  UNL     1      16.182 -21.008  20.354  1.00  0.00    -0.271 OA
HETATM   22  C15 UNL     1      16.131 -18.944  19.166  1.00  0.00     0.174 C 
HETATM   23  C16 UNL     1      16.437 -19.821  17.932  1.00  0.00     0.042 C 
HETATM   24  N4  UNL     1      14.705 -18.657  19.210  1.00  0.00    -0.342 N 
HETATM   25  C17 UNL     1      13.902 -19.616  19.988  1.00  0.00     0.153 C 
HETATM   26  C18 UNL     1      14.063 -17.578  18.584  1.00  0.00     0.243 C 
HETATM   27  O5  UNL     1      12.977 -17.856  17.957  1.00  0.00    -0.271 OA
HETATM   28  C19 UNL     1      14.465 -16.151  18.549  1.00  0.00     0.180 C 
HETATM   29  N5  UNL     1      13.396 -15.288  19.040  1.00  0.00    -0.346 N 
ATOM     30  H5  UNL     1      12.506 -15.347  18.546  1.00  0.00     0.163 HD
HETATM   31  C23 UNL     1      13.449 -14.391  20.108  1.00  0.00     0.240 C 
HETATM   32  O6  UNL     1      13.142 -13.171  19.874  1.00  0.00    -0.271 OA
ENDROOT
BRANCH  13  33
HETATM   33  C8  UNL     1      18.892 -17.167  25.001  1.00  0.00     0.049 C 
HETATM   34  C9  UNL     1      18.350 -15.876  25.609  1.00  0.00     0.033 C 
HETATM   35  C10 UNL     1      18.249 -18.310  25.688  1.00  0.00     0.033 C 
HETATM   36 CL1  UNL     1      20.638 -17.194  25.345  1.00  0.00    -0.119 Cl
ENDBRANCH  13  33
BRANCH  28  37
HETATM   37  C20 UNL     1      14.836 -15.653  17.168  1.00  0.00     0.009 C 
HETATM   38  C21 UNL     1      15.608 -16.633  16.338  1.00  0.00     0.012 C 
HETATM   39  C22 UNL     1      15.445 -14.275  17.160  1.00  0.00     0.012 C 
ENDBRANCH  28  37
TORSDOF 2
ENDMDL
