MODEL 1
REMARK VINA RESULT: -7.852316283      0.000      0.000
REMARK  3 active torsions:
REMARK  status: ('A' for Active; 'I' for Inactive)
REMARK       I    between atoms: N2_14  and  C10_15 
REMARK       I    between atoms: C10_15  and  N3_17 
REMARK    1  A    between atoms: N3_17  and  C11_19 
REMARK    2  A    between atoms: C11_19  and  C13_21 
REMARK    3  A    between atoms: C19_33  and  O5_34 
ROOT
HETATM    1  C1  UNL     1      20.919 -21.615  25.009  1.00  0.00     0.042 C 
HETATM    2  C2  UNL     1      20.102 -20.371  24.590  1.00  0.00     0.172 C 
HETATM    3  N1  UNL     1      18.712 -20.830  24.455  1.00  0.00    -0.347 N 
ATOM      4  H1  UNL     1      18.243 -21.132  25.309  1.00  0.00     0.163 HD
HETATM    5  C3  UNL     1      17.971 -20.894  23.278  1.00  0.00     0.227 C 
HETATM    6  O1  UNL     1      17.424 -22.023  23.005  1.00  0.00    -0.273 OA
HETATM    7  C4  UNL     1      17.744 -19.793  22.301  1.00  0.00     0.045 C 
HETATM    8  C5  UNL     1      19.009 -19.648  21.487  1.00  0.00     0.026 C 
HETATM    9  C6  UNL     1      16.640 -20.141  21.342  1.00  0.00     0.026 C 
HETATM   10  C7  UNL     1      17.475 -18.482  22.988  1.00  0.00     0.093 C 
HETATM   11  C8  UNL     1      16.694 -18.739  24.300  1.00  0.00     0.021 C 
HETATM   12  C9  UNL     1      16.658 -17.523  22.224  1.00  0.00     0.252 C 
HETATM   13  O2  UNL     1      15.444 -17.956  22.121  1.00  0.00    -0.271 OA
HETATM   14  N2  UNL     1      17.058 -16.289  21.653  1.00  0.00    -0.169 N 
HETATM   15  C10 UNL     1      15.964 -15.436  21.234  1.00  0.00     0.344 C 
HETATM   16  O3  UNL     1      14.776 -15.830  21.446  1.00  0.00    -0.245 OA
HETATM   17  N3  UNL     1      16.177 -14.174  20.592  1.00  0.00    -0.331 N 
ATOM     18  H3  UNL     1      17.125 -13.843  20.414  1.00  0.00     0.164 HD
HETATM   19  N4  UNL     1      18.336 -15.808  21.416  1.00  0.00    -0.251 N 
ATOM     20  H4  UNL     1      18.471 -15.505  20.452  1.00  0.00     0.191 HD
HETATM   21  C15 UNL     1      19.475 -15.644  22.199  1.00  0.00     0.282 C 
HETATM   22  O4  UNL     1      20.556 -16.115  21.672  1.00  0.00    -0.265 OA
HETATM   23  C16 UNL     1      19.693 -15.029  23.513  1.00  0.00     0.079 C 
HETATM   24  C17 UNL     1      18.613 -15.169  24.522  1.00  0.00     0.074 C 
HETATM   25  N5  UNL     1      21.050 -15.187  23.999  1.00  0.00    -0.333 N 
HETATM   26  C18 UNL     1      22.018 -14.270  23.314  1.00  0.00     0.158 C 
HETATM   27  C19 UNL     1      21.605 -15.996  24.985  1.00  0.00     0.146 C 
HETATM   28  C20 UNL     1      21.757 -17.452  25.180  1.00  0.00     0.090 C 
HETATM   29  C21 UNL     1      22.372 -18.192  24.017  1.00  0.00     0.047 C 
HETATM   30  C22 UNL     1      22.853 -17.697  26.278  1.00  0.00     0.047 C 
HETATM   31  N6  UNL     1      20.586 -18.090  25.736  1.00  0.00    -0.343 N 
ATOM     32  H6  UNL     1      19.941 -17.465  26.219  1.00  0.00     0.163 HD
HETATM   33  C23 UNL     1      20.208 -19.421  25.715  1.00  0.00     0.241 C 
HETATM   34  O6  UNL     1      19.882 -19.974  26.834  1.00  0.00    -0.271 OA
ENDROOT
BRANCH  17  35
HETATM   35  C11 UNL     1      15.057 -13.383  20.203  1.00  0.00     0.154 C 
HETATM   36  C12 UNL     1      15.175 -12.004  20.810  1.00  0.00     0.038 C 
BRANCH  35  37
HETATM   37  C13 UNL     1      14.927 -13.257  18.701  1.00  0.00     0.259 C 
HETATM   38  C14 UNL     1      16.265 -12.791  18.161  1.00  0.00     0.092 C 
HETATM   39  F1  UNL     1      13.971 -12.299  18.417  1.00  0.00    -0.204 F 
HETATM   40  F2  UNL     1      14.612 -14.451  18.102  1.00  0.00    -0.204 F 
ENDBRANCH  35  37
ENDBRANCH  17  35
BRANCH  27  41
HETATM   41  O5  UNL     1      22.126 -15.325  25.992  1.00  0.00    -0.347 OA
ATOM     42  H5  UNL     1      22.889 -14.810  25.756  1.00  0.00     0.219 HD
ENDBRANCH  27  41
TORSDOF 3
ENDMDL
MODEL 2
REMARK VINA RESULT: -7.630523759      1.732      4.828
REMARK  3 active torsions:
REMARK  status: ('A' for Active; 'I' for Inactive)
REMARK       I    between atoms: N2_14  and  C10_15 
REMARK       I    between atoms: C10_15  and  N3_17 
REMARK    1  A    between atoms: N3_17  and  C11_19 
REMARK    2  A    between atoms: C11_19  and  C13_21 
REMARK    3  A    between atoms: C19_33  and  O5_34 
ROOT
HETATM    1  C1  UNL     1      22.025 -19.358  26.762  1.00  0.00     0.042 C 
HETATM    2  C2  UNL     1      21.181 -18.741  25.624  1.00  0.00     0.172 C 
HETATM    3  N1  UNL     1      21.795 -17.437  25.330  1.00  0.00    -0.347 N 
ATOM      4  H1  UNL     1      22.734 -17.452  24.933  1.00  0.00     0.163 HD
HETATM    5  C3  UNL     1      21.223 -16.186  25.539  1.00  0.00     0.227 C 
HETATM    6  O1  UNL     1      21.912 -15.347  26.223  1.00  0.00    -0.273 OA
HETATM    7  C4  UNL     1      19.895 -15.714  25.054  1.00  0.00     0.045 C 
HETATM    8  C5  UNL     1      18.846 -16.335  25.946  1.00  0.00     0.026 C 
HETATM    9  C6  UNL     1      19.768 -14.224  25.193  1.00  0.00     0.026 C 
HETATM   10  C7  UNL     1      19.629 -16.154  23.641  1.00  0.00     0.093 C 
HETATM   11  C8  UNL     1      20.958 -16.172  22.847  1.00  0.00     0.021 C 
HETATM   12  C9  UNL     1      18.720 -15.288  22.869  1.00  0.00     0.252 C 
HETATM   13  O2  UNL     1      19.288 -14.150  22.629  1.00  0.00    -0.271 OA
HETATM   14  N2  UNL     1      17.409 -15.574  22.415  1.00  0.00    -0.169 N 
HETATM   15  C10 UNL     1      16.896 -14.645  21.428  1.00  0.00     0.344 C 
HETATM   16  O3  UNL     1      17.655 -13.708  21.029  1.00  0.00    -0.245 OA
HETATM   17  N3  UNL     1      15.573 -14.748  20.892  1.00  0.00    -0.331 N 
ATOM     18  H3  UNL     1      14.950 -15.495  21.201  1.00  0.00     0.164 HD
HETATM   19  N4  UNL     1      16.551 -16.590  22.804  1.00  0.00    -0.251 N 
ATOM     20  H4  UNL     1      15.633 -16.245  23.084  1.00  0.00     0.191 HD
HETATM   21  C15 UNL     1      16.659 -17.974  22.899  1.00  0.00     0.282 C 
HETATM   22  O4  UNL     1      16.261 -18.465  24.025  1.00  0.00    -0.265 OA
HETATM   23  C16 UNL     1      17.135 -18.996  21.959  1.00  0.00     0.079 C 
HETATM   24  C17 UNL     1      18.264 -18.632  21.067  1.00  0.00     0.074 C 
HETATM   25  N5  UNL     1      17.173 -20.326  22.534  1.00  0.00    -0.333 N 
HETATM   26  C18 UNL     1      15.812 -20.943  22.650  1.00  0.00     0.158 C 
HETATM   27  C19 UNL     1      18.222 -21.133  22.963  1.00  0.00     0.146 C 
HETATM   28  C20 UNL     1      19.242 -21.042  24.027  1.00  0.00     0.090 C 
HETATM   29  C21 UNL     1      18.703 -20.752  25.407  1.00  0.00     0.047 C 
HETATM   30  C22 UNL     1      19.849 -22.472  24.260  1.00  0.00     0.047 C 
HETATM   31  N6  UNL     1      20.395 -20.253  23.663  1.00  0.00    -0.343 N 
ATOM     32  H6  UNL     1      20.533 -20.125  22.660  1.00  0.00     0.163 HD
HETATM   33  C23 UNL     1      21.342 -19.643  24.466  1.00  0.00     0.241 C 
HETATM   34  O6  UNL     1      22.587 -19.861  24.207  1.00  0.00    -0.271 OA
ENDROOT
BRANCH  17  35
HETATM   35  C11 UNL     1      15.129 -13.801  19.924  1.00  0.00     0.154 C 
HETATM   36  C12 UNL     1      14.388 -14.516  18.817  1.00  0.00     0.038 C 
BRANCH  35  37
HETATM   37  C13 UNL     1      14.231 -12.737  20.518  1.00  0.00     0.259 C 
HETATM   38  C14 UNL     1      13.412 -13.388  21.615  1.00  0.00     0.092 C 
HETATM   39  F1  UNL     1      13.376 -12.277  19.533  1.00  0.00    -0.204 F 
HETATM   40  F2  UNL     1      14.943 -11.701  21.068  1.00  0.00    -0.204 F 
ENDBRANCH  35  37
ENDBRANCH  17  35
BRANCH  27  41
HETATM   41  O5  UNL     1      18.352 -22.247  22.273  1.00  0.00    -0.347 OA
ATOM     42  H5  UNL     1      17.593 -22.462  21.744  1.00  0.00     0.219 HD
ENDBRANCH  27  41
TORSDOF 3
ENDMDL
MODEL 3
REMARK VINA RESULT: -7.627421155      4.363      7.680
REMARK  3 active torsions:
REMARK  status: ('A' for Active; 'I' for Inactive)
REMARK       I    between atoms: N2_14  and  C10_15 
REMARK       I    between atoms: C10_15  and  N3_17 
REMARK    1  A    between atoms: N3_17  and  C11_19 
REMARK    2  A    between atoms: C11_19  and  C13_21 
REMARK    3  A    between atoms: C19_33  and  O5_34 
ROOT
HETATM    1  C1  UNL     1      15.074 -22.898  20.240  1.00  0.00     0.042 C 
HETATM    2  C2  UNL     1      14.932 -21.360  20.185  1.00  0.00     0.172 C 
HETATM    3  N1  UNL     1      16.173 -20.821  20.761  1.00  0.00    -0.347 N 
ATOM      4  H1  UNL     1      17.032 -20.988  20.237  1.00  0.00     0.163 HD
HETATM    5  C3  UNL     1      16.294 -20.105  21.948  1.00  0.00     0.227 C 
HETATM    6  O1  UNL     1      17.150 -20.543  22.798  1.00  0.00    -0.273 OA
HETATM    7  C4  UNL     1      15.535 -18.884  22.340  1.00  0.00     0.045 C 
HETATM    8  C5  UNL     1      14.153 -19.330  22.757  1.00  0.00     0.026 C 
HETATM    9  C6  UNL     1      16.163 -18.217  23.531  1.00  0.00     0.026 C 
HETATM   10  C7  UNL     1      15.391 -17.923  21.192  1.00  0.00     0.093 C 
HETATM   11  C8  UNL     1      16.658 -17.988  20.303  1.00  0.00     0.021 C 
HETATM   12  C9  UNL     1      15.245 -16.506  21.567  1.00  0.00     0.252 C 
HETATM   13  O2  UNL     1      16.351 -16.063  22.071  1.00  0.00    -0.271 OA
HETATM   14  N2  UNL     1      14.105 -15.675  21.433  1.00  0.00    -0.169 N 
HETATM   15  C10 UNL     1      14.366 -14.260  21.605  1.00  0.00     0.344 C 
HETATM   16  O3  UNL     1      15.562 -13.888  21.811  1.00  0.00    -0.245 OA
HETATM   17  N3  UNL     1      13.328 -13.276  21.552  1.00  0.00    -0.331 N 
ATOM     18  H3  UNL     1      12.361 -13.558  21.387  1.00  0.00     0.164 HD
HETATM   19  N4  UNL     1      12.787 -16.030  21.191  1.00  0.00    -0.251 N 
ATOM     20  H4  UNL     1      12.140 -15.630  21.870  1.00  0.00     0.191 HD
HETATM   21  C15 UNL     1      12.149 -16.809  20.231  1.00  0.00     0.282 C 
HETATM   22  O4  UNL     1      11.325 -17.679  20.712  1.00  0.00    -0.265 OA
HETATM   23  C16 UNL     1      12.223 -16.831  18.766  1.00  0.00     0.079 C 
HETATM   24  C17 UNL     1      13.539 -16.546  18.142  1.00  0.00     0.074 C 
HETATM   25  N5  UNL     1      11.450 -17.904  18.172  1.00  0.00    -0.333 N 
HETATM   26  C18 UNL     1       9.977 -17.626  18.179  1.00  0.00     0.158 C 
HETATM   27  C19 UNL     1      11.817 -19.109  17.580  1.00  0.00     0.146 C 
HETATM   28  C20 UNL     1      12.483 -20.341  18.047  1.00  0.00     0.090 C 
HETATM   29  C21 UNL     1      11.888 -20.960  19.288  1.00  0.00     0.047 C 
HETATM   30  C22 UNL     1      12.206 -21.483  17.005  1.00  0.00     0.047 C 
HETATM   31  N6  UNL     1      13.925 -20.254  18.061  1.00  0.00    -0.343 N 
ATOM     32  H6  UNL     1      14.320 -19.522  17.470  1.00  0.00     0.163 HD
HETATM   33  C23 UNL     1      14.853 -21.012  18.752  1.00  0.00     0.241 C 
HETATM   34  O6  UNL     1      15.832 -21.525  18.086  1.00  0.00    -0.271 OA
ENDROOT
BRANCH  17  35
HETATM   35  C11 UNL     1      13.651 -11.900  21.731  1.00  0.00     0.154 C 
HETATM   36  C12 UNL     1      14.062 -11.298  20.407  1.00  0.00     0.038 C 
BRANCH  35  37
HETATM   37  C13 UNL     1      12.501 -11.101  22.305  1.00  0.00     0.259 C 
HETATM   38  C14 UNL     1      11.636 -12.052  23.109  1.00  0.00     0.092 C 
HETATM   39  F1  UNL     1      11.752 -10.587  21.263  1.00  0.00    -0.204 F 
HETATM   40  F2  UNL     1      12.927 -10.097  23.139  1.00  0.00    -0.204 F 
ENDBRANCH  35  37
ENDBRANCH  17  35
BRANCH  27  41
HETATM   41  O5  UNL     1      11.503 -19.192  16.304  1.00  0.00    -0.347 OA
ATOM     42  H5  UNL     1      11.839 -18.476  15.778  1.00  0.00     0.219 HD
ENDBRANCH  27  41
TORSDOF 3
ENDMDL
MODEL 4
REMARK VINA RESULT: -7.592565911      2.015      4.957
REMARK  3 active torsions:
REMARK  status: ('A' for Active; 'I' for Inactive)
REMARK       I    between atoms: N2_14  and  C10_15 
REMARK       I    between atoms: C10_15  and  N3_17 
REMARK    1  A    between atoms: N3_17  and  C11_19 
REMARK    2  A    between atoms: C11_19  and  C13_21 
REMARK    3  A    between atoms: C19_33  and  O5_34 
ROOT
HETATM    1  C1  UNL     1      23.355 -18.527  25.093  1.00  0.00     0.042 C 
HETATM    2  C2  UNL     1      22.102 -18.185  24.257  1.00  0.00     0.172 C 
HETATM    3  N1  UNL     1      22.385 -16.890  23.620  1.00  0.00    -0.347 N 
ATOM      4  H1  UNL     1      23.132 -16.874  22.925  1.00  0.00     0.163 HD
HETATM    5  C3  UNL     1      21.737 -15.683  23.869  1.00  0.00     0.227 C 
HETATM    6  O1  UNL     1      22.482 -14.683  24.169  1.00  0.00    -0.273 OA
HETATM    7  C4  UNL     1      20.270 -15.428  23.825  1.00  0.00     0.045 C 
HETATM    8  C5  UNL     1      19.677 -16.000  25.092  1.00  0.00     0.026 C 
HETATM    9  C6  UNL     1      19.978 -13.954  23.827  1.00  0.00     0.026 C 
HETATM   10  C7  UNL     1      19.619 -16.111  22.653  1.00  0.00     0.093 C 
HETATM   11  C8  UNL     1      20.599 -16.123  21.454  1.00  0.00     0.021 C 
HETATM   12  C9  UNL     1      18.390 -15.472  22.151  1.00  0.00     0.252 C 
HETATM   13  O2  UNL     1      18.673 -14.336  21.599  1.00  0.00    -0.271 OA
HETATM   14  N2  UNL     1      17.059 -15.954  22.218  1.00  0.00    -0.169 N 
HETATM   15  C10 UNL     1      16.119 -15.249  21.370  1.00  0.00     0.344 C 
HETATM   16  O3  UNL     1      16.557 -14.316  20.628  1.00  0.00    -0.245 OA
HETATM   17  N3  UNL     1      14.723 -15.565  21.343  1.00  0.00    -0.331 N 
ATOM     18  H3  UNL     1      14.354 -16.311  21.933  1.00  0.00     0.164 HD
HETATM   19  N4  UNL     1      16.537 -16.975  22.995  1.00  0.00    -0.251 N 
ATOM     20  H4  UNL     1      15.723 -16.683  23.535  1.00  0.00     0.191 HD
HETATM   21  C15 UNL     1      16.873 -18.309  23.205  1.00  0.00     0.282 C 
HETATM   22  O4  UNL     1      16.946 -18.652  24.448  1.00  0.00    -0.265 OA
HETATM   23  C16 UNL     1      17.157 -19.415  22.283  1.00  0.00     0.079 C 
HETATM   24  C17 UNL     1      17.862 -19.088  21.018  1.00  0.00     0.074 C 
HETATM   25  N5  UNL     1      17.578 -20.627  22.957  1.00  0.00    -0.333 N 
HETATM   26  C18 UNL     1      16.437 -21.349  23.609  1.00  0.00     0.158 C 
HETATM   27  C19 UNL     1      18.816 -21.248  23.085  1.00  0.00     0.146 C 
HETATM   28  C20 UNL     1      20.105 -20.890  23.710  1.00  0.00     0.090 C 
HETATM   29  C21 UNL     1      20.016 -20.440  25.148  1.00  0.00     0.047 C 
HETATM   30  C22 UNL     1      20.958 -22.198  23.880  1.00  0.00     0.047 C 
HETATM   31  N6  UNL     1      20.944 -20.058  22.879  1.00  0.00    -0.343 N 
ATOM     32  H6  UNL     1      20.723 -20.078  21.883  1.00  0.00     0.163 HD
HETATM   33  C23 UNL     1      22.002 -19.238  23.227  1.00  0.00     0.241 C 
HETATM   34  O6  UNL     1      23.109 -19.371  22.578  1.00  0.00    -0.271 OA
ENDROOT
BRANCH  17  35
HETATM   35  C11 UNL     1      13.850 -14.832  20.488  1.00  0.00     0.154 C 
HETATM   36  C12 UNL     1      13.027 -15.792  19.660  1.00  0.00     0.038 C 
BRANCH  35  37
HETATM   37  C13 UNL     1      12.923 -13.912  21.252  1.00  0.00     0.259 C 
HETATM   38  C14 UNL     1      13.568 -12.540  21.290  1.00  0.00     0.092 C 
HETATM   39  F1  UNL     1      12.795 -14.383  22.545  1.00  0.00    -0.204 F 
HETATM   40  F2  UNL     1      11.694 -13.794  20.652  1.00  0.00    -0.204 F 
ENDBRANCH  35  37
ENDBRANCH  17  35
BRANCH  27  41
HETATM   41  O5  UNL     1      18.873 -22.439  22.526  1.00  0.00    -0.347 OA
ATOM     42  H5  UNL     1      18.700 -22.434  21.591  1.00  0.00     0.219 HD
ENDBRANCH  27  41
TORSDOF 3
ENDMDL
MODEL 5
REMARK VINA RESULT: -7.385690853      3.948      7.555
REMARK  3 active torsions:
REMARK  status: ('A' for Active; 'I' for Inactive)
REMARK       I    between atoms: N2_14  and  C10_15 
REMARK       I    between atoms: C10_15  and  N3_17 
REMARK    1  A    between atoms: N3_17  and  C11_19 
REMARK    2  A    between atoms: C11_19  and  C13_21 
REMARK    3  A    between atoms: C19_33  and  O5_34 
ROOT
HETATM    1  C1  UNL     1      11.836 -23.267  21.407  1.00  0.00     0.042 C 
HETATM    2  C2  UNL     1      12.959 -22.205  21.416  1.00  0.00     0.172 C 
HETATM    3  N1  UNL     1      14.130 -22.864  22.013  1.00  0.00    -0.347 N 
ATOM      4  H1  UNL     1      14.546 -23.630  21.482  1.00  0.00     0.163 HD
HETATM    5  C3  UNL     1      14.729 -22.548  23.229  1.00  0.00     0.227 C 
HETATM    6  O1  UNL     1      14.886 -23.514  24.060  1.00  0.00    -0.273 OA
HETATM    7  C4  UNL     1      15.208 -21.208  23.671  1.00  0.00     0.045 C 
HETATM    8  C5  UNL     1      13.991 -20.407  24.070  1.00  0.00     0.026 C 
HETATM    9  C6  UNL     1      16.081 -21.322  24.889  1.00  0.00     0.026 C 
HETATM   10  C7  UNL     1      15.911 -20.473  22.564  1.00  0.00     0.093 C 
HETATM   11  C8  UNL     1      16.671 -21.487  21.673  1.00  0.00     0.021 C 
HETATM   12  C9  UNL     1      16.923 -19.494  22.998  1.00  0.00     0.252 C 
HETATM   13  O2  UNL     1      17.938 -20.104  23.519  1.00  0.00    -0.271 OA
HETATM   14  N2  UNL     1      16.877 -18.081  22.898  1.00  0.00    -0.169 N 
HETATM   15  C10 UNL     1      18.145 -17.418  23.129  1.00  0.00     0.344 C 
HETATM   16  O3  UNL     1      19.169 -18.135  23.350  1.00  0.00    -0.245 OA
HETATM   17  N3  UNL     1      18.279 -15.993  23.117  1.00  0.00    -0.331 N 
ATOM     18  H3  UNL     1      17.466 -15.402  22.941  1.00  0.00     0.164 HD
HETATM   19  N4  UNL     1      15.792 -17.257  22.643  1.00  0.00    -0.251 N 
ATOM     20  H4  UNL     1      15.685 -16.519  23.338  1.00  0.00     0.191 HD
HETATM   21  C15 UNL     1      14.817 -17.210  21.651  1.00  0.00     0.282 C 
HETATM   22  O4  UNL     1      13.608 -17.111  22.096  1.00  0.00    -0.265 OA
HETATM   23  C16 UNL     1      14.892 -17.244  20.186  1.00  0.00     0.079 C 
HETATM   24  C17 UNL     1      15.949 -18.088  19.575  1.00  0.00     0.074 C 
HETATM   25  N5  UNL     1      13.591 -17.283  19.549  1.00  0.00    -0.333 N 
HETATM   26  C18 UNL     1      12.900 -15.952  19.568  1.00  0.00     0.158 C 
HETATM   27  C19 UNL     1      12.890 -18.299  18.908  1.00  0.00     0.146 C 
HETATM   28  C20 UNL     1      12.318 -19.596  19.322  1.00  0.00     0.090 C 
HETATM   29  C21 UNL     1      11.423 -19.541  20.537  1.00  0.00     0.047 C 
HETATM   30  C22 UNL     1      11.282 -20.055  18.234  1.00  0.00     0.047 C 
HETATM   31  N6  UNL     1      13.276 -20.676  19.339  1.00  0.00    -0.343 N 
ATOM     32  H6  UNL     1      14.114 -20.520  18.780  1.00  0.00     0.163 HD
HETATM   33  C23 UNL     1      13.229 -21.892  19.999  1.00  0.00     0.241 C 
HETATM   34  O6  UNL     1      13.452 -22.961  19.312  1.00  0.00    -0.271 OA
ENDROOT
BRANCH  17  35
HETATM   35  C11 UNL     1      19.555 -15.403  23.353  1.00  0.00     0.154 C 
HETATM   36  C12 UNL     1      19.863 -14.405  22.260  1.00  0.00     0.038 C 
BRANCH  35  37
HETATM   37  C13 UNL     1      19.638 -14.711  24.696  1.00  0.00     0.259 C 
HETATM   38  C14 UNL     1      20.491 -15.574  25.605  1.00  0.00     0.092 C 
HETATM   39  F1  UNL     1      18.365 -14.621  25.229  1.00  0.00    -0.204 F 
HETATM   40  F2  UNL     1      20.218 -13.471  24.610  1.00  0.00    -0.204 F 
ENDBRANCH  35  37
ENDBRANCH  17  35
BRANCH  27  41
HETATM   41  O5  UNL     1      12.672 -18.070  17.629  1.00  0.00    -0.347 OA
ATOM     42  H5  UNL     1      12.901 -18.799  17.064  1.00  0.00     0.219 HD
ENDBRANCH  27  41
TORSDOF 3
ENDMDL
