MODEL 1
REMARK VINA RESULT: -7.695206797      0.000      0.000
REMARK  1 active torsions:
REMARK  status: ('A' for Active; 'I' for Inactive)
REMARK    1  A    between atoms: C11_13  and  C12_14 
ROOT
HETATM    1  C1  UNL     1      13.011 -13.039  21.665  1.00  0.00     0.070 C 
HETATM    2  C2  UNL     1      13.312 -14.487  21.437  1.00  0.00     0.029 A 
HETATM    3  C3  UNL     1      14.607 -14.875  21.358  1.00  0.00     0.062 A 
HETATM    4 BR1  UNL     1      15.867 -13.454  21.556  1.00  0.00    -0.046 Br
HETATM    5  C4  UNL     1      15.011 -16.245  21.121  1.00  0.00     0.078 A 
HETATM    6  C5  UNL     1      16.239 -16.708  21.145  1.00  0.00     0.038 C 
HETATM    7  C6  UNL     1      17.328 -15.758  21.466  1.00  0.00     0.076 C 
HETATM    8  C7  UNL     1      18.682 -16.504  21.678  1.00  0.00     0.079 C 
HETATM    9  S1  UNL     1      19.943 -15.290  21.921  1.00  0.00    -0.150 SA
HETATM   10  C8  UNL     1      20.601 -15.106  23.556  1.00  0.00     0.031 C 
HETATM   11  C9  UNL     1      20.033 -13.800  24.131  1.00  0.00     0.029 C 
HETATM   12  C10 UNL     1      22.122 -14.902  23.486  1.00  0.00     0.029 C 
HETATM   13  C11 UNL     1      20.321 -16.182  24.539  1.00  0.00     0.197 C 
HETATM   14  N1  UNL     1      20.562 -17.518  24.144  1.00  0.00    -0.393 N 
ATOM     15  H1  UNL     1      21.235 -18.084  24.660  1.00  0.00     0.155 HD
HETATM   16  C13 UNL     1      19.889 -18.067  23.056  1.00  0.00     0.195 C 
HETATM   17  C14 UNL     1      19.043 -19.261  23.360  1.00  0.00     0.246 C 
HETATM   18  O3  UNL     1      19.186 -20.252  24.100  1.00  0.00    -0.271 OA
HETATM   19  N2  UNL     1      18.089 -18.733  22.458  1.00  0.00    -0.316 N 
HETATM   20  C15 UNL     1      18.544 -17.413  22.864  1.00  0.00     0.135 C 
HETATM   21  C16 UNL     1      17.089 -19.154  21.522  1.00  0.00     0.103 C 
HETATM   22  C17 UNL     1      17.751 -20.050  20.486  1.00  0.00     0.063 C 
HETATM   23  C18 UNL     1      16.100 -20.036  22.263  1.00  0.00     0.063 C 
HETATM   24  N3  UNL     1      16.453 -18.083  20.784  1.00  0.00    -0.360 N 
HETATM   25  C19 UNL     1      15.969 -18.430  19.437  1.00  0.00     0.152 C 
HETATM   26  N4  UNL     1      13.878 -17.147  20.980  1.00  0.00    -0.306 N 
ATOM     27  H4  UNL     1      14.075 -18.134  20.813  1.00  0.00     0.171 HD
HETATM   28  C20 UNL     1      12.528 -16.752  21.060  1.00  0.00     0.325 A 
HETATM   29  O4  UNL     1      11.561 -17.541  20.935  1.00  0.00    -0.247 OA
HETATM   30  N5  UNL     1      12.246 -15.397  21.292  1.00  0.00    -0.311 N 
ATOM     31  H5  UNL     1      11.281 -15.075  21.356  1.00  0.00     0.170 HD
ENDROOT
BRANCH  13  32
HETATM   32  C12 UNL     1      21.167 -15.933  25.736  1.00  0.00     0.198 C 
HETATM   33  O1  UNL     1      20.971 -14.991  26.530  1.00  0.00    -0.646 OA
HETATM   34  O2  UNL     1      22.220 -16.789  25.978  1.00  0.00    -0.646 OA
ENDBRANCH  13  32
TORSDOF 1
ENDMDL
MODEL 2
REMARK VINA RESULT: -7.655322957      3.100      7.071
REMARK  1 active torsions:
REMARK  status: ('A' for Active; 'I' for Inactive)
REMARK    1  A    between atoms: C11_13  and  C12_14 
ROOT
HETATM    1  C1  UNL     1      15.148 -21.131  26.097  1.00  0.00     0.070 C 
HETATM    2  C2  UNL     1      16.335 -20.292  25.745  1.00  0.00     0.029 A 
HETATM    3  C3  UNL     1      16.345 -19.651  24.552  1.00  0.00     0.062 A 
HETATM    4 BR1  UNL     1      14.787 -19.943  23.489  1.00  0.00    -0.046 Br
HETATM    5  C4  UNL     1      17.450 -18.829  24.104  1.00  0.00     0.078 A 
HETATM    6  C5  UNL     1      17.479 -18.093  23.017  1.00  0.00     0.038 C 
HETATM    7  C6  UNL     1      16.267 -18.068  22.168  1.00  0.00     0.076 C 
HETATM    8  C7  UNL     1      16.380 -16.981  21.055  1.00  0.00     0.079 C 
HETATM    9  S1  UNL     1      14.959 -17.113  20.013  1.00  0.00    -0.150 SA
HETATM   10  C8  UNL     1      13.728 -15.846  20.139  1.00  0.00     0.031 C 
HETATM   11  C9  UNL     1      12.528 -16.447  20.885  1.00  0.00     0.029 C 
HETATM   12  C10 UNL     1      13.209 -15.483  18.739  1.00  0.00     0.029 C 
HETATM   13  C11 UNL     1      14.099 -14.589  20.837  1.00  0.00     0.197 C 
HETATM   14  N1  UNL     1      15.308 -13.957  20.464  1.00  0.00    -0.393 N 
ATOM     15  H1  UNL     1      15.289 -13.007  20.094  1.00  0.00     0.155 HD
HETATM   16  C13 UNL     1      16.524 -14.621  20.598  1.00  0.00     0.195 C 
HETATM   17  C14 UNL     1      17.516 -13.969  21.507  1.00  0.00     0.246 C 
HETATM   18  O3  UNL     1      17.844 -12.787  21.717  1.00  0.00    -0.271 OA
HETATM   19  N2  UNL     1      17.854 -15.267  21.959  1.00  0.00    -0.316 N 
HETATM   20  C15 UNL     1      16.470 -15.635  21.712  1.00  0.00     0.135 C 
HETATM   21  C16 UNL     1      18.970 -16.018  22.452  1.00  0.00     0.103 C 
HETATM   22  C17 UNL     1      20.080 -15.960  21.414  1.00  0.00     0.063 C 
HETATM   23  C18 UNL     1      19.510 -15.302  23.678  1.00  0.00     0.063 C 
HETATM   24  N3  UNL     1      18.707 -17.422  22.684  1.00  0.00    -0.360 N 
HETATM   25  C19 UNL     1      19.860 -18.327  22.532  1.00  0.00     0.152 C 
HETATM   26  N4  UNL     1      18.536 -18.771  25.071  1.00  0.00    -0.306 N 
ATOM     27  H4  UNL     1      19.354 -18.211  24.834  1.00  0.00     0.171 HD
HETATM   28  C20 UNL     1      18.534 -19.436  26.313  1.00  0.00     0.325 A 
HETATM   29  O4  UNL     1      19.478 -19.379  27.137  1.00  0.00    -0.247 OA
HETATM   30  N5  UNL     1      17.412 -20.208  26.651  1.00  0.00    -0.311 N 
ATOM     31  H5  UNL     1      17.376 -20.703  27.542  1.00  0.00     0.170 HD
ENDROOT
BRANCH  13  32
HETATM   32  C12 UNL     1      13.013 -13.602  20.600  1.00  0.00     0.198 C 
HETATM   33  O1  UNL     1      11.948 -13.586  21.250  1.00  0.00    -0.646 OA
HETATM   34  O2  UNL     1      13.195 -12.659  19.612  1.00  0.00    -0.646 OA
ENDBRANCH  13  32
TORSDOF 1
ENDMDL
MODEL 3
REMARK VINA RESULT: -7.328493936      1.214      1.282
REMARK  1 active torsions:
REMARK  status: ('A' for Active; 'I' for Inactive)
REMARK    1  A    between atoms: C11_13  and  C12_14 
ROOT
HETATM    1  C1  UNL     1      13.565 -13.349  19.855  1.00  0.00     0.070 C 
HETATM    2  C2  UNL     1      13.587 -14.769  20.323  1.00  0.00     0.029 A 
HETATM    3  C3  UNL     1      14.780 -15.332  20.629  1.00  0.00     0.062 A 
HETATM    4 BR1  UNL     1      16.279 -14.173  20.399  1.00  0.00    -0.046 Br
HETATM    5  C4  UNL     1      14.918 -16.703  21.073  1.00  0.00     0.078 A 
HETATM    6  C5  UNL     1      16.023 -17.275  21.492  1.00  0.00     0.038 C 
HETATM    7  C6  UNL     1      17.251 -16.450  21.546  1.00  0.00     0.076 C 
HETATM    8  C7  UNL     1      18.406 -17.205  22.274  1.00  0.00     0.079 C 
HETATM    9  S1  UNL     1      19.861 -16.207  22.172  1.00  0.00    -0.150 SA
HETATM   10  C8  UNL     1      20.408 -15.400  23.651  1.00  0.00     0.031 C 
HETATM   11  C9  UNL     1      20.069 -13.909  23.509  1.00  0.00     0.029 C 
HETATM   12  C10 UNL     1      21.940 -15.471  23.748  1.00  0.00     0.029 C 
HETATM   13  C11 UNL     1      19.839 -15.863  24.942  1.00  0.00     0.197 C 
HETATM   14  N1  UNL     1      19.839 -17.253  25.205  1.00  0.00    -0.393 N 
ATOM     15  H1  UNL     1      20.341 -17.614  26.015  1.00  0.00     0.155 HD
HETATM   16  C13 UNL     1      19.160 -18.131  24.365  1.00  0.00     0.195 C 
HETATM   17  C14 UNL     1      18.070 -18.924  25.011  1.00  0.00     0.246 C 
HETATM   18  O3  UNL     1      17.951 -19.482  26.118  1.00  0.00    -0.271 OA
HETATM   19  N2  UNL     1      17.318 -18.730  23.828  1.00  0.00    -0.316 N 
HETATM   20  C15 UNL     1      17.993 -17.450  23.696  1.00  0.00     0.135 C 
HETATM   21  C16 UNL     1      16.333 -19.380  23.016  1.00  0.00     0.103 C 
HETATM   22  C17 UNL     1      16.883 -20.732  22.588  1.00  0.00     0.063 C 
HETATM   23  C18 UNL     1      15.130 -19.681  23.893  1.00  0.00     0.063 C 
HETATM   24  N3  UNL     1      15.986 -18.680  21.798  1.00  0.00    -0.360 N 
HETATM   25  C19 UNL     1      15.552 -19.526  20.672  1.00  0.00     0.152 C 
HETATM   26  N4  UNL     1      13.643 -17.399  21.153  1.00  0.00    -0.306 N 
ATOM     27  H4  UNL     1      13.652 -18.371  21.460  1.00  0.00     0.171 HD
HETATM   28  C20 UNL     1      12.398 -16.822  20.835  1.00  0.00     0.325 A 
HETATM   29  O4  UNL     1      11.306 -17.435  20.907  1.00  0.00    -0.247 OA
HETATM   30  N5  UNL     1      12.376 -15.483  20.414  1.00  0.00    -0.311 N 
ATOM     31  H5  UNL     1      11.492 -15.032  20.176  1.00  0.00     0.170 HD
ENDROOT
BRANCH  13  32
HETATM   32  C12 UNL     1      20.619 -15.224  26.035  1.00  0.00     0.198 C 
HETATM   33  O1  UNL     1      20.254 -14.183  26.618  1.00  0.00    -0.646 OA
HETATM   34  O2  UNL     1      21.802 -15.815  26.422  1.00  0.00    -0.646 OA
ENDBRANCH  13  32
TORSDOF 1
ENDMDL
MODEL 4
REMARK VINA RESULT: -7.215561621      3.176      6.662
REMARK  1 active torsions:
REMARK  status: ('A' for Active; 'I' for Inactive)
REMARK    1  A    between atoms: C11_13  and  C12_14 
ROOT
HETATM    1  C1  UNL     1      14.576 -21.325  26.284  1.00  0.00     0.070 C 
HETATM    2  C2  UNL     1      15.934 -20.783  25.964  1.00  0.00     0.029 A 
HETATM    3  C3  UNL     1      16.101 -20.092  24.812  1.00  0.00     0.062 A 
HETATM    4 BR1  UNL     1      14.518 -19.927  23.757  1.00  0.00    -0.046 Br
HETATM    5  C4  UNL     1      17.374 -19.541  24.396  1.00  0.00     0.078 A 
HETATM    6  C5  UNL     1      17.582 -18.769  23.355  1.00  0.00     0.038 C 
HETATM    7  C6  UNL     1      16.413 -18.395  22.528  1.00  0.00     0.076 C 
HETATM    8  C7  UNL     1      16.790 -17.303  21.480  1.00  0.00     0.079 C 
HETATM    9  S1  UNL     1      15.380 -17.018  20.454  1.00  0.00    -0.150 SA
HETATM   10  C8  UNL     1      14.499 -15.497  20.674  1.00  0.00     0.031 C 
HETATM   11  C9  UNL     1      13.187 -15.830  21.400  1.00  0.00     0.029 C 
HETATM   12  C10 UNL     1      14.084 -14.932  19.306  1.00  0.00     0.029 C 
HETATM   13  C11 UNL     1      15.167 -14.415  21.439  1.00  0.00     0.197 C 
HETATM   14  N1  UNL     1      16.494 -14.077  21.086  1.00  0.00    -0.393 N 
ATOM     15  H1  UNL     1      16.709 -13.131  20.773  1.00  0.00     0.155 HD
HETATM   16  C13 UNL     1      17.510 -15.027  21.161  1.00  0.00     0.195 C 
HETATM   17  C14 UNL     1      18.631 -14.696  22.092  1.00  0.00     0.246 C 
HETATM   18  O3  UNL     1      19.240 -13.646  22.367  1.00  0.00    -0.271 OA
HETATM   19  N2  UNL     1      18.640 -16.062  22.461  1.00  0.00    -0.316 N 
HETATM   20  C15 UNL     1      17.208 -16.062  22.214  1.00  0.00     0.135 C 
HETATM   21  C16 UNL     1      19.537 -17.093  22.891  1.00  0.00     0.103 C 
HETATM   22  C17 UNL     1      20.628 -17.245  21.841  1.00  0.00     0.063 C 
HETATM   23  C18 UNL     1      20.237 -16.608  24.148  1.00  0.00     0.063 C 
HETATM   24  N3  UNL     1      18.937 -18.401  23.043  1.00  0.00    -0.360 N 
HETATM   25  C19 UNL     1      19.832 -19.550  22.820  1.00  0.00     0.152 C 
HETATM   26  N4  UNL     1      18.440 -19.811  25.348  1.00  0.00    -0.306 N 
ATOM     27  H4  UNL     1      19.371 -19.455  25.132  1.00  0.00     0.171 HD
HETATM   28  C20 UNL     1      18.275 -20.530  26.548  1.00  0.00     0.325 A 
HETATM   29  O4  UNL     1      19.205 -20.757  27.359  1.00  0.00    -0.247 OA
HETATM   30  N5  UNL     1      16.998 -21.022  26.857  1.00  0.00    -0.311 N 
ATOM     31  H5  UNL     1      16.841 -21.547  27.717  1.00  0.00     0.170 HD
ENDROOT
BRANCH  13  32
HETATM   32  C12 UNL     1      14.357 -13.179  21.278  1.00  0.00     0.198 C 
HETATM   33  O1  UNL     1      13.436 -12.857  22.055  1.00  0.00    -0.646 OA
HETATM   34  O2  UNL     1      14.642 -12.348  20.216  1.00  0.00    -0.646 OA
ENDBRANCH  13  32
TORSDOF 1
ENDMDL
MODEL 5
REMARK VINA RESULT: -7.165584463      3.119      6.864
REMARK  1 active torsions:
REMARK  status: ('A' for Active; 'I' for Inactive)
REMARK    1  A    between atoms: C11_13  and  C12_14 
ROOT
HETATM    1  C1  UNL     1      20.767 -16.188  24.541  1.00  0.00     0.070 C 
HETATM    2  C2  UNL     1      19.924 -17.203  23.835  1.00  0.00     0.029 A 
HETATM    3  C3  UNL     1      18.730 -16.814  23.329  1.00  0.00     0.062 A 
HETATM    4 BR1  UNL     1      18.316 -14.973  23.616  1.00  0.00    -0.046 Br
HETATM    5  C4  UNL     1      17.828 -17.718  22.645  1.00  0.00     0.078 A 
HETATM    6  C5  UNL     1      16.715 -17.387  22.034  1.00  0.00     0.038 C 
HETATM    7  C6  UNL     1      16.339 -15.955  22.010  1.00  0.00     0.076 C 
HETATM    8  C7  UNL     1      15.127 -15.706  21.060  1.00  0.00     0.079 C 
HETATM    9  S1  UNL     1      14.665 -14.005  21.197  1.00  0.00    -0.150 SA
HETATM   10  C8  UNL     1      15.045 -12.939  19.834  1.00  0.00     0.031 C 
HETATM   11  C9  UNL     1      16.229 -12.058  20.261  1.00  0.00     0.029 C 
HETATM   12  C10 UNL     1      13.877 -11.973  19.586  1.00  0.00     0.029 C 
HETATM   13  C11 UNL     1      15.407 -13.572  18.541  1.00  0.00     0.197 C 
HETATM   14  N1  UNL     1      14.563 -14.593  18.045  1.00  0.00    -0.393 N 
ATOM     15  H1  UNL     1      14.105 -14.476  17.142  1.00  0.00     0.155 HD
HETATM   16  C13 UNL     1      14.353 -15.756  18.780  1.00  0.00     0.195 C 
HETATM   17  C14 UNL     1      14.774 -17.024  18.111  1.00  0.00     0.246 C 
HETATM   18  O3  UNL     1      14.706 -17.444  16.941  1.00  0.00    -0.271 OA
HETATM   19  N2  UNL     1      15.243 -17.458  19.373  1.00  0.00    -0.316 N 
HETATM   20  C15 UNL     1      15.537 -16.064  19.661  1.00  0.00     0.135 C 
HETATM   21  C16 UNL     1      15.411 -18.651  20.149  1.00  0.00     0.103 C 
HETATM   22  C17 UNL     1      14.056 -19.327  20.286  1.00  0.00     0.063 C 
HETATM   23  C18 UNL     1      16.275 -19.609  19.348  1.00  0.00     0.063 C 
HETATM   24  N3  UNL     1      15.897 -18.440  21.496  1.00  0.00    -0.360 N 
HETATM   25  C19 UNL     1      15.472 -19.436  22.496  1.00  0.00     0.152 C 
HETATM   26  N4  UNL     1      18.346 -19.075  22.565  1.00  0.00    -0.306 N 
ATOM     27  H4  UNL     1      17.772 -19.775  22.096  1.00  0.00     0.171 HD
HETATM   28  C20 UNL     1      19.586 -19.488  23.090  1.00  0.00     0.325 A 
HETATM   29  O4  UNL     1      20.020 -20.662  23.015  1.00  0.00    -0.247 OA
HETATM   30  N5  UNL     1      20.385 -18.531  23.736  1.00  0.00    -0.311 N 
ATOM     31  H5  UNL     1      21.289 -18.794  24.128  1.00  0.00     0.170 HD
ENDROOT
BRANCH  13  32
HETATM   32  C12 UNL     1      15.436 -12.504  17.507  1.00  0.00     0.198 C 
HETATM   33  O1  UNL     1      14.412 -12.066  16.946  1.00  0.00    -0.646 OA
HETATM   34  O2  UNL     1      16.658 -11.973  17.154  1.00  0.00    -0.646 OA
ENDBRANCH  13  32
TORSDOF 1
ENDMDL
