MODEL 1
REMARK VINA RESULT: -6.565563822      0.000      0.000
REMARK  3 active torsions:
REMARK  status: ('A' for Active; 'I' for Inactive)
REMARK    1  A    between atoms: C2_2  and  C3_4 
REMARK    2  A    between atoms: C3_4  and  C4_5 
REMARK    3  A    between atoms: C19_31  and  O5_32 
ROOT
HETATM    1  C3  UNL     1      16.998 -15.011  21.655  1.00  0.00     0.109 C 
HETATM    2  C5  UNL     1      16.913 -16.399  21.168  1.00  0.00     0.115 C 
HETATM    3  S1  UNL     1      15.822 -17.415  22.133  1.00  0.00    -0.147 SA
HETATM    4  C6  UNL     1      15.932 -19.190  21.742  1.00  0.00     0.082 C 
HETATM    5  C7  UNL     1      16.855 -19.699  22.866  1.00  0.00     0.037 C 
HETATM    6  C8  UNL     1      16.610 -19.439  20.467  1.00  0.00     0.037 C 
HETATM    7  C9  UNL     1      14.610 -19.728  21.955  1.00  0.00     0.236 C 
HETATM    8  O2  UNL     1      14.133 -19.382  23.100  1.00  0.00    -0.272 OA
HETATM    9  N1  UNL     1      13.770 -20.538  21.178  1.00  0.00    -0.347 N 
ATOM     10  H1  UNL     1      13.095 -21.084  21.712  1.00  0.00     0.163 HD
HETATM   11  C10 UNL     1      13.700 -20.727  19.763  1.00  0.00     0.172 C 
HETATM   12  C11 UNL     1      12.972 -22.072  19.503  1.00  0.00     0.042 C 
HETATM   13  C12 UNL     1      13.087 -19.700  18.933  1.00  0.00     0.240 C 
HETATM   14  O3  UNL     1      12.413 -20.169  17.940  1.00  0.00    -0.271 OA
HETATM   15  N2  UNL     1      13.072 -18.321  18.968  1.00  0.00    -0.346 N 
ATOM     16  H2  UNL     1      13.489 -17.887  18.144  1.00  0.00     0.163 HD
HETATM   17  C13 UNL     1      12.576 -17.355  19.953  1.00  0.00     0.172 C 
HETATM   18  C14 UNL     1      11.375 -17.846  20.737  1.00  0.00     0.042 C 
HETATM   19  C15 UNL     1      12.204 -16.040  19.391  1.00  0.00     0.241 C 
HETATM   20  O4  UNL     1      11.418 -16.145  18.376  1.00  0.00    -0.271 OA
HETATM   21  N3  UNL     1      12.604 -14.768  19.833  1.00  0.00    -0.343 N 
ATOM     22  H3  UNL     1      11.836 -14.156  20.108  1.00  0.00     0.163 HD
HETATM   23  C16 UNL     1      13.922 -14.175  19.965  1.00  0.00     0.090 C 
HETATM   24  C17 UNL     1      13.698 -12.639  19.720  1.00  0.00     0.047 C 
HETATM   25  C18 UNL     1      14.781 -14.556  18.793  1.00  0.00     0.047 C 
HETATM   26  C19 UNL     1      14.537 -14.341  21.288  1.00  0.00     0.140 C 
HETATM   27  N4  UNL     1      15.832 -14.192  21.760  1.00  0.00    -0.355 N 
ATOM     28  H4  UNL     1      15.980 -13.330  22.285  1.00  0.00     0.162 HD
ENDROOT
BRANCH   1  29
HETATM   29  C2  UNL     1      17.795 -15.065  22.944  1.00  0.00     0.152 C 
HETATM   30  C1  UNL     1      19.106 -15.793  22.842  1.00  0.00     0.093 C 
HETATM   31  O1  UNL     1      17.392 -14.580  23.950  1.00  0.00    -0.296 OA
ENDBRANCH   1  29
BRANCH   1  32
HETATM   32  C4  UNL     1      18.016 -14.290  20.708  1.00  0.00     0.125 C 
HETATM   33 BR1  UNL     1      17.713 -12.399  20.679  1.00  0.00    -0.093 Br
ENDBRANCH   1  32
BRANCH  26  34
HETATM   34  O5  UNL     1      13.664 -14.700  22.186  1.00  0.00    -0.348 OA
ATOM     35  H5  UNL     1      13.534 -15.641  22.197  1.00  0.00     0.219 HD
ENDBRANCH  26  34
TORSDOF 3
ENDMDL
MODEL 2
REMARK VINA RESULT: -6.397916172      2.977      5.934
REMARK  3 active torsions:
REMARK  status: ('A' for Active; 'I' for Inactive)
REMARK    1  A    between atoms: C2_2  and  C3_4 
REMARK    2  A    between atoms: C3_4  and  C4_5 
REMARK    3  A    between atoms: C19_31  and  O5_32 
ROOT
HETATM    1  C3  UNL     1      15.553 -15.099  20.859  1.00  0.00     0.109 C 
HETATM    2  C5  UNL     1      17.000 -15.348  20.989  1.00  0.00     0.115 C 
HETATM    3  S1  UNL     1      17.513 -15.645  22.664  1.00  0.00    -0.147 SA
HETATM    4  C6  UNL     1      19.320 -15.653  22.889  1.00  0.00     0.082 C 
HETATM    5  C7  UNL     1      19.573 -14.229  23.419  1.00  0.00     0.037 C 
HETATM    6  C8  UNL     1      20.039 -15.786  21.619  1.00  0.00     0.037 C 
HETATM    7  C9  UNL     1      19.584 -16.592  23.951  1.00  0.00     0.236 C 
HETATM    8  O2  UNL     1      18.841 -16.371  24.980  1.00  0.00    -0.272 OA
HETATM    9  N1  UNL     1      20.476 -17.667  24.080  1.00  0.00    -0.347 N 
ATOM     10  H1  UNL     1      20.735 -17.891  25.040  1.00  0.00     0.163 HD
HETATM   11  C10 UNL     1      21.083 -18.501  23.091  1.00  0.00     0.172 C 
HETATM   12  C11 UNL     1      22.333 -19.159  23.732  1.00  0.00     0.042 C 
HETATM   13  C12 UNL     1      20.292 -19.540  22.448  1.00  0.00     0.240 C 
HETATM   14  O3  UNL     1      20.952 -20.620  22.205  1.00  0.00    -0.271 OA
HETATM   15  N2  UNL     1      18.980 -19.625  22.027  1.00  0.00    -0.346 N 
ATOM     16  H2  UNL     1      18.883 -19.769  21.021  1.00  0.00     0.163 HD
HETATM   17  C13 UNL     1      17.700 -19.550  22.737  1.00  0.00     0.172 C 
HETATM   18  C14 UNL     1      17.759 -20.074  24.159  1.00  0.00     0.042 C 
HETATM   19  C15 UNL     1      16.587 -20.259  22.073  1.00  0.00     0.241 C 
HETATM   20  O4  UNL     1      16.895 -21.468  21.755  1.00  0.00    -0.271 OA
HETATM   21  N3  UNL     1      15.305 -19.766  21.774  1.00  0.00    -0.343 N 
ATOM     22  H3  UNL     1      14.541 -20.289  22.203  1.00  0.00     0.163 HD
HETATM   23  C16 UNL     1      14.881 -18.642  20.961  1.00  0.00     0.090 C 
HETATM   24  C17 UNL     1      13.481 -19.066  20.388  1.00  0.00     0.047 C 
HETATM   25  C18 UNL     1      15.717 -18.560  19.716  1.00  0.00     0.047 C 
HETATM   26  C19 UNL     1      14.709 -17.385  21.698  1.00  0.00     0.140 C 
HETATM   27  N4  UNL     1      14.595 -16.060  21.307  1.00  0.00    -0.355 N 
ATOM     28  H4  UNL     1      13.641 -15.702  21.345  1.00  0.00     0.162 HD
ENDROOT
BRANCH   1  29
HETATM   29  C2  UNL     1      15.311 -13.717  21.435  1.00  0.00     0.152 C 
HETATM   30  C1  UNL     1      16.311 -12.677  21.014  1.00  0.00     0.093 C 
HETATM   31  O1  UNL     1      14.408 -13.496  22.172  1.00  0.00    -0.296 OA
ENDBRANCH   1  29
BRANCH   1  32
HETATM   32  C4  UNL     1      15.303 -14.833  19.336  1.00  0.00     0.125 C 
HETATM   33 BR1  UNL     1      13.545 -15.389  18.817  1.00  0.00    -0.093 Br
ENDBRANCH   1  32
BRANCH  26  34
HETATM   34  O5  UNL     1      14.653 -17.582  22.986  1.00  0.00    -0.348 OA
ATOM     35  H5  UNL     1      14.396 -16.796  23.453  1.00  0.00     0.219 HD
ENDBRANCH  26  34
TORSDOF 3
ENDMDL
MODEL 3
REMARK VINA RESULT: -6.213832249      2.645      7.150
REMARK  3 active torsions:
REMARK  status: ('A' for Active; 'I' for Inactive)
REMARK    1  A    between atoms: C2_2  and  C3_4 
REMARK    2  A    between atoms: C3_4  and  C4_5 
REMARK    3  A    between atoms: C19_31  and  O5_32 
ROOT
HETATM    1  C3  UNL     1      13.250 -18.200  19.978  1.00  0.00     0.109 C 
HETATM    2  C5  UNL     1      14.058 -17.055  19.521  1.00  0.00     0.115 C 
HETATM    3  S1  UNL     1      14.090 -15.712  20.683  1.00  0.00    -0.147 SA
HETATM    4  C6  UNL     1      14.821 -14.182  20.018  1.00  0.00     0.082 C 
HETATM    5  C7  UNL     1      13.563 -13.379  19.635  1.00  0.00     0.037 C 
HETATM    6  C8  UNL     1      15.585 -14.418  18.791  1.00  0.00     0.037 C 
HETATM    7  C9  UNL     1      15.461 -13.530  21.134  1.00  0.00     0.236 C 
HETATM    8  O2  UNL     1      14.674 -13.440  22.150  1.00  0.00    -0.272 OA
HETATM    9  N1  UNL     1      16.738 -12.982  21.319  1.00  0.00    -0.347 N 
ATOM     10  H1  UNL     1      16.787 -12.249  22.026  1.00  0.00     0.163 HD
HETATM   11  C10 UNL     1      17.983 -13.277  20.681  1.00  0.00     0.172 C 
HETATM   12  C11 UNL     1      18.921 -12.059  20.892  1.00  0.00     0.042 C 
HETATM   13  C12 UNL     1      18.705 -14.487  21.049  1.00  0.00     0.240 C 
HETATM   14  O3  UNL     1      19.986 -14.342  21.065  1.00  0.00    -0.271 OA
HETATM   15  N2  UNL     1      18.322 -15.770  21.380  1.00  0.00    -0.346 N 
ATOM     16  H2  UNL     1      18.671 -16.480  20.735  1.00  0.00     0.163 HD
HETATM   17  C13 UNL     1      17.513 -16.317  22.474  1.00  0.00     0.172 C 
HETATM   18  C14 UNL     1      17.611 -15.522  23.761  1.00  0.00     0.042 C 
HETATM   19  C15 UNL     1      17.817 -17.720  22.821  1.00  0.00     0.241 C 
HETATM   20  O4  UNL     1      19.076 -17.919  23.003  1.00  0.00    -0.271 OA
HETATM   21  N3  UNL     1      16.916 -18.790  22.960  1.00  0.00    -0.343 N 
ATOM     22  H3  UNL     1      16.921 -19.228  23.882  1.00  0.00     0.163 HD
HETATM   23  C16 UNL     1      15.981 -19.379  22.020  1.00  0.00     0.090 C 
HETATM   24  C17 UNL     1      15.892 -20.891  22.436  1.00  0.00     0.047 C 
HETATM   25  C18 UNL     1      16.605 -19.465  20.656  1.00  0.00     0.047 C 
HETATM   26  C19 UNL     1      14.628 -18.812  22.068  1.00  0.00     0.140 C 
HETATM   27  N4  UNL     1      13.543 -18.867  21.208  1.00  0.00    -0.355 N 
ATOM     28  H4  UNL     1      12.810 -19.508  21.512  1.00  0.00     0.162 HD
ENDROOT
BRANCH   1  29
HETATM   29  C2  UNL     1      11.802 -17.760  19.879  1.00  0.00     0.152 C 
HETATM   30  C1  UNL     1      11.401 -17.219  18.535  1.00  0.00     0.093 C 
HETATM   31  O1  UNL     1      11.062 -17.830  20.804  1.00  0.00    -0.296 OA
ENDBRANCH   1  29
BRANCH   1  32
HETATM   32  C4  UNL     1      13.319 -19.256  18.823  1.00  0.00     0.125 C 
HETATM   33 BR1  UNL     1      12.907 -21.013  19.467  1.00  0.00    -0.093 Br
ENDBRANCH   1  32
BRANCH  26  34
HETATM   34  O5  UNL     1      14.430 -18.120  23.155  1.00  0.00    -0.348 OA
ATOM     35  H5  UNL     1      13.625 -18.371  23.592  1.00  0.00     0.219 HD
ENDBRANCH  26  34
TORSDOF 3
ENDMDL
MODEL 4
REMARK VINA RESULT: -6.158680173      2.742      4.861
REMARK  3 active torsions:
REMARK  status: ('A' for Active; 'I' for Inactive)
REMARK    1  A    between atoms: C2_2  and  C3_4 
REMARK    2  A    between atoms: C3_4  and  C4_5 
REMARK    3  A    between atoms: C19_31  and  O5_32 
ROOT
HETATM    1  C3  UNL     1      19.191 -18.527  23.580  1.00  0.00     0.109 C 
HETATM    2  C5  UNL     1      18.289 -18.815  22.451  1.00  0.00     0.115 C 
HETATM    3  S1  UNL     1      16.583 -18.483  22.814  1.00  0.00    -0.147 SA
HETATM    4  C6  UNL     1      15.428 -19.112  21.554  1.00  0.00     0.082 C 
HETATM    5  C7  UNL     1      14.959 -20.433  22.195  1.00  0.00     0.037 C 
HETATM    6  C8  UNL     1      16.102 -19.447  20.297  1.00  0.00     0.037 C 
HETATM    7  C9  UNL     1      14.318 -18.191  21.537  1.00  0.00     0.236 C 
HETATM    8  O2  UNL     1      13.866 -17.964  22.722  1.00  0.00    -0.272 OA
HETATM    9  N1  UNL     1      13.649 -17.517  20.505  1.00  0.00    -0.347 N 
ATOM     10  H1  UNL     1      12.684 -17.265  20.719  1.00  0.00     0.163 HD
HETATM   11  C10 UNL     1      14.091 -17.126  19.203  1.00  0.00     0.172 C 
HETATM   12  C11 UNL     1      12.831 -16.891  18.328  1.00  0.00     0.042 C 
HETATM   13  C12 UNL     1      14.973 -15.976  19.063  1.00  0.00     0.240 C 
HETATM   14  O3  UNL     1      14.739 -15.267  18.013  1.00  0.00    -0.271 OA
HETATM   15  N2  UNL     1      16.021 -15.474  19.808  1.00  0.00    -0.346 N 
ATOM     16  H2  UNL     1      16.908 -15.457  19.304  1.00  0.00     0.163 HD
HETATM   17  C13 UNL     1      16.113 -14.962  21.179  1.00  0.00     0.172 C 
HETATM   18  C14 UNL     1      14.843 -14.292  21.666  1.00  0.00     0.042 C 
HETATM   19  C15 UNL     1      17.211 -13.999  21.402  1.00  0.00     0.241 C 
HETATM   20  O4  UNL     1      17.218 -13.053  20.529  1.00  0.00    -0.271 OA
HETATM   21  N3  UNL     1      18.185 -14.020  22.414  1.00  0.00    -0.343 N 
ATOM     22  H3  UNL     1      18.191 -13.193  23.012  1.00  0.00     0.163 HD
HETATM   23  C16 UNL     1      19.185 -15.014  22.755  1.00  0.00     0.090 C 
HETATM   24  C17 UNL     1      20.382 -14.192  23.355  1.00  0.00     0.047 C 
HETATM   25  C18 UNL     1      19.793 -15.586  21.506  1.00  0.00     0.047 C 
HETATM   26  C19 UNL     1      18.755 -15.993  23.761  1.00  0.00     0.140 C 
HETATM   27  N4  UNL     1      19.251 -17.223  24.163  1.00  0.00    -0.355 N 
ATOM     28  H4  UNL     1      19.756 -17.192  25.049  1.00  0.00     0.162 HD
ENDROOT
BRANCH   1  29
HETATM   29  C2  UNL     1      18.945 -19.617  24.605  1.00  0.00     0.152 C 
HETATM   30  C1  UNL     1      18.647 -19.119  25.991  1.00  0.00     0.093 C 
HETATM   31  O1  UNL     1      19.004 -20.768  24.321  1.00  0.00    -0.296 OA
ENDBRANCH   1  29
BRANCH   1  32
HETATM   32  C4  UNL     1      20.628 -18.904  23.084  1.00  0.00     0.125 C 
HETATM   33 BR1  UNL     1      21.970 -17.938  24.051  1.00  0.00    -0.093 Br
ENDBRANCH   1  32
BRANCH  26  34
HETATM   34  O5  UNL     1      17.686 -15.599  24.394  1.00  0.00    -0.348 OA
ATOM     35  H5  UNL     1      17.851 -15.468  25.320  1.00  0.00     0.219 HD
ENDBRANCH  26  34
TORSDOF 3
ENDMDL
MODEL 5
REMARK VINA RESULT: -6.057282792      2.347      5.150
REMARK  3 active torsions:
REMARK  status: ('A' for Active; 'I' for Inactive)
REMARK    1  A    between atoms: C2_2  and  C3_4 
REMARK    2  A    between atoms: C3_4  and  C4_5 
REMARK    3  A    between atoms: C19_31  and  O5_32 
ROOT
HETATM    1  C3  UNL     1      14.293 -13.555  20.268  1.00  0.00     0.109 C 
HETATM    2  C5  UNL     1      15.701 -13.990  20.311  1.00  0.00     0.115 C 
HETATM    3  S1  UNL     1      16.280 -14.326  21.956  1.00  0.00    -0.147 SA
HETATM    4  C6  UNL     1      18.082 -14.566  22.065  1.00  0.00     0.082 C 
HETATM    5  C7  UNL     1      18.552 -13.179  22.544  1.00  0.00     0.037 C 
HETATM    6  C8  UNL     1      18.692 -14.811  20.756  1.00  0.00     0.037 C 
HETATM    7  C9  UNL     1      18.293 -15.516  23.130  1.00  0.00     0.236 C 
HETATM    8  O2  UNL     1      17.654 -15.184  24.199  1.00  0.00    -0.272 OA
HETATM    9  N1  UNL     1      19.045 -16.695  23.227  1.00  0.00    -0.347 N 
ATOM     10  H1  UNL     1      19.336 -16.937  24.174  1.00  0.00     0.163 HD
HETATM   11  C10 UNL     1      19.472 -17.616  22.221  1.00  0.00     0.172 C 
HETATM   12  C11 UNL     1      20.667 -18.422  22.796  1.00  0.00     0.042 C 
HETATM   13  C12 UNL     1      18.512 -18.553  21.654  1.00  0.00     0.240 C 
HETATM   14  O3  UNL     1      19.010 -19.713  21.395  1.00  0.00    -0.271 OA
HETATM   15  N2  UNL     1      17.176 -18.472  21.320  1.00  0.00    -0.346 N 
ATOM     16  H2  UNL     1      16.994 -18.617  20.326  1.00  0.00     0.163 HD
HETATM   17  C13 UNL     1      15.966 -18.220  22.108  1.00  0.00     0.172 C 
HETATM   18  C14 UNL     1      16.051 -18.726  23.535  1.00  0.00     0.042 C 
HETATM   19  C15 UNL     1      14.729 -18.788  21.533  1.00  0.00     0.241 C 
HETATM   20  O4  UNL     1      14.857 -20.031  21.225  1.00  0.00    -0.271 OA
HETATM   21  N3  UNL     1      13.505 -18.137  21.306  1.00  0.00    -0.343 N 
ATOM     22  H3  UNL     1      12.710 -18.549  21.795  1.00  0.00     0.163 HD
HETATM   23  C16 UNL     1      13.176 -16.979  20.495  1.00  0.00     0.090 C 
HETATM   24  C17 UNL     1      11.698 -17.225  20.022  1.00  0.00     0.047 C 
HETATM   25  C18 UNL     1      13.932 -17.025  19.198  1.00  0.00     0.047 C 
HETATM   26  C19 UNL     1      13.218 -15.699  21.212  1.00  0.00     0.140 C 
HETATM   27  N4  UNL     1      13.250 -14.377  20.798  1.00  0.00    -0.355 N 
ATOM     28  H4  UNL     1      12.355 -13.896  20.888  1.00  0.00     0.162 HD
ENDROOT
BRANCH   1  29
HETATM   29  C2  UNL     1      14.269 -12.145  20.825  1.00  0.00     0.152 C 
HETATM   30  C1  UNL     1      13.219 -11.903  21.873  1.00  0.00     0.093 C 
HETATM   31  O1  UNL     1      15.017 -11.308  20.442  1.00  0.00    -0.296 OA
ENDBRANCH   1  29
BRANCH   1  32
HETATM   32  C4  UNL     1      13.978 -13.283  18.758  1.00  0.00     0.125 C 
HETATM   33 BR1  UNL     1      15.540 -13.511  17.674  1.00  0.00    -0.093 Br
ENDBRANCH   1  32
BRANCH  26  34
HETATM   34  O5  UNL     1      13.223 -15.868  22.505  1.00  0.00    -0.348 OA
ATOM     35  H5  UNL     1      12.893 -15.104  22.963  1.00  0.00     0.219 HD
ENDBRANCH  26  34
TORSDOF 3
ENDMDL
