MODEL 1
REMARK VINA RESULT: -10.063166604      0.000      0.000
REMARK  16 active torsions:
REMARK  status: ('A' for Active; 'I' for Inactive)
REMARK    1  A    between atoms: C3_3  and  C4_4 
REMARK    2  A    between atoms: C8_9  and  C9_10 
REMARK    3  A    between atoms: C9_10  and  O2_11 
REMARK    4  A    between atoms: C10_18  and  C11_19 
REMARK    5  A    between atoms: C11_19  and  N3_20 
REMARK    6  A    between atoms: C11_19  and  C20_48 
REMARK    7  A    between atoms: C12_22  and  C13_23 
REMARK    8  A    between atoms: C12_22  and  C14_26 
REMARK    9  A    between atoms: C14_26  and  O6_27 
REMARK   10  A    between atoms: C14_26  and  N4_29 
REMARK   11  A    between atoms: C17_37  and  N7_38 
REMARK       I    between atoms: N7_38  and  C18_40 
REMARK   12  A    between atoms: C21_51  and  N11_52 
REMARK   13  A    between atoms: N11_52  and  C22_53 
REMARK   14  A    between atoms: C22_53  and  C23_54 
REMARK   15  A    between atoms: C22_53  and  C24_57 
REMARK   16  A    between atoms: C24_57  and  O12_59 
ROOT
HETATM    1  C11 UNL     1      47.866  90.618  37.776  1.00  0.00     0.239 C 
ENDROOT
BRANCH   1   2
HETATM    2  C10 UNL     1      49.100  90.821  36.935  1.00  0.00     0.100 A 
HETATM    3  N2  UNL     1      49.878  89.828  36.578  1.00  0.00    -0.298 N 
HETATM    4  N1  UNL     1      50.990  90.001  35.848  1.00  0.00    -0.297 N 
ATOM      5  H2  UNL     1      49.627  88.884  36.869  1.00  0.00     0.186 HD
HETATM    6  C3  UNL     1      51.361  91.222  35.443  1.00  0.00     0.091 A 
ATOM      7  H1  UNL     1      51.559  89.192  35.599  1.00  0.00     0.187 HD
HETATM    8  C2  UNL     1      50.581  92.326  35.783  1.00  0.00     0.012 A 
HETATM    9  C1  UNL     1      50.921  93.685  35.299  1.00  0.00     0.054 C 
HETATM   10  C21 UNL     1      49.414  92.133  36.554  1.00  0.00     0.142 A 
BRANCH   6  11
HETATM   11  C4  UNL     1      52.615  91.396  34.698  1.00  0.00     0.108 A 
HETATM   12  C5  UNL     1      52.580  92.060  33.483  1.00  0.00     0.094 A 
HETATM   13  C6  UNL     1      53.761  92.243  32.744  1.00  0.00     0.177 A 
HETATM   14  O1  UNL     1      53.749  92.848  31.628  1.00  0.00    -0.288 OA
HETATM   15  C7  UNL     1      54.925  91.749  33.264  1.00  0.00     0.089 A 
HETATM   16  C8  UNL     1      54.875  91.097  34.487  1.00  0.00     0.081 A 
HETATM   17  O3  UNL     1      53.754  90.958  35.125  1.00  0.00    -0.310 OA
BRANCH  16  18
HETATM   18  C9  UNL     1      56.197  90.581  34.996  1.00  0.00     0.229 C 
BRANCH  18  19
HETATM   19  O2  UNL     1      55.881  89.446  35.772  1.00  0.00    -0.394 OA
ATOM     20  H2  UNL     1      56.178  89.651  36.650  1.00  0.00     0.209 HD
ENDBRANCH  18  19
ENDBRANCH  16  18
ENDBRANCH   6  11
BRANCH  10  21
HETATM   21  N11 UNL     1      48.725  93.026  36.929  1.00  0.00    -0.398 NA
BRANCH  21  22
HETATM   22  C22 UNL     1      47.985  94.028  37.344  1.00  0.00     0.189 C 
BRANCH  22  23
HETATM   23  C23 UNL     1      48.656  95.243  37.977  1.00  0.00     0.239 C 
HETATM   24  O10 UNL     1      49.816  95.161  38.453  1.00  0.00    -0.642 OA
HETATM   25  O11 UNL     1      48.021  96.469  38.053  1.00  0.00    -0.642 OA
ENDBRANCH  22  23
BRANCH  22  26
HETATM   26  C24 UNL     1      46.863  94.539  36.427  1.00  0.00     0.185 C 
HETATM   27  C25 UNL     1      45.931  93.470  35.995  1.00  0.00     0.047 C 
BRANCH  26  28
HETATM   28  O12 UNL     1      47.460  95.149  35.358  1.00  0.00    -0.389 OA
ATOM     29  H12 UNL     1      46.886  95.030  34.610  1.00  0.00     0.210 HD
ENDBRANCH  26  28
ENDBRANCH  22  26
ENDBRANCH  21  22
ENDBRANCH  10  21
ENDBRANCH   1   2
BRANCH   1  30
HETATM   30  N3  UNL     1      48.119  89.928  38.924  1.00  0.00    -0.362 N 
HETATM   31  C12 UNL     1      48.783  90.228  40.006  1.00  0.00     0.160 C 
ATOM     32  H3  UNL     1      47.710  88.993  38.940  1.00  0.00     0.161 HD
BRANCH  31  33
HETATM   33  C13 UNL     1      49.433  91.488  40.185  1.00  0.00     0.231 C 
HETATM   34  O4  UNL     1      50.691  91.577  39.951  1.00  0.00    -0.643 OA
HETATM   35  O5  UNL     1      48.791  92.634  40.599  1.00  0.00    -0.643 OA
ENDBRANCH  31  33
BRANCH  31  36
HETATM   36  C14 UNL     1      48.799  89.167  41.003  1.00  0.00     0.199 C 
BRANCH  36  37
HETATM   37  O6  UNL     1      47.663  88.515  41.035  1.00  0.00    -0.343 OA
ATOM     38  H6  UNL     1      47.427  88.176  40.180  1.00  0.00     0.219 HD
ENDBRANCH  36  37
BRANCH  36  39
HETATM   39  N4  UNL     1      49.754  88.735  41.889  1.00  0.00    -0.198 N 
HETATM   40  N5  UNL     1      49.778  88.563  43.189  1.00  0.00    -0.232 N 
HETATM   41  N6  UNL     1      50.910  88.121  43.659  1.00  0.00    -0.280 N 
ATOM     42  H5  UNL     1      48.974  88.760  43.785  1.00  0.00     0.209 HD
HETATM   43  C15 UNL     1      51.746  87.972  42.609  1.00  0.00     0.118 A 
ATOM     44  H6  UNL     1      51.124  87.924  44.637  1.00  0.00     0.188 HD
HETATM   45  C16 UNL     1      53.060  87.545  42.492  1.00  0.00     0.180 A 
HETATM   46  C19 UNL     1      51.030  88.354  41.498  1.00  0.00     0.164 A 
HETATM   47  O7  UNL     1      53.580  87.524  41.289  1.00  0.00    -0.289 OA
HETATM   48  C17 UNL     1      52.901  87.885  40.239  1.00  0.00     0.232 A 
HETATM   49  N10 UNL     1      51.625  88.308  40.295  1.00  0.00    -0.304 N 
ATOM     50  H10 UNL     1      51.124  88.585  39.451  1.00  0.00     0.171 HD
BRANCH  48  51
HETATM   51  N7  UNL     1      53.461  87.843  39.094  1.00  0.00    -0.296 N 
HETATM   52  C18 UNL     1      52.762  87.797  37.855  1.00  0.00     0.189 C 
HETATM   53  N8  UNL     1      53.350  88.197  36.769  1.00  0.00    -0.373 N 
HETATM   54  N9  UNL     1      51.428  87.331  37.727  1.00  0.00    -0.064 NA
ATOM     55  H82 UNL     1      54.309  88.532  36.861  1.00  0.00     0.158 HD
ATOM     56  H81 UNL     1      52.848  88.163  35.881  1.00  0.00     0.158 HD
ATOM     57  H7  UNL     1      54.481  87.842  39.064  1.00  0.00     0.172 HD
ENDBRANCH  48  51
ENDBRANCH  36  39
ENDBRANCH  31  36
ENDBRANCH   1  30
BRANCH   1  58
HETATM   58  C20 UNL     1      46.967  89.787  36.874  1.00  0.00     0.203 C 
HETATM   59  O8  UNL     1      45.980  89.215  37.375  1.00  0.00    -0.646 OA
HETATM   60  O9  UNL     1      47.273  89.697  35.547  1.00  0.00    -0.646 OA
ENDBRANCH   1  58
TORSDOF 16
ENDMDL
MODEL 2
REMARK VINA RESULT: -9.832302819      3.848      8.156
REMARK  16 active torsions:
REMARK  status: ('A' for Active; 'I' for Inactive)
REMARK    1  A    between atoms: C3_3  and  C4_4 
REMARK    2  A    between atoms: C8_9  and  C9_10 
REMARK    3  A    between atoms: C9_10  and  O2_11 
REMARK    4  A    between atoms: C10_18  and  C11_19 
REMARK    5  A    between atoms: C11_19  and  N3_20 
REMARK    6  A    between atoms: C11_19  and  C20_48 
REMARK    7  A    between atoms: C12_22  and  C13_23 
REMARK    8  A    between atoms: C12_22  and  C14_26 
REMARK    9  A    between atoms: C14_26  and  O6_27 
REMARK   10  A    between atoms: C14_26  and  N4_29 
REMARK   11  A    between atoms: C17_37  and  N7_38 
REMARK       I    between atoms: N7_38  and  C18_40 
REMARK   12  A    between atoms: C21_51  and  N11_52 
REMARK   13  A    between atoms: N11_52  and  C22_53 
REMARK   14  A    between atoms: C22_53  and  C23_54 
REMARK   15  A    between atoms: C22_53  and  C24_57 
REMARK   16  A    between atoms: C24_57  and  O12_59 
ROOT
HETATM    1  C11 UNL     1      52.805  88.384  38.353  1.00  0.00     0.239 C 
ENDROOT
BRANCH   1   2
HETATM    2  C10 UNL     1      52.594  86.905  38.162  1.00  0.00     0.100 A 
HETATM    3  N2  UNL     1      51.479  86.305  38.500  1.00  0.00    -0.298 N 
HETATM    4  N1  UNL     1      51.288  84.985  38.354  1.00  0.00    -0.297 N 
ATOM      5  H2  UNL     1      50.723  86.867  38.891  1.00  0.00     0.186 HD
HETATM    6  C3  UNL     1      52.251  84.206  37.845  1.00  0.00     0.091 A 
ATOM      7  H1  UNL     1      50.399  84.571  38.633  1.00  0.00     0.187 HD
HETATM    8  C2  UNL     1      53.464  84.774  37.461  1.00  0.00     0.012 A 
HETATM    9  C1  UNL     1      54.530  83.958  36.832  1.00  0.00     0.054 C 
HETATM   10  C21 UNL     1      53.654  86.164  37.621  1.00  0.00     0.142 A 
BRANCH   6  11
HETATM   11  C4  UNL     1      52.045  82.755  37.752  1.00  0.00     0.108 A 
HETATM   12  C5  UNL     1      51.418  82.102  38.801  1.00  0.00     0.094 A 
HETATM   13  C6  UNL     1      51.205  80.715  38.745  1.00  0.00     0.177 A 
HETATM   14  O1  UNL     1      50.634  80.100  39.696  1.00  0.00    -0.288 OA
HETATM   15  C7  UNL     1      51.635  80.046  37.632  1.00  0.00     0.089 A 
HETATM   16  C8  UNL     1      52.254  80.772  36.625  1.00  0.00     0.081 A 
HETATM   17  O3  UNL     1      52.422  82.054  36.733  1.00  0.00    -0.310 OA
BRANCH  16  18
HETATM   18  C9  UNL     1      52.699  79.967  35.431  1.00  0.00     0.229 C 
BRANCH  18  19
HETATM   19  O2  UNL     1      53.958  80.495  35.074  1.00  0.00    -0.394 OA
ATOM     20  H2  UNL     1      53.834  80.879  34.214  1.00  0.00     0.209 HD
ENDBRANCH  18  19
ENDBRANCH  16  18
ENDBRANCH   6  11
BRANCH  10  21
HETATM   21  N11 UNL     1      54.677  86.716  37.367  1.00  0.00    -0.398 NA
BRANCH  21  22
HETATM   22  C22 UNL     1      55.801  87.341  37.107  1.00  0.00     0.189 C 
BRANCH  22  23
HETATM   23  C23 UNL     1      57.128  86.631  37.357  1.00  0.00     0.239 C 
HETATM   24  O10 UNL     1      57.656  86.640  38.497  1.00  0.00    -0.642 OA
HETATM   25  O11 UNL     1      57.795  85.958  36.351  1.00  0.00    -0.642 OA
ENDBRANCH  22  23
BRANCH  22  26
HETATM   26  C24 UNL     1      55.925  88.105  35.780  1.00  0.00     0.185 C 
HETATM   27  C25 UNL     1      56.651  89.391  35.913  1.00  0.00     0.047 C 
BRANCH  26  28
HETATM   28  O12 UNL     1      54.658  88.291  35.299  1.00  0.00    -0.389 OA
ATOM     29  H12 UNL     1      54.489  89.225  35.305  1.00  0.00     0.210 HD
ENDBRANCH  26  28
ENDBRANCH  22  26
ENDBRANCH  21  22
ENDBRANCH  10  21
ENDBRANCH   1   2
BRANCH   1  30
HETATM   30  N3  UNL     1      52.599  88.783  39.640  1.00  0.00    -0.362 N 
HETATM   31  C12 UNL     1      53.377  88.823  40.687  1.00  0.00     0.160 C 
ATOM     32  H3  UNL     1      51.652  89.115  39.820  1.00  0.00     0.161 HD
BRANCH  31  33
HETATM   33  C13 UNL     1      54.742  88.402  40.647  1.00  0.00     0.231 C 
HETATM   34  O4  UNL     1      55.663  89.290  40.545  1.00  0.00    -0.643 OA
HETATM   35  O5  UNL     1      55.146  87.087  40.709  1.00  0.00    -0.643 OA
ENDBRANCH  31  33
BRANCH  31  36
HETATM   36  C14 UNL     1      52.728  89.331  41.886  1.00  0.00     0.199 C 
BRANCH  36  37
HETATM   37  O6  UNL     1      53.281  90.442  42.304  1.00  0.00    -0.343 OA
ATOM     38  H6  UNL     1      53.088  90.608  43.220  1.00  0.00     0.219 HD
ENDBRANCH  36  37
BRANCH  36  39
HETATM   39  N4  UNL     1      51.673  88.876  42.639  1.00  0.00    -0.198 N 
HETATM   40  N5  UNL     1      51.571  88.344  43.833  1.00  0.00    -0.232 N 
HETATM   41  N6  UNL     1      50.356  88.043  44.193  1.00  0.00    -0.280 N 
ATOM     42  H5  UNL     1      52.379  88.179  44.434  1.00  0.00     0.209 HD
HETATM   43  C15 UNL     1      49.541  88.389  43.172  1.00  0.00     0.118 A 
ATOM     44  H6  UNL     1      50.072  87.626  45.080  1.00  0.00     0.188 HD
HETATM   45  C16 UNL     1      48.171  88.307  42.980  1.00  0.00     0.180 A 
HETATM   46  C19 UNL     1      50.359  88.910  42.197  1.00  0.00     0.164 A 
HETATM   47  O7  UNL     1      47.698  88.745  41.838  1.00  0.00    -0.289 OA
HETATM   48  C17 UNL     1      48.473  89.238  40.915  1.00  0.00     0.232 A 
HETATM   49  N10 UNL     1      49.808  89.340  41.050  1.00  0.00    -0.304 N 
ATOM     50  H10 UNL     1      50.384  89.731  40.304  1.00  0.00     0.171 HD
BRANCH  48  51
HETATM   51  N7  UNL     1      47.955  89.648  39.824  1.00  0.00    -0.296 N 
HETATM   52  C18 UNL     1      48.053  90.980  39.335  1.00  0.00     0.189 C 
HETATM   53  N8  UNL     1      47.905  91.213  38.066  1.00  0.00    -0.373 N 
HETATM   54  N9  UNL     1      48.311  92.101  40.165  1.00  0.00    -0.064 NA
ATOM     55  H82 UNL     1      47.719  90.407  37.469  1.00  0.00     0.158 HD
ATOM     56  H81 UNL     1      47.975  92.168  37.716  1.00  0.00     0.158 HD
ATOM     57  H7  UNL     1      47.433  88.973  39.264  1.00  0.00     0.172 HD
ENDBRANCH  48  51
ENDBRANCH  36  39
ENDBRANCH  31  36
ENDBRANCH   1  30
BRANCH   1  58
HETATM   58  C20 UNL     1      51.745  89.002  37.456  1.00  0.00     0.203 C 
HETATM   59  O8  UNL     1      52.040  89.274  36.276  1.00  0.00    -0.646 OA
HETATM   60  O9  UNL     1      50.505  89.240  37.976  1.00  0.00    -0.646 OA
ENDBRANCH   1  58
TORSDOF 16
ENDMDL
MODEL 3
REMARK VINA RESULT: -9.762278825      2.647      8.321
REMARK  16 active torsions:
REMARK  status: ('A' for Active; 'I' for Inactive)
REMARK    1  A    between atoms: C3_3  and  C4_4 
REMARK    2  A    between atoms: C8_9  and  C9_10 
REMARK    3  A    between atoms: C9_10  and  O2_11 
REMARK    4  A    between atoms: C10_18  and  C11_19 
REMARK    5  A    between atoms: C11_19  and  N3_20 
REMARK    6  A    between atoms: C11_19  and  C20_48 
REMARK    7  A    between atoms: C12_22  and  C13_23 
REMARK    8  A    between atoms: C12_22  and  C14_26 
REMARK    9  A    between atoms: C14_26  and  O6_27 
REMARK   10  A    between atoms: C14_26  and  N4_29 
REMARK   11  A    between atoms: C17_37  and  N7_38 
REMARK       I    between atoms: N7_38  and  C18_40 
REMARK   12  A    between atoms: C21_51  and  N11_52 
REMARK   13  A    between atoms: N11_52  and  C22_53 
REMARK   14  A    between atoms: C22_53  and  C23_54 
REMARK   15  A    between atoms: C22_53  and  C24_57 
REMARK   16  A    between atoms: C24_57  and  O12_59 
ROOT
HETATM    1  C11 UNL     1      54.314  87.083  38.348  1.00  0.00     0.239 C 
ENDROOT
BRANCH   1   2
HETATM    2  C10 UNL     1      52.998  87.736  38.015  1.00  0.00     0.100 A 
HETATM    3  N2  UNL     1      52.745  88.243  36.833  1.00  0.00    -0.298 N 
HETATM    4  N1  UNL     1      51.585  88.845  36.533  1.00  0.00    -0.297 N 
ATOM      5  H2  UNL     1      53.462  88.176  36.111  1.00  0.00     0.186 HD
HETATM    6  C3  UNL     1      50.614  88.958  37.447  1.00  0.00     0.091 A 
ATOM      7  H1  UNL     1      51.441  89.222  35.595  1.00  0.00     0.187 HD
HETATM    8  C2  UNL     1      50.810  88.440  38.726  1.00  0.00     0.012 A 
HETATM    9  C1  UNL     1      49.737  88.485  39.748  1.00  0.00     0.054 C 
HETATM   10  C21 UNL     1      52.037  87.810  39.033  1.00  0.00     0.142 A 
BRANCH   6  11
HETATM   11  C4  UNL     1      49.376  89.677  37.116  1.00  0.00     0.108 A 
HETATM   12  C5  UNL     1      49.325  91.045  37.325  1.00  0.00     0.094 A 
HETATM   13  C6  UNL     1      48.156  91.763  37.020  1.00  0.00     0.177 A 
HETATM   14  O1  UNL     1      48.090  93.017  37.206  1.00  0.00    -0.288 OA
HETATM   15  C7  UNL     1      47.091  91.068  36.518  1.00  0.00     0.089 A 
HETATM   16  C8  UNL     1      47.223  89.700  36.337  1.00  0.00     0.081 A 
HETATM   17  O3  UNL     1      48.328  89.090  36.637  1.00  0.00    -0.310 OA
BRANCH  16  18
HETATM   18  C9  UNL     1      46.008  89.004  35.780  1.00  0.00     0.229 C 
BRANCH  18  19
HETATM   19  O2  UNL     1      46.478  88.256  34.679  1.00  0.00    -0.394 OA
ATOM     20  H2  UNL     1      46.006  87.433  34.714  1.00  0.00     0.209 HD
ENDBRANCH  18  19
ENDBRANCH  16  18
ENDBRANCH   6  11
BRANCH  10  21
HETATM   21  N11 UNL     1      52.302  87.390  40.113  1.00  0.00    -0.398 NA
BRANCH  21  22
HETATM   22  C22 UNL     1      52.573  86.913  41.306  1.00  0.00     0.189 C 
BRANCH  22  23
HETATM   23  C23 UNL     1      53.763  85.974  41.483  1.00  0.00     0.239 C 
HETATM   24  O10 UNL     1      54.777  86.338  42.131  1.00  0.00    -0.642 OA
HETATM   25  O11 UNL     1      53.774  84.702  40.944  1.00  0.00    -0.642 OA
ENDBRANCH  22  23
BRANCH  22  26
HETATM   26  C24 UNL     1      52.556  87.876  42.502  1.00  0.00     0.185 C 
HETATM   27  C25 UNL     1      51.186  88.242  42.935  1.00  0.00     0.047 C 
BRANCH  26  28
HETATM   28  O12 UNL     1      53.281  88.979  42.145  1.00  0.00    -0.389 OA
ATOM     29  H12 UNL     1      53.849  89.191  42.876  1.00  0.00     0.210 HD
ENDBRANCH  26  28
ENDBRANCH  22  26
ENDBRANCH  21  22
ENDBRANCH  10  21
ENDBRANCH   1   2
BRANCH   1  30
HETATM   30  N3  UNL     1      55.385  87.796  37.898  1.00  0.00    -0.362 N 
HETATM   31  C12 UNL     1      56.332  88.449  38.512  1.00  0.00     0.160 C 
ATOM     32  H3  UNL     1      55.460  87.825  36.881  1.00  0.00     0.161 HD
BRANCH  31  33
HETATM   33  C13 UNL     1      56.410  88.530  39.937  1.00  0.00     0.231 C 
HETATM   34  O4  UNL     1      57.326  87.871  40.548  1.00  0.00    -0.643 OA
HETATM   35  O5  UNL     1      55.555  89.279  40.715  1.00  0.00    -0.643 OA
ENDBRANCH  31  33
BRANCH  31  36
HETATM   36  C14 UNL     1      57.291  89.079  37.618  1.00  0.00     0.199 C 
BRANCH  36  37
HETATM   37  O6  UNL     1      58.081  89.906  38.258  1.00  0.00    -0.343 OA
ATOM     38  H6  UNL     1      57.772  90.802  38.201  1.00  0.00     0.219 HD
ENDBRANCH  36  37
BRANCH  36  39
HETATM   39  N4  UNL     1      57.516  88.973  36.267  1.00  0.00    -0.198 N 
HETATM   40  N5  UNL     1      58.272  88.196  35.529  1.00  0.00    -0.232 N 
HETATM   41  N6  UNL     1      58.195  88.420  34.248  1.00  0.00    -0.280 N 
ATOM     42  H5  UNL     1      58.872  87.473  35.926  1.00  0.00     0.209 HD
HETATM   43  C15 UNL     1      57.319  89.433  34.073  1.00  0.00     0.118 A 
ATOM     44  H6  UNL     1      58.701  87.923  33.515  1.00  0.00     0.188 HD
HETATM   45  C16 UNL     1      56.844  90.095  32.951  1.00  0.00     0.180 A 
HETATM   46  C19 UNL     1      56.891  89.784  35.331  1.00  0.00     0.164 A 
HETATM   47  O7  UNL     1      55.978  91.060  33.146  1.00  0.00    -0.289 OA
HETATM   48  C17 UNL     1      55.573  91.391  34.338  1.00  0.00     0.232 A 
HETATM   49  N10 UNL     1      56.002  90.782  35.459  1.00  0.00    -0.304 N 
ATOM     50  H10 UNL     1      55.663  91.070  36.377  1.00  0.00     0.171 HD
BRANCH  48  51
HETATM   51  N7  UNL     1      54.728  92.339  34.465  1.00  0.00    -0.296 N 
HETATM   52  C18 UNL     1      53.384  92.169  34.902  1.00  0.00     0.189 C 
HETATM   53  N8  UNL     1      52.745  93.172  35.422  1.00  0.00    -0.373 N 
HETATM   54  N9  UNL     1      52.680  90.941  34.805  1.00  0.00    -0.064 NA
ATOM     55  H82 UNL     1      53.252  94.054  35.492  1.00  0.00     0.158 HD
ATOM     56  H81 UNL     1      51.782  93.050  35.735  1.00  0.00     0.158 HD
ATOM     57  H7  UNL     1      55.037  93.284  34.237  1.00  0.00     0.172 HD
ENDBRANCH  48  51
ENDBRANCH  36  39
ENDBRANCH  31  36
ENDBRANCH   1  30
BRANCH   1  58
HETATM   58  C20 UNL     1      54.240  85.759  37.606  1.00  0.00     0.203 C 
HETATM   59  O8  UNL     1      55.256  85.344  37.015  1.00  0.00    -0.646 OA
HETATM   60  O9  UNL     1      53.061  85.069  37.610  1.00  0.00    -0.646 OA
ENDBRANCH   1  58
TORSDOF 16
ENDMDL
MODEL 4
REMARK VINA RESULT: -9.702309886      1.283      1.516
REMARK  16 active torsions:
REMARK  status: ('A' for Active; 'I' for Inactive)
REMARK    1  A    between atoms: C3_3  and  C4_4 
REMARK    2  A    between atoms: C8_9  and  C9_10 
REMARK    3  A    between atoms: C9_10  and  O2_11 
REMARK    4  A    between atoms: C10_18  and  C11_19 
REMARK    5  A    between atoms: C11_19  and  N3_20 
REMARK    6  A    between atoms: C11_19  and  C20_48 
REMARK    7  A    between atoms: C12_22  and  C13_23 
REMARK    8  A    between atoms: C12_22  and  C14_26 
REMARK    9  A    between atoms: C14_26  and  O6_27 
REMARK   10  A    between atoms: C14_26  and  N4_29 
REMARK   11  A    between atoms: C17_37  and  N7_38 
REMARK       I    between atoms: N7_38  and  C18_40 
REMARK   12  A    between atoms: C21_51  and  N11_52 
REMARK   13  A    between atoms: N11_52  and  C22_53 
REMARK   14  A    between atoms: C22_53  and  C23_54 
REMARK   15  A    between atoms: C22_53  and  C24_57 
REMARK   16  A    between atoms: C24_57  and  O12_59 
ROOT
HETATM    1  C11 UNL     1      48.165  90.899  36.968  1.00  0.00     0.239 C 
ENDROOT
BRANCH   1   2
HETATM    2  C10 UNL     1      49.523  90.823  36.322  1.00  0.00     0.100 A 
HETATM    3  N2  UNL     1      50.252  89.734  36.345  1.00  0.00    -0.298 N 
HETATM    4  N1  UNL     1      51.471  89.662  35.792  1.00  0.00    -0.297 N 
ATOM      5  H2  UNL     1      49.875  88.905  36.805  1.00  0.00     0.186 HD
HETATM    6  C3  UNL     1      52.009  90.723  35.178  1.00  0.00     0.091 A 
ATOM      7  H1  UNL     1      51.995  88.787  35.839  1.00  0.00     0.187 HD
HETATM    8  C2  UNL     1      51.292  91.916  35.112  1.00  0.00     0.012 A 
HETATM    9  C1  UNL     1      51.823  93.093  34.384  1.00  0.00     0.054 C 
HETATM   10  C21 UNL     1      50.010  91.981  35.700  1.00  0.00     0.142 A 
BRANCH   6  11
HETATM   11  C4  UNL     1      53.371  90.641  34.633  1.00  0.00     0.108 A 
HETATM   12  C5  UNL     1      53.541  90.663  33.259  1.00  0.00     0.094 A 
HETATM   13  C6  UNL     1      54.829  90.586  32.704  1.00  0.00     0.177 A 
HETATM   14  O1  UNL     1      55.004  90.603  31.447  1.00  0.00    -0.288 OA
HETATM   15  C7  UNL     1      55.890  90.491  33.562  1.00  0.00     0.089 A 
HETATM   16  C8  UNL     1      55.636  90.476  34.925  1.00  0.00     0.081 A 
HETATM   17  O3  UNL     1      54.423  90.550  35.379  1.00  0.00    -0.310 OA
BRANCH  16  18
HETATM   18  C9  UNL     1      56.855  90.370  35.805  1.00  0.00     0.229 C 
BRANCH  18  19
HETATM   19  O2  UNL     1      56.623  89.248  36.630  1.00  0.00    -0.394 OA
ATOM     20  H2  UNL     1      57.187  89.369  37.384  1.00  0.00     0.209 HD
ENDBRANCH  18  19
ENDBRANCH  16  18
ENDBRANCH   6  11
BRANCH  10  21
HETATM   21  N11 UNL     1      49.357  92.975  35.733  1.00  0.00    -0.398 NA
BRANCH  21  22
HETATM   22  C22 UNL     1      48.622  94.061  35.787  1.00  0.00     0.189 C 
BRANCH  22  23
HETATM   23  C23 UNL     1      49.030  95.195  36.723  1.00  0.00     0.239 C 
HETATM   24  O10 UNL     1      50.214  95.295  37.133  1.00  0.00    -0.642 OA
HETATM   25  O11 UNL     1      48.123  96.145  37.155  1.00  0.00    -0.642 OA
ENDBRANCH  22  23
BRANCH  22  26
HETATM   26  C24 UNL     1      48.148  94.692  34.470  1.00  0.00     0.185 C 
HETATM   27  C25 UNL     1      49.118  95.662  33.907  1.00  0.00     0.047 C 
BRANCH  26  28
HETATM   28  O12 UNL     1      46.936  95.276  34.712  1.00  0.00    -0.389 OA
ATOM     29  H12 UNL     1      46.909  96.085  34.216  1.00  0.00     0.210 HD
ENDBRANCH  26  28
ENDBRANCH  22  26
ENDBRANCH  21  22
ENDBRANCH  10  21
ENDBRANCH   1   2
BRANCH   1  30
HETATM   30  N3  UNL     1      48.137  90.327  38.206  1.00  0.00    -0.362 N 
HETATM   31  C12 UNL     1      48.713  90.637  39.335  1.00  0.00     0.160 C 
ATOM     32  H3  UNL     1      47.552  89.493  38.259  1.00  0.00     0.161 HD
BRANCH  31  33
HETATM   33  C13 UNL     1      49.573  91.771  39.473  1.00  0.00     0.231 C 
HETATM   34  O4  UNL     1      50.840  91.584  39.544  1.00  0.00    -0.643 OA
HETATM   35  O5  UNL     1      49.128  93.073  39.537  1.00  0.00    -0.643 OA
ENDBRANCH  31  33
BRANCH  31  36
HETATM   36  C14 UNL     1      48.400  89.729  40.427  1.00  0.00     0.199 C 
BRANCH  36  37
HETATM   37  O6  UNL     1      47.124  89.748  40.723  1.00  0.00    -0.343 OA
ATOM     38  H6  UNL     1      46.914  89.128  41.413  1.00  0.00     0.219 HD
ENDBRANCH  36  37
BRANCH  36  39
HETATM   39  N4  UNL     1      49.169  88.879  41.183  1.00  0.00    -0.198 N 
HETATM   40  N5  UNL     1      49.106  88.452  42.421  1.00  0.00    -0.232 N 
HETATM   41  N6  UNL     1      50.054  87.627  42.762  1.00  0.00    -0.280 N 
ATOM     42  H5  UNL     1      48.371  88.743  43.067  1.00  0.00     0.209 HD
HETATM   43  C15 UNL     1      50.847  87.463  41.681  1.00  0.00     0.118 A 
ATOM     44  H6  UNL     1      50.176  87.188  43.675  1.00  0.00     0.188 HD
HETATM   45  C16 UNL     1      51.992  86.718  41.446  1.00  0.00     0.180 A 
HETATM   46  C19 UNL     1      50.300  88.243  40.689  1.00  0.00     0.164 A 
HETATM   47  O7  UNL     1      52.521  86.792  40.249  1.00  0.00    -0.289 OA
HETATM   48  C17 UNL     1      52.001  87.530  39.311  1.00  0.00     0.232 A 
HETATM   49  N10 UNL     1      50.893  88.273  39.485  1.00  0.00    -0.304 N 
ATOM     50  H10 UNL     1      50.515  88.841  38.727  1.00  0.00     0.171 HD
BRANCH  48  51
HETATM   51  N7  UNL     1      52.562  87.562  38.165  1.00  0.00    -0.296 N 
HETATM   52  C18 UNL     1      53.969  87.537  37.954  1.00  0.00     0.189 C 
HETATM   53  N8  UNL     1      54.442  87.131  36.816  1.00  0.00    -0.373 N 
HETATM   54  N9  UNL     1      54.913  87.937  38.934  1.00  0.00    -0.064 NA
ATOM     55  H82 UNL     1      53.763  86.843  36.111  1.00  0.00     0.158 HD
ATOM     56  H81 UNL     1      55.451  87.113  36.665  1.00  0.00     0.158 HD
ATOM     57  H7  UNL     1      51.959  87.609  37.343  1.00  0.00     0.172 HD
ENDBRANCH  48  51
ENDBRANCH  36  39
ENDBRANCH  31  36
ENDBRANCH   1  30
BRANCH   1  58
HETATM   58  C20 UNL     1      47.287  90.098  36.022  1.00  0.00     0.203 C 
HETATM   59  O8  UNL     1      47.221  88.862  36.165  1.00  0.00    -0.646 OA
HETATM   60  O9  UNL     1      46.600  90.760  35.045  1.00  0.00    -0.646 OA
ENDBRANCH   1  58
TORSDOF 16
ENDMDL
MODEL 5
REMARK VINA RESULT: -9.629399224      1.296      1.873
REMARK  16 active torsions:
REMARK  status: ('A' for Active; 'I' for Inactive)
REMARK    1  A    between atoms: C3_3  and  C4_4 
REMARK    2  A    between atoms: C8_9  and  C9_10 
REMARK    3  A    between atoms: C9_10  and  O2_11 
REMARK    4  A    between atoms: C10_18  and  C11_19 
REMARK    5  A    between atoms: C11_19  and  N3_20 
REMARK    6  A    between atoms: C11_19  and  C20_48 
REMARK    7  A    between atoms: C12_22  and  C13_23 
REMARK    8  A    between atoms: C12_22  and  C14_26 
REMARK    9  A    between atoms: C14_26  and  O6_27 
REMARK   10  A    between atoms: C14_26  and  N4_29 
REMARK   11  A    between atoms: C17_37  and  N7_38 
REMARK       I    between atoms: N7_38  and  C18_40 
REMARK   12  A    between atoms: C21_51  and  N11_52 
REMARK   13  A    between atoms: N11_52  and  C22_53 
REMARK   14  A    between atoms: C22_53  and  C23_54 
REMARK   15  A    between atoms: C22_53  and  C24_57 
REMARK   16  A    between atoms: C24_57  and  O12_59 
ROOT
HETATM    1  C11 UNL     1      48.316  90.856  37.011  1.00  0.00     0.239 C 
ENDROOT
BRANCH   1   2
HETATM    2  C10 UNL     1      49.680  90.752  36.380  1.00  0.00     0.100 A 
HETATM    3  N2  UNL     1      50.336  89.620  36.308  1.00  0.00    -0.298 N 
HETATM    4  N1  UNL     1      51.560  89.520  35.768  1.00  0.00    -0.297 N 
ATOM      5  H2  UNL     1      49.897  88.778  36.680  1.00  0.00     0.186 HD
HETATM    6  C3  UNL     1      52.178  90.597  35.268  1.00  0.00     0.091 A 
ATOM      7  H1  UNL     1      52.024  88.612  35.738  1.00  0.00     0.187 HD
HETATM    8  C2  UNL     1      51.541  91.836  35.307  1.00  0.00     0.012 A 
HETATM    9  C1  UNL     1      52.162  93.040  34.704  1.00  0.00     0.054 C 
HETATM   10  C21 UNL     1      50.254  91.929  35.881  1.00  0.00     0.142 A 
BRANCH   6  11
HETATM   11  C4  UNL     1      53.543  90.477  34.737  1.00  0.00     0.108 A 
HETATM   12  C5  UNL     1      53.732  90.543  33.367  1.00  0.00     0.094 A 
HETATM   13  C6  UNL     1      55.024  90.432  32.826  1.00  0.00     0.177 A 
HETATM   14  O1  UNL     1      55.217  90.488  31.573  1.00  0.00    -0.288 OA
HETATM   15  C7  UNL     1      56.068  90.260  33.692  1.00  0.00     0.089 A 
HETATM   16  C8  UNL     1      55.794  90.205  35.050  1.00  0.00     0.081 A 
HETATM   17  O3  UNL     1      54.579  90.314  35.492  1.00  0.00    -0.310 OA
BRANCH  16  18
HETATM   18  C9  UNL     1      56.995  90.014  35.942  1.00  0.00     0.229 C 
BRANCH  18  19
HETATM   19  O2  UNL     1      56.893  88.693  36.427  1.00  0.00    -0.394 OA
ATOM     20  H2  UNL     1      57.458  88.661  37.190  1.00  0.00     0.209 HD
ENDBRANCH  18  19
ENDBRANCH  16  18
ENDBRANCH   6  11
BRANCH  10  21
HETATM   21  N11 UNL     1      49.666  92.956  35.999  1.00  0.00    -0.398 NA
BRANCH  21  22
HETATM   22  C22 UNL     1      49.028  94.099  36.109  1.00  0.00     0.189 C 
BRANCH  22  23
HETATM   23  C23 UNL     1      47.596  94.209  35.593  1.00  0.00     0.239 C 
HETATM   24  O10 UNL     1      47.360  94.656  34.443  1.00  0.00    -0.642 OA
HETATM   25  O11 UNL     1      46.513  93.826  36.363  1.00  0.00    -0.642 OA
ENDBRANCH  22  23
BRANCH  22  26
HETATM   26  C24 UNL     1      49.102  94.854  37.444  1.00  0.00     0.185 C 
HETATM   27  C25 UNL     1      48.813  96.302  37.310  1.00  0.00     0.047 C 
BRANCH  26  28
HETATM   28  O12 UNL     1      50.346  94.636  37.965  1.00  0.00    -0.389 OA
ATOM     29  H12 UNL     1      50.481  93.696  37.988  1.00  0.00     0.210 HD
ENDBRANCH  26  28
ENDBRANCH  22  26
ENDBRANCH  21  22
ENDBRANCH  10  21
ENDBRANCH   1   2
BRANCH   1  30
HETATM   30  N3  UNL     1      48.255  90.258  38.235  1.00  0.00    -0.362 N 
HETATM   31  C12 UNL     1      48.710  90.600  39.409  1.00  0.00     0.160 C 
ATOM     32  H3  UNL     1      47.757  89.368  38.232  1.00  0.00     0.161 HD
BRANCH  31  33
HETATM   33  C13 UNL     1      49.436  91.811  39.628  1.00  0.00     0.231 C 
HETATM   34  O4  UNL     1      50.685  91.848  39.337  1.00  0.00    -0.643 OA
HETATM   35  O5  UNL     1      48.879  92.962  40.141  1.00  0.00    -0.643 OA
ENDBRANCH  31  33
BRANCH  31  36
HETATM   36  C14 UNL     1      48.410  89.641  40.461  1.00  0.00     0.199 C 
BRANCH  36  37
HETATM   37  O6  UNL     1      47.129  89.598  40.728  1.00  0.00    -0.343 OA
ATOM     38  H6  UNL     1      46.904  90.154  41.465  1.00  0.00     0.219 HD
ENDBRANCH  36  37
BRANCH  36  39
HETATM   39  N4  UNL     1      49.198  88.796  41.205  1.00  0.00    -0.198 N 
HETATM   40  N5  UNL     1      49.156  88.368  42.443  1.00  0.00    -0.232 N 
HETATM   41  N6  UNL     1      50.116  87.551  42.770  1.00  0.00    -0.280 N 
ATOM     42  H5  UNL     1      48.429  88.654  43.100  1.00  0.00     0.209 HD
HETATM   43  C15 UNL     1      50.893  87.393  41.676  1.00  0.00     0.118 A 
ATOM     44  H6  UNL     1      50.254  87.111  43.680  1.00  0.00     0.188 HD
HETATM   45  C16 UNL     1      52.040  86.656  41.424  1.00  0.00     0.180 A 
HETATM   46  C19 UNL     1      50.325  88.169  40.694  1.00  0.00     0.164 A 
HETATM   47  O7  UNL     1      52.550  86.735  40.219  1.00  0.00    -0.289 OA
HETATM   48  C17 UNL     1      52.011  87.470  39.289  1.00  0.00     0.232 A 
HETATM   49  N10 UNL     1      50.900  88.204  39.481  1.00  0.00    -0.304 N 
ATOM     50  H10 UNL     1      50.507  88.770  38.729  1.00  0.00     0.171 HD
BRANCH  48  51
HETATM   51  N7  UNL     1      52.554  87.507  38.135  1.00  0.00    -0.296 N 
HETATM   52  C18 UNL     1      53.957  87.565  37.905  1.00  0.00     0.189 C 
HETATM   53  N8  UNL     1      54.441  87.159  36.771  1.00  0.00    -0.373 N 
HETATM   54  N9  UNL     1      54.886  88.050  38.861  1.00  0.00    -0.064 NA
ATOM     55  H82 UNL     1      53.773  86.811  36.084  1.00  0.00     0.158 HD
ATOM     56  H81 UNL     1      55.447  87.201  36.606  1.00  0.00     0.158 HD
ATOM     57  H7  UNL     1      51.940  87.494  37.321  1.00  0.00     0.172 HD
ENDBRANCH  48  51
ENDBRANCH  36  39
ENDBRANCH  31  36
ENDBRANCH   1  30
BRANCH   1  58
HETATM   58  C20 UNL     1      47.426  90.104  36.036  1.00  0.00     0.203 C 
HETATM   59  O8  UNL     1      47.231  88.887  36.218  1.00  0.00    -0.646 OA
HETATM   60  O9  UNL     1      46.872  90.788  34.992  1.00  0.00    -0.646 OA
ENDBRANCH   1  58
TORSDOF 16
ENDMDL
