MODEL 1
REMARK VINA RESULT: -10.390485112      0.000      0.000
REMARK  14 active torsions:
REMARK  status: ('A' for Active; 'I' for Inactive)
REMARK       I    between atoms: C2_2  and  N1_4 
REMARK    1  A    between atoms: C3_6  and  C4_7 
REMARK       I    between atoms: N2_13  and  C8_15 
REMARK    2  A    between atoms: C8_15  and  C9_17 
REMARK    3  A    between atoms: C9_17  and  C22_57 
REMARK    4  A    between atoms: N3_18  and  O3_20 
REMARK    5  A    between atoms: O3_20  and  C10_21 
REMARK    6  A    between atoms: C10_21  and  C11_22 
REMARK    7  A    between atoms: C11_22  and  C15_35 
REMARK    8  A    between atoms: N4_23  and  O4_25 
REMARK    9  A    between atoms: O4_25  and  C12_26 
REMARK   10  A    between atoms: C12_26  and  N5_28 
REMARK   11  A    between atoms: C12_26  and  C14_32 
REMARK   12  A    between atoms: C17_39  and  N7_40 
REMARK   13  A    between atoms: N7_40  and  C18_42 
REMARK   14  A    between atoms: C21_48  and  N10_49 
ROOT
HETATM    1  C11 UNL     1      50.441  88.808  38.005  1.00  0.00     0.076 C 
HETATM    2  N4  UNL     1      49.217  88.743  38.344  1.00  0.00    -0.264 N 
ATOM      3  H4  UNL     1      48.819  87.851  38.639  1.00  0.00     0.194 HD
ENDROOT
BRANCH   1   4
HETATM    4  C10 UNL     1      51.031  90.085  37.579  1.00  0.00     0.261 C 
BRANCH   4   5
HETATM    5  O3  UNL     1      50.946  90.285  36.168  1.00  0.00    -0.274 OA
BRANCH   5   6
HETATM    6  N3  UNL     1      52.104  90.450  35.458  1.00  0.00    -0.255 N 
HETATM    7  C9  UNL     1      52.196  91.390  34.593  1.00  0.00     0.199 C 
ATOM      8  H3  UNL     1      52.894  89.825  35.617  1.00  0.00     0.195 HD
BRANCH   7   9
HETATM    9  C8  UNL     1      51.073  92.274  34.371  1.00  0.00     0.281 C 
HETATM   10  N2  UNL     1      50.202  92.676  35.419  1.00  0.00    -0.327 N 
HETATM   11  C7  UNL     1      50.331  93.847  35.990  1.00  0.00     0.010 C 
ATOM     12  H2  UNL     1      49.465  92.043  35.730  1.00  0.00     0.168 HD
HETATM   13  C4  UNL     1      49.370  94.140  37.058  1.00  0.00     0.081 C 
HETATM   14  C6  UNL     1      51.401  94.727  35.515  1.00  0.00     0.139 C 
HETATM   15  C5  UNL     1      49.535  95.443  37.753  1.00  0.00     0.102 C 
HETATM   16  S1  UNL     1      49.367  96.854  36.589  1.00  0.00    -0.096 SA
HETATM   17  S2  UNL     1      50.589  96.263  34.911  1.00  0.00    -0.092 SA
HETATM   18  O2  UNL     1      50.821  92.727  33.226  1.00  0.00    -0.265 OA
BRANCH  13  19
HETATM   19  C3  UNL     1      47.971  94.086  36.525  1.00  0.00     0.075 C 
HETATM   20  N1  UNL     1      47.539  92.950  36.127  1.00  0.00    -0.340 N 
HETATM   21  C2  UNL     1      46.252  92.716  35.598  1.00  0.00     0.217 C 
ATOM     22  H1  UNL     1      48.173  92.154  36.198  1.00  0.00     0.167 HD
HETATM   23  C1  UNL     1      45.048  93.461  36.037  1.00  0.00     0.117 C 
HETATM   24  O1  UNL     1      46.125  91.832  34.713  1.00  0.00    -0.274 OA
ENDBRANCH  13  19
ENDBRANCH   7   9
BRANCH   7  25
HETATM   25  C22 UNL     1      53.436  91.546  33.851  1.00  0.00     0.234 C 
HETATM   26  O7  UNL     1      54.310  92.353  34.286  1.00  0.00    -0.643 OA
HETATM   27  O8  UNL     1      53.658  90.824  32.687  1.00  0.00    -0.643 OA
ENDBRANCH   7  25
ENDBRANCH   5   6
ENDBRANCH   4   5
ENDBRANCH   1   4
BRANCH   1  28
HETATM   28  C15 UNL     1      51.294  87.615  38.028  1.00  0.00     0.050 A 
HETATM   29  C16 UNL     1      52.566  87.471  37.522  1.00  0.00     0.111 A 
HETATM   30  N6  UNL     1      53.144  86.314  37.654  1.00  0.00    -0.345 N 
HETATM   31  C17 UNL     1      52.487  85.332  38.267  1.00  0.00     0.146 A 
ATOM     32  H6  UNL     1      54.086  86.161  37.293  1.00  0.00     0.167 HD
HETATM   33  S3  UNL     1      51.000  86.056  38.672  1.00  0.00    -0.051 SA
BRANCH  31  34
HETATM   34  N7  UNL     1      52.907  84.113  38.489  1.00  0.00    -0.342 N 
ATOM     35  H7  UNL     1      53.785  83.959  38.984  1.00  0.00     0.163 HD
BRANCH  34  36
HETATM   36  C18 UNL     1      52.139  83.000  38.038  1.00  0.00     0.297 C 
HETATM   37  C19 UNL     1      52.955  82.001  37.240  1.00  0.00     0.127 C 
HETATM   38  C20 UNL     1      51.984  80.992  36.727  1.00  0.00     0.095 C 
HETATM   39  N8  UNL     1      52.253  80.398  35.470  1.00  0.00    -0.088 NA
HETATM   40  N9  UNL     1      50.973  80.735  37.464  1.00  0.00    -0.333 N 
HETATM   41  C21 UNL     1      50.675  81.316  38.734  1.00  0.00     0.486 C 
ATOM     42  H9  UNL     1      50.312  80.045  37.109  1.00  0.00     0.164 HD
HETATM   43  N11 UNL     1      51.630  82.289  39.196  1.00  0.00    -0.008 N 
ATOM     44 2H11 UNL     1      52.371  81.878  39.764  1.00  0.00     0.284 HD
ATOM     45 1H11 UNL     1      51.246  82.914  39.905  1.00  0.00     0.284 HD
BRANCH  41  46
HETATM   46  N10 UNL     1      50.539  80.319  39.786  1.00  0.00    -0.033 N 
ATOM     47 3H10 UNL     1      50.487  79.379  39.395  1.00  0.00     0.278 HD
ATOM     48 2H10 UNL     1      51.404  80.229  40.319  1.00  0.00     0.278 HD
ATOM     49 1H10 UNL     1      49.747  80.505  40.401  1.00  0.00     0.278 HD
ENDBRANCH  41  46
ENDBRANCH  34  36
ENDBRANCH  31  34
ENDBRANCH   1  28
BRANCH   2  50
HETATM   50  O4  UNL     1      48.441  89.850  38.317  1.00  0.00    -0.229 OA
BRANCH  50  51
HETATM   51  C12 UNL     1      47.837  90.434  39.454  1.00  0.00     0.331 C 
HETATM   52  C13 UNL     1      48.207  91.894  39.597  1.00  0.00     0.093 C 
BRANCH  51  53
HETATM   53  N5  UNL     1      46.396  90.347  39.418  1.00  0.00    -0.034 N 
ATOM     54  H53 UNL     1      45.996  91.104  38.863  1.00  0.00     0.278 HD
ATOM     55  H52 UNL     1      46.089  89.554  38.855  1.00  0.00     0.278 HD
ATOM     56  H51 UNL     1      45.984  90.318  40.350  1.00  0.00     0.278 HD
ENDBRANCH  51  53
BRANCH  51  57
HETATM   57  C14 UNL     1      48.339  89.720  40.656  1.00  0.00     0.241 C 
HETATM   58  O5  UNL     1      47.661  88.887  41.308  1.00  0.00    -0.644 OA
HETATM   59  O6  UNL     1      49.634  89.969  41.108  1.00  0.00    -0.644 OA
ENDBRANCH  51  57
ENDBRANCH  50  51
ENDBRANCH   2  50
TORSDOF 14
ENDMDL
MODEL 2
REMARK VINA RESULT: -10.320976156      2.048      4.182
REMARK  14 active torsions:
REMARK  status: ('A' for Active; 'I' for Inactive)
REMARK       I    between atoms: C2_2  and  N1_4 
REMARK    1  A    between atoms: C3_6  and  C4_7 
REMARK       I    between atoms: N2_13  and  C8_15 
REMARK    2  A    between atoms: C8_15  and  C9_17 
REMARK    3  A    between atoms: C9_17  and  C22_57 
REMARK    4  A    between atoms: N3_18  and  O3_20 
REMARK    5  A    between atoms: O3_20  and  C10_21 
REMARK    6  A    between atoms: C10_21  and  C11_22 
REMARK    7  A    between atoms: C11_22  and  C15_35 
REMARK    8  A    between atoms: N4_23  and  O4_25 
REMARK    9  A    between atoms: O4_25  and  C12_26 
REMARK   10  A    between atoms: C12_26  and  N5_28 
REMARK   11  A    between atoms: C12_26  and  C14_32 
REMARK   12  A    between atoms: C17_39  and  N7_40 
REMARK   13  A    between atoms: N7_40  and  C18_42 
REMARK   14  A    between atoms: C21_48  and  N10_49 
ROOT
HETATM    1  C11 UNL     1      51.615  87.504  38.776  1.00  0.00     0.076 C 
HETATM    2  N4  UNL     1      51.158  87.340  39.950  1.00  0.00    -0.264 N 
ATOM      3  H4  UNL     1      51.405  86.503  40.479  1.00  0.00     0.194 HD
ENDROOT
BRANCH   1   4
HETATM    4  C10 UNL     1      51.270  88.703  38.001  1.00  0.00     0.261 C 
BRANCH   4   5
HETATM    5  O3  UNL     1      49.970  88.623  37.415  1.00  0.00    -0.274 OA
BRANCH   5   6
HETATM    6  N3  UNL     1      48.885  88.968  38.175  1.00  0.00    -0.255 N 
HETATM    7  C9  UNL     1      48.597  90.202  38.356  1.00  0.00     0.199 C 
ATOM      8  H3  UNL     1      48.307  88.242  38.597  1.00  0.00     0.195 HD
BRANCH   7   9
HETATM    9  C8  UNL     1      49.420  91.228  37.756  1.00  0.00     0.281 C 
HETATM   10  N2  UNL     1      49.402  91.498  36.361  1.00  0.00    -0.327 N 
HETATM   11  C7  UNL     1      48.720  92.507  35.879  1.00  0.00     0.010 C 
ATOM     12  H2  UNL     1      49.928  90.898  35.725  1.00  0.00     0.168 HD
HETATM   13  C4  UNL     1      48.783  92.677  34.424  1.00  0.00     0.081 C 
HETATM   14  C6  UNL     1      47.977  93.346  36.823  1.00  0.00     0.139 C 
HETATM   15  C5  UNL     1      47.974  93.785  33.854  1.00  0.00     0.102 C 
HETATM   16  S1  UNL     1      48.492  95.414  34.527  1.00  0.00    -0.096 SA
HETATM   17  S2  UNL     1      48.646  95.051  36.648  1.00  0.00    -0.092 SA
HETATM   18  O2  UNL     1      50.194  91.930  38.453  1.00  0.00    -0.265 OA
BRANCH  13  19
HETATM   19  C3  UNL     1      50.202  92.883  33.988  1.00  0.00     0.075 C 
HETATM   20  N1  UNL     1      50.858  91.850  33.622  1.00  0.00    -0.340 N 
HETATM   21  C2  UNL     1      52.200  91.859  33.183  1.00  0.00     0.217 C 
ATOM     22  H1  UNL     1      50.377  90.951  33.649  1.00  0.00     0.167 HD
HETATM   23  C1  UNL     1      52.800  92.989  32.434  1.00  0.00     0.117 C 
HETATM   24  O1  UNL     1      52.916  90.858  33.440  1.00  0.00    -0.274 OA
ENDBRANCH  13  19
ENDBRANCH   7   9
BRANCH   7  25
HETATM   25  C22 UNL     1      47.439  90.543  39.167  1.00  0.00     0.234 C 
HETATM   26  O7  UNL     1      47.624  90.961  40.348  1.00  0.00    -0.643 OA
HETATM   27  O8  UNL     1      46.156  90.410  38.657  1.00  0.00    -0.643 OA
ENDBRANCH   7  25
ENDBRANCH   5   6
ENDBRANCH   4   5
ENDBRANCH   1   4
BRANCH   1  28
HETATM   28  C15 UNL     1      52.497  86.503  38.164  1.00  0.00     0.050 A 
HETATM   29  C16 UNL     1      53.836  86.621  37.866  1.00  0.00     0.111 A 
HETATM   30  N6  UNL     1      54.428  85.600  37.321  1.00  0.00    -0.345 N 
HETATM   31  C17 UNL     1      53.720  84.498  37.080  1.00  0.00     0.146 A 
ATOM     32  H6  UNL     1      55.418  85.642  37.082  1.00  0.00     0.167 HD
HETATM   33  S3  UNL     1      52.164  84.910  37.636  1.00  0.00    -0.051 SA
BRANCH  31  34
HETATM   34  N7  UNL     1      54.145  83.383  36.544  1.00  0.00    -0.342 N 
ATOM     35  H7  UNL     1      55.140  83.250  36.365  1.00  0.00     0.163 HD
BRANCH  34  36
HETATM   36  C18 UNL     1      53.217  82.354  36.207  1.00  0.00     0.297 C 
HETATM   37  C19 UNL     1      53.839  81.243  35.383  1.00  0.00     0.127 C 
HETATM   38  C20 UNL     1      52.716  80.339  34.997  1.00  0.00     0.095 C 
HETATM   39  N8  UNL     1      52.801  79.680  33.747  1.00  0.00    -0.088 NA
HETATM   40  N9  UNL     1      51.755  80.224  35.829  1.00  0.00    -0.333 N 
HETATM   41  C21 UNL     1      51.641  80.874  37.096  1.00  0.00     0.486 C 
ATOM     42  H9  UNL     1      50.990  79.605  35.562  1.00  0.00     0.164 HD
HETATM   43  N11 UNL     1      52.739  81.743  37.433  1.00  0.00    -0.008 N 
ATOM     44 2H11 UNL     1      53.477  81.265  37.950  1.00  0.00     0.284 HD
ATOM     45 1H11 UNL     1      52.495  82.429  38.147  1.00  0.00     0.284 HD
BRANCH  41  46
HETATM   46  N10 UNL     1      51.490  79.932  38.196  1.00  0.00    -0.033 N 
ATOM     47 3H10 UNL     1      50.934  79.125  37.913  1.00  0.00     0.278 HD
ATOM     48 2H10 UNL     1      52.372  79.462  38.399  1.00  0.00     0.278 HD
ATOM     49 1H10 UNL     1      51.105  80.367  39.033  1.00  0.00     0.278 HD
ENDBRANCH  41  46
ENDBRANCH  34  36
ENDBRANCH  31  34
ENDBRANCH   1  28
BRANCH   2  50
HETATM   50  O4  UNL     1      50.344  88.268  40.503  1.00  0.00    -0.229 OA
BRANCH  50  51
HETATM   51  C12 UNL     1      50.648  89.009  41.667  1.00  0.00     0.331 C 
HETATM   52  C13 UNL     1      52.066  88.760  42.135  1.00  0.00     0.093 C 
BRANCH  51  53
HETATM   53  N5  UNL     1      50.494  90.432  41.471  1.00  0.00    -0.034 N 
ATOM     54  H53 UNL     1      49.561  90.741  41.741  1.00  0.00     0.278 HD
ATOM     55  H52 UNL     1      51.043  90.958  42.150  1.00  0.00     0.278 HD
ATOM     56  H51 UNL     1      50.715  90.719  40.518  1.00  0.00     0.278 HD
ENDBRANCH  51  53
BRANCH  51  57
HETATM   57  C14 UNL     1      49.731  88.563  42.747  1.00  0.00     0.241 C 
HETATM   58  O5  UNL     1      48.484  88.718  42.713  1.00  0.00    -0.644 OA
HETATM   59  O6  UNL     1      50.256  87.932  43.873  1.00  0.00    -0.644 OA
ENDBRANCH  51  57
ENDBRANCH  50  51
ENDBRANCH   2  50
TORSDOF 14
ENDMDL
MODEL 3
REMARK VINA RESULT: -10.172945918      0.687      1.393
REMARK  14 active torsions:
REMARK  status: ('A' for Active; 'I' for Inactive)
REMARK       I    between atoms: C2_2  and  N1_4 
REMARK    1  A    between atoms: C3_6  and  C4_7 
REMARK       I    between atoms: N2_13  and  C8_15 
REMARK    2  A    between atoms: C8_15  and  C9_17 
REMARK    3  A    between atoms: C9_17  and  C22_57 
REMARK    4  A    between atoms: N3_18  and  O3_20 
REMARK    5  A    between atoms: O3_20  and  C10_21 
REMARK    6  A    between atoms: C10_21  and  C11_22 
REMARK    7  A    between atoms: C11_22  and  C15_35 
REMARK    8  A    between atoms: N4_23  and  O4_25 
REMARK    9  A    between atoms: O4_25  and  C12_26 
REMARK   10  A    between atoms: C12_26  and  N5_28 
REMARK   11  A    between atoms: C12_26  and  C14_32 
REMARK   12  A    between atoms: C17_39  and  N7_40 
REMARK   13  A    between atoms: N7_40  and  C18_42 
REMARK   14  A    between atoms: C21_48  and  N10_49 
ROOT
HETATM    1  C11 UNL     1      50.502  88.920  37.982  1.00  0.00     0.076 C 
HETATM    2  N4  UNL     1      49.288  88.719  38.300  1.00  0.00    -0.264 N 
ATOM      3  H4  UNL     1      48.999  87.803  38.647  1.00  0.00     0.194 HD
ENDROOT
BRANCH   1   4
HETATM    4  C10 UNL     1      50.935  90.232  37.482  1.00  0.00     0.261 C 
BRANCH   4   5
HETATM    5  O3  UNL     1      50.903  90.314  36.057  1.00  0.00    -0.274 OA
BRANCH   5   6
HETATM    6  N3  UNL     1      52.077  90.523  35.385  1.00  0.00    -0.255 N 
HETATM    7  C9  UNL     1      52.168  91.479  34.538  1.00  0.00     0.199 C 
ATOM      8  H3  UNL     1      52.878  89.917  35.559  1.00  0.00     0.195 HD
BRANCH   7   9
HETATM    9  C8  UNL     1      51.029  92.335  34.295  1.00  0.00     0.281 C 
HETATM   10  N2  UNL     1      50.166  92.768  35.338  1.00  0.00    -0.327 N 
HETATM   11  C7  UNL     1      50.285  93.964  35.857  1.00  0.00     0.010 C 
ATOM     12  H2  UNL     1      49.444  92.138  35.688  1.00  0.00     0.168 HD
HETATM   13  C4  UNL     1      49.335  94.288  36.927  1.00  0.00     0.081 C 
HETATM   14  C6  UNL     1      51.334  94.839  35.329  1.00  0.00     0.139 C 
HETATM   15  C5  UNL     1      49.489  95.622  37.563  1.00  0.00     0.102 C 
HETATM   16  S1  UNL     1      49.282  96.979  36.342  1.00  0.00    -0.096 SA
HETATM   17  S2  UNL     1      50.488  96.335  34.672  1.00  0.00    -0.092 SA
HETATM   18  O2  UNL     1      50.752  92.735  33.136  1.00  0.00    -0.265 OA
BRANCH  13  19
HETATM   19  C3  UNL     1      47.929  94.189  36.417  1.00  0.00     0.075 C 
HETATM   20  N1  UNL     1      47.523  93.038  36.039  1.00  0.00    -0.340 N 
HETATM   21  C2  UNL     1      46.234  92.764  35.534  1.00  0.00     0.217 C 
ATOM     22  H1  UNL     1      48.179  92.260  36.107  1.00  0.00     0.167 HD
HETATM   23  C1  UNL     1      45.017  93.480  35.985  1.00  0.00     0.117 C 
HETATM   24  O1  UNL     1      46.117  91.866  34.660  1.00  0.00    -0.274 OA
ENDBRANCH  13  19
ENDBRANCH   7   9
BRANCH   7  25
HETATM   25  C22 UNL     1      53.425  91.680  33.837  1.00  0.00     0.234 C 
HETATM   26  O7  UNL     1      54.300  92.433  34.358  1.00  0.00    -0.643 OA
HETATM   27  O8  UNL     1      53.661  91.060  32.618  1.00  0.00    -0.643 OA
ENDBRANCH   7  25
ENDBRANCH   5   6
ENDBRANCH   4   5
ENDBRANCH   1   4
BRANCH   1  28
HETATM   28  C15 UNL     1      51.500  87.851  38.104  1.00  0.00     0.050 A 
HETATM   29  C16 UNL     1      52.750  87.789  37.531  1.00  0.00     0.111 A 
HETATM   30  N6  UNL     1      53.477  86.739  37.775  1.00  0.00    -0.345 N 
HETATM   31  C17 UNL     1      52.985  85.784  38.560  1.00  0.00     0.146 A 
ATOM     32  H6  UNL     1      54.409  86.649  37.370  1.00  0.00     0.167 HD
HETATM   33  S3  UNL     1      51.443  86.377  38.972  1.00  0.00    -0.051 SA
BRANCH  31  34
HETATM   34  N7  UNL     1      53.570  84.668  38.913  1.00  0.00    -0.342 N 
ATOM     35  H7  UNL     1      54.272  84.672  39.652  1.00  0.00     0.163 HD
BRANCH  34  36
HETATM   36  C18 UNL     1      53.225  83.446  38.265  1.00  0.00     0.297 C 
HETATM   37  C19 UNL     1      51.772  83.059  38.465  1.00  0.00     0.127 C 
HETATM   38  C20 UNL     1      51.619  81.704  37.858  1.00  0.00     0.095 C 
HETATM   39  N8  UNL     1      50.686  80.819  38.450  1.00  0.00    -0.088 NA
HETATM   40  N9  UNL     1      52.344  81.442  36.841  1.00  0.00    -0.333 N 
HETATM   41  C21 UNL     1      53.291  82.313  36.221  1.00  0.00     0.486 C 
ATOM     42  H9  UNL     1      52.236  80.516  36.429  1.00  0.00     0.164 HD
HETATM   43  N11 UNL     1      53.417  83.609  36.836  1.00  0.00    -0.008 N 
ATOM     44 2H11 UNL     1      52.789  84.302  36.430  1.00  0.00     0.284 HD
ATOM     45 1H11 UNL     1      54.297  84.072  36.607  1.00  0.00     0.284 HD
BRANCH  41  46
HETATM   46  N10 UNL     1      53.006  82.536  34.811  1.00  0.00    -0.033 N 
ATOM     47 3H10 UNL     1      52.667  81.683  34.367  1.00  0.00     0.278 HD
ATOM     48 2H10 UNL     1      52.180  83.124  34.693  1.00  0.00     0.278 HD
ATOM     49 1H10 UNL     1      53.804  82.921  34.307  1.00  0.00     0.278 HD
ENDBRANCH  41  46
ENDBRANCH  34  36
ENDBRANCH  31  34
ENDBRANCH   1  28
BRANCH   2  50
HETATM   50  O4  UNL     1      48.376  89.711  38.182  1.00  0.00    -0.229 OA
BRANCH  50  51
HETATM   51  C12 UNL     1      47.782  90.387  39.271  1.00  0.00     0.331 C 
HETATM   52  C13 UNL     1      48.170  91.849  39.302  1.00  0.00     0.093 C 
BRANCH  51  53
HETATM   53  N5  UNL     1      46.339  90.316  39.242  1.00  0.00    -0.034 N 
ATOM     54  H53 UNL     1      45.956  90.919  38.515  1.00  0.00     0.278 HD
ATOM     55  H52 UNL     1      46.022  89.413  38.889  1.00  0.00     0.278 HD
ATOM     56  H51 UNL     1      45.921  90.524  40.149  1.00  0.00     0.278 HD
ENDBRANCH  51  53
BRANCH  51  57
HETATM   57  C14 UNL     1      48.276  89.761  40.524  1.00  0.00     0.241 C 
HETATM   58  O5  UNL     1      47.606  88.950  41.212  1.00  0.00    -0.644 OA
HETATM   59  O6  UNL     1      49.554  90.070  40.985  1.00  0.00    -0.644 OA
ENDBRANCH  51  57
ENDBRANCH  50  51
ENDBRANCH   2  50
TORSDOF 14
ENDMDL
MODEL 4
REMARK VINA RESULT: -10.162053422      4.307      8.794
REMARK  14 active torsions:
REMARK  status: ('A' for Active; 'I' for Inactive)
REMARK       I    between atoms: C2_2  and  N1_4 
REMARK    1  A    between atoms: C3_6  and  C4_7 
REMARK       I    between atoms: N2_13  and  C8_15 
REMARK    2  A    between atoms: C8_15  and  C9_17 
REMARK    3  A    between atoms: C9_17  and  C22_57 
REMARK    4  A    between atoms: N3_18  and  O3_20 
REMARK    5  A    between atoms: O3_20  and  C10_21 
REMARK    6  A    between atoms: C10_21  and  C11_22 
REMARK    7  A    between atoms: C11_22  and  C15_35 
REMARK    8  A    between atoms: N4_23  and  O4_25 
REMARK    9  A    between atoms: O4_25  and  C12_26 
REMARK   10  A    between atoms: C12_26  and  N5_28 
REMARK   11  A    between atoms: C12_26  and  C14_32 
REMARK   12  A    between atoms: C17_39  and  N7_40 
REMARK   13  A    between atoms: N7_40  and  C18_42 
REMARK   14  A    between atoms: C21_48  and  N10_49 
ROOT
HETATM    1  C11 UNL     1      50.424  91.505  36.858  1.00  0.00     0.076 C 
HETATM    2  N4  UNL     1      49.621  90.580  36.520  1.00  0.00    -0.264 N 
ATOM      3  H4  UNL     1      49.778  90.062  35.655  1.00  0.00     0.194 HD
ENDROOT
BRANCH   1   4
HETATM    4  C10 UNL     1      50.213  92.260  38.101  1.00  0.00     0.261 C 
BRANCH   4   5
HETATM    5  O3  UNL     1      50.667  91.555  39.256  1.00  0.00    -0.274 OA
BRANCH   5   6
HETATM    6  N3  UNL     1      49.737  91.043  40.121  1.00  0.00    -0.255 N 
HETATM    7  C9  UNL     1      49.710  89.786  40.361  1.00  0.00     0.199 C 
ATOM      8  H3  UNL     1      49.067  91.664  40.573  1.00  0.00     0.195 HD
BRANCH   7   9
HETATM    9  C8  UNL     1      50.663  88.910  39.717  1.00  0.00     0.281 C 
HETATM   10  N2  UNL     1      52.038  88.888  40.073  1.00  0.00    -0.327 N 
HETATM   11  C7  UNL     1      52.514  87.956  40.860  1.00  0.00     0.010 C 
ATOM     12  H2  UNL     1      52.663  89.608  39.711  1.00  0.00     0.168 HD
HETATM   13  C4  UNL     1      53.949  88.046  41.153  1.00  0.00     0.081 C 
HETATM   14  C6  UNL     1      51.585  86.940  41.360  1.00  0.00     0.139 C 
HETATM   15  C5  UNL     1      54.496  87.028  42.086  1.00  0.00     0.102 C 
HETATM   16  S1  UNL     1      54.269  85.325  41.434  1.00  0.00    -0.096 SA
HETATM   17  S2  UNL     1      52.216  85.316  40.769  1.00  0.00    -0.092 SA
HETATM   18  O2  UNL     1      50.307  88.124  38.803  1.00  0.00    -0.265 OA
BRANCH  13  19
HETATM   19  C3  UNL     1      54.742  87.969  39.883  1.00  0.00     0.075 C 
HETATM   20  N1  UNL     1      55.895  88.519  39.878  1.00  0.00    -0.340 N 
HETATM   21  C2  UNL     1      56.773  88.542  38.774  1.00  0.00     0.217 C 
ATOM     22  H1  UNL     1      56.204  88.976  40.737  1.00  0.00     0.167 HD
HETATM   23  C1  UNL     1      56.860  87.442  37.784  1.00  0.00     0.117 C 
HETATM   24  O1  UNL     1      57.517  89.546  38.628  1.00  0.00    -0.274 OA
ENDBRANCH  13  19
ENDBRANCH   7   9
BRANCH   7  25
HETATM   25  C22 UNL     1      48.713  89.267  41.283  1.00  0.00     0.234 C 
HETATM   26  O7  UNL     1      49.103  88.671  42.331  1.00  0.00    -0.643 OA
HETATM   27  O8  UNL     1      47.359  89.421  41.020  1.00  0.00    -0.643 OA
ENDBRANCH   7  25
ENDBRANCH   5   6
ENDBRANCH   4   5
ENDBRANCH   1   4
BRANCH   1  28
HETATM   28  C15 UNL     1      51.580  91.844  36.020  1.00  0.00     0.050 A 
HETATM   29  C16 UNL     1      52.211  93.061  35.897  1.00  0.00     0.111 A 
HETATM   30  N6  UNL     1      53.227  93.138  35.090  1.00  0.00    -0.345 N 
HETATM   31  C17 UNL     1      53.608  92.048  34.427  1.00  0.00     0.146 A 
ATOM     32  H6  UNL     1      53.725  94.020  34.966  1.00  0.00     0.167 HD
HETATM   33  S3  UNL     1      52.497  90.869  34.953  1.00  0.00    -0.051 SA
BRANCH  31  34
HETATM   34  N7  UNL     1      54.599  91.939  33.581  1.00  0.00    -0.342 N 
ATOM     35  H7  UNL     1      54.562  92.428  32.687  1.00  0.00     0.163 HD
BRANCH  34  36
HETATM   36  C18 UNL     1      55.732  91.138  33.908  1.00  0.00     0.297 C 
HETATM   37  C19 UNL     1      55.902  89.947  32.983  1.00  0.00     0.127 C 
HETATM   38  C20 UNL     1      57.027  89.145  33.547  1.00  0.00     0.095 C 
HETATM   39  N8  UNL     1      56.979  87.739  33.385  1.00  0.00    -0.088 NA
HETATM   40  N9  UNL     1      57.956  89.790  34.139  1.00  0.00    -0.333 N 
HETATM   41  C21 UNL     1      58.032  91.204  34.318  1.00  0.00     0.486 C 
ATOM     42  H9  UNL     1      58.723  89.238  34.522  1.00  0.00     0.164 HD
HETATM   43  N11 UNL     1      56.928  91.946  33.767  1.00  0.00    -0.008 N 
ATOM     44 2H11 UNL     1      57.093  92.243  32.805  1.00  0.00     0.284 HD
ATOM     45 1H11 UNL     1      56.829  92.874  34.181  1.00  0.00     0.284 HD
BRANCH  41  46
HETATM   46  N10 UNL     1      59.250  91.774  33.759  1.00  0.00    -0.033 N 
ATOM     47 3H10 UNL     1      59.993  91.077  33.714  1.00  0.00     0.278 HD
ATOM     48 2H10 UNL     1      59.141  91.964  32.763  1.00  0.00     0.278 HD
ATOM     49 1H10 UNL     1      59.558  92.607  34.260  1.00  0.00     0.278 HD
ENDBRANCH  41  46
ENDBRANCH  34  36
ENDBRANCH  31  34
ENDBRANCH   1  28
BRANCH   2  50
HETATM   50  O4  UNL     1      48.558  90.278  37.300  1.00  0.00    -0.229 OA
BRANCH  50  51
HETATM   51  C12 UNL     1      47.226  90.185  36.837  1.00  0.00     0.331 C 
HETATM   52  C13 UNL     1      47.068  89.095  35.800  1.00  0.00     0.093 C 
BRANCH  51  53
HETATM   53  N5  UNL     1      46.290  89.915  37.904  1.00  0.00    -0.034 N 
ATOM     54  H53 UNL     1      45.330  90.077  37.601  1.00  0.00     0.278 HD
ATOM     55  H52 UNL     1      46.232  88.915  38.098  1.00  0.00     0.278 HD
ATOM     56  H51 UNL     1      46.502  90.442  38.751  1.00  0.00     0.278 HD
ENDBRANCH  51  53
BRANCH  51  57
HETATM   57  C14 UNL     1      46.873  91.477  36.195  1.00  0.00     0.241 C 
HETATM   58  O5  UNL     1      46.953  92.590  36.772  1.00  0.00    -0.644 OA
HETATM   59  O6  UNL     1      46.424  91.484  34.875  1.00  0.00    -0.644 OA
ENDBRANCH  51  57
ENDBRANCH  50  51
ENDBRANCH   2  50
TORSDOF 14
ENDMDL
MODEL 5
REMARK VINA RESULT: -10.136568232      4.056      8.433
REMARK  14 active torsions:
REMARK  status: ('A' for Active; 'I' for Inactive)
REMARK       I    between atoms: C2_2  and  N1_4 
REMARK    1  A    between atoms: C3_6  and  C4_7 
REMARK       I    between atoms: N2_13  and  C8_15 
REMARK    2  A    between atoms: C8_15  and  C9_17 
REMARK    3  A    between atoms: C9_17  and  C22_57 
REMARK    4  A    between atoms: N3_18  and  O3_20 
REMARK    5  A    between atoms: O3_20  and  C10_21 
REMARK    6  A    between atoms: C10_21  and  C11_22 
REMARK    7  A    between atoms: C11_22  and  C15_35 
REMARK    8  A    between atoms: N4_23  and  O4_25 
REMARK    9  A    between atoms: O4_25  and  C12_26 
REMARK   10  A    between atoms: C12_26  and  N5_28 
REMARK   11  A    between atoms: C12_26  and  C14_32 
REMARK   12  A    between atoms: C17_39  and  N7_40 
REMARK   13  A    between atoms: N7_40  and  C18_42 
REMARK   14  A    between atoms: C21_48  and  N10_49 
ROOT
HETATM    1  C11 UNL     1      50.369  92.706  36.007  1.00  0.00     0.076 C 
HETATM    2  N4  UNL     1      49.255  92.290  35.558  1.00  0.00    -0.264 N 
ATOM      3  H4  UNL     1      49.216  91.820  34.653  1.00  0.00     0.194 HD
ENDROOT
BRANCH   1   4
HETATM    4  C10 UNL     1      50.443  93.383  37.309  1.00  0.00     0.261 C 
BRANCH   4   5
HETATM    5  O3  UNL     1      50.567  92.468  38.397  1.00  0.00    -0.274 OA
BRANCH   5   6
HETATM    6  N3  UNL     1      49.427  91.992  38.988  1.00  0.00    -0.255 N 
HETATM    7  C9  UNL     1      49.258  90.730  39.128  1.00  0.00     0.199 C 
ATOM      8  H3  UNL     1      48.713  92.642  39.315  1.00  0.00     0.195 HD
BRANCH   7   9
HETATM    9  C8  UNL     1      50.273  89.813  38.662  1.00  0.00     0.281 C 
HETATM   10  N2  UNL     1      51.402  89.461  39.451  1.00  0.00    -0.327 N 
HETATM   11  C7  UNL     1      51.435  88.331  40.112  1.00  0.00     0.010 C 
ATOM     12  H2  UNL     1      52.197  90.098  39.504  1.00  0.00     0.168 HD
HETATM   13  C4  UNL     1      52.655  88.088  40.889  1.00  0.00     0.081 C 
HETATM   14  C6  UNL     1      50.275  87.444  40.012  1.00  0.00     0.139 C 
HETATM   15  C5  UNL     1      52.690  86.835  41.686  1.00  0.00     0.102 C 
HETATM   16  S1  UNL     1      52.525  85.350  40.617  1.00  0.00    -0.096 SA
HETATM   17  S2  UNL     1      50.886  85.858  39.309  1.00  0.00    -0.092 SA
HETATM   18  O2  UNL     1      50.197  89.283  37.525  1.00  0.00    -0.265 OA
BRANCH  13  19
HETATM   19  C3  UNL     1      53.852  88.082  39.985  1.00  0.00     0.075 C 
HETATM   20  N1  UNL     1      54.921  88.625  40.426  1.00  0.00    -0.340 N 
HETATM   21  C2  UNL     1      56.136  88.709  39.713  1.00  0.00     0.217 C 
ATOM     22  H1  UNL     1      54.894  89.029  41.363  1.00  0.00     0.167 HD
HETATM   23  C1  UNL     1      56.590  87.669  38.759  1.00  0.00     0.117 C 
HETATM   24  O1  UNL     1      56.866  89.716  39.901  1.00  0.00    -0.274 OA
ENDBRANCH  13  19
ENDBRANCH   7   9
BRANCH   7  25
HETATM   25  C22 UNL     1      48.040  90.249  39.759  1.00  0.00     0.234 C 
HETATM   26  O7  UNL     1      46.989  90.151  39.059  1.00  0.00    -0.643 OA
HETATM   27  O8  UNL     1      48.028  89.906  41.103  1.00  0.00    -0.643 OA
ENDBRANCH   7  25
ENDBRANCH   5   6
ENDBRANCH   4   5
ENDBRANCH   1   4
BRANCH   1  28
HETATM   28  C15 UNL     1      51.606  92.522  35.240  1.00  0.00     0.050 A 
HETATM   29  C16 UNL     1      52.852  93.046  35.502  1.00  0.00     0.111 A 
HETATM   30  N6  UNL     1      53.818  92.751  34.684  1.00  0.00    -0.345 N 
HETATM   31  C17 UNL     1      53.562  91.963  33.642  1.00  0.00     0.146 A 
ATOM     32  H6  UNL     1      54.757  93.118  34.837  1.00  0.00     0.167 HD
HETATM   33  S3  UNL     1      51.902  91.624  33.814  1.00  0.00    -0.051 SA
BRANCH  31  34
HETATM   34  N7  UNL     1      54.403  91.563  32.723  1.00  0.00    -0.342 N 
ATOM     35  H7  UNL     1      54.349  91.949  31.780  1.00  0.00     0.163 HD
BRANCH  34  36
HETATM   36  C18 UNL     1      55.395  90.590  33.039  1.00  0.00     0.297 C 
HETATM   37  C19 UNL     1      56.609  91.184  33.728  1.00  0.00     0.127 C 
HETATM   38  C20 UNL     1      57.597  90.073  33.851  1.00  0.00     0.095 C 
HETATM   39  N8  UNL     1      58.972  90.403  33.779  1.00  0.00    -0.088 NA
HETATM   40  N9  UNL     1      57.127  88.897  34.014  1.00  0.00    -0.333 N 
HETATM   41  C21 UNL     1      55.749  88.533  34.092  1.00  0.00     0.486 C 
ATOM     42  H9  UNL     1      57.806  88.141  34.098  1.00  0.00     0.164 HD
HETATM   43  N11 UNL     1      54.823  89.629  33.963  1.00  0.00    -0.008 N 
ATOM     44 2H11 UNL     1      54.575  90.044  34.861  1.00  0.00     0.284 HD
ATOM     45 1H11 UNL     1      53.888  89.327  33.690  1.00  0.00     0.284 HD
BRANCH  41  46
HETATM   46  N10 UNL     1      55.422  87.842  35.331  1.00  0.00    -0.033 N 
ATOM     47 3H10 UNL     1      56.245  87.387  35.725  1.00  0.00     0.278 HD
ATOM     48 2H10 UNL     1      55.226  88.506  36.079  1.00  0.00     0.278 HD
ATOM     49 1H10 UNL     1      54.655  87.180  35.219  1.00  0.00     0.278 HD
ENDBRANCH  41  46
ENDBRANCH  34  36
ENDBRANCH  31  34
ENDBRANCH   1  28
BRANCH   2  50
HETATM   50  O4  UNL     1      48.120  92.467  36.273  1.00  0.00    -0.229 OA
BRANCH  50  51
HETATM   51  C12 UNL     1      47.015  93.236  35.845  1.00  0.00     0.331 C 
HETATM   52  C13 UNL     1      45.758  92.886  36.611  1.00  0.00     0.093 C 
BRANCH  51  53
HETATM   53  N5  UNL     1      47.240  94.655  35.996  1.00  0.00    -0.034 N 
ATOM     54  H53 UNL     1      48.133  94.932  35.588  1.00  0.00     0.278 HD
ATOM     55  H52 UNL     1      46.614  95.193  35.397  1.00  0.00     0.278 HD
ATOM     56  H51 UNL     1      47.171  94.959  36.967  1.00  0.00     0.278 HD
ENDBRANCH  51  53
BRANCH  51  57
HETATM   57  C14 UNL     1      46.772  92.931  34.412  1.00  0.00     0.241 C 
HETATM   58  O5  UNL     1      45.813  92.232  33.999  1.00  0.00    -0.644 OA
HETATM   59  O6  UNL     1      47.641  93.438  33.447  1.00  0.00    -0.644 OA
ENDBRANCH  51  57
ENDBRANCH  50  51
ENDBRANCH   2  50
TORSDOF 14
ENDMDL
