MODEL 1
REMARK VINA RESULT: -10.399199180      0.000      0.000
REMARK  14 active torsions:
REMARK  status: ('A' for Active; 'I' for Inactive)
REMARK       I    between atoms: C2_2  and  N1_4 
REMARK    1  A    between atoms: N1_4  and  C3_6 
REMARK    2  A    between atoms: C4_8  and  C5_9 
REMARK       I    between atoms: C5_9  and  N2_11 
REMARK    3  A    between atoms: N2_11  and  O4_12 
REMARK    4  A    between atoms: O4_12  and  C6_13 
REMARK    5  A    between atoms: C6_13  and  C9_16 
REMARK    6  A    between atoms: N5_24  and  C12_25 
REMARK    7  A    between atoms: C12_25  and  C13_26 
REMARK    8  A    between atoms: C13_26  and  S1_27 
REMARK    9  A    between atoms: S1_27  and  C14_28 
REMARK   10  A    between atoms: C15_33  and  S2_34 
REMARK   11  A    between atoms: C16_39  and  C18_42 
REMARK   12  A    between atoms: C18_42  and  O10_43 
REMARK   13  A    between atoms: N9_45  and  O11_47 
REMARK   14  A    between atoms: N10_50  and  O12_51 
ROOT
HETATM    1  C3  UNL     1      51.767  92.192  35.441  1.00  0.00     0.267 C 
HETATM    2  O2  UNL     1      50.983  92.700  34.347  1.00  0.00    -0.319 OA
HETATM    3  C4  UNL     1      49.816  93.081  34.909  1.00  0.00     0.302 C 
HETATM    4  C10 UNL     1      49.085  91.854  35.437  1.00  0.00     0.159 C 
HETATM    5  N3  UNL     1      48.198  91.316  34.754  1.00  0.00    -0.278 N 
ATOM      6  H3  UNL     1      48.048  91.778  33.857  1.00  0.00     0.179 HD
HETATM    7  C11 UNL     1      47.397  90.262  34.943  1.00  0.00     0.183 C 
HETATM    8  N4  UNL     1      46.712  89.324  35.141  1.00  0.00    -0.172 NA
HETATM    9  N5  UNL     1      49.664  91.654  36.726  1.00  0.00    -0.309 N 
HETATM   10  C19 UNL     1      50.939  92.400  36.613  1.00  0.00     0.245 C 
HETATM   11  N10 UNL     1      50.219  93.675  36.173  1.00  0.00    -0.119 NA
ENDROOT
BRANCH   3  12
HETATM   12  C5  UNL     1      48.950  93.915  34.051  1.00  0.00     0.380 C 
HETATM   13  O3  UNL     1      48.278  93.374  33.206  1.00  0.00    -0.249 OA
HETATM   14  N2  UNL     1      49.032  95.330  34.366  1.00  0.00    -0.235 NA
BRANCH  14  15
HETATM   15  O4  UNL     1      49.087  96.439  34.604  1.00  0.00    -0.184 OA
BRANCH  15  16
HETATM   16  C6  UNL     1      48.395  97.280  35.425  1.00  0.00     0.183 C 
HETATM   17  C7  UNL     1      48.847  98.719  35.152  1.00  0.00     0.061 C 
HETATM   18  C8  UNL     1      46.906  97.230  35.296  1.00  0.00     0.061 C 
BRANCH  16  19
HETATM   19  C9  UNL     1      48.828  97.000  36.834  1.00  0.00     0.212 C 
HETATM   20  O5  UNL     1      50.025  96.983  37.198  1.00  0.00    -0.646 OA
HETATM   21  O6  UNL     1      47.775  96.751  37.740  1.00  0.00    -0.646 OA
ENDBRANCH  16  19
ENDBRANCH  15  16
ENDBRANCH  14  15
ENDBRANCH   3  12
BRANCH   9  22
HETATM   22  C12 UNL     1      49.092  91.030  37.849  1.00  0.00     0.050 C 
HETATM   23  C16 UNL     1      48.712  91.457  39.007  1.00  0.00     0.120 C 
HETATM   24  C17 UNL     1      48.136  90.437  39.955  1.00  0.00     0.106 C 
HETATM   25  N8  UNL     1      47.672  89.671  40.701  1.00  0.00    -0.191 NA
BRANCH  22  26
HETATM   26  C13 UNL     1      48.876  89.499  37.690  1.00  0.00     0.140 C 
BRANCH  26  27
HETATM   27  S1  UNL     1      50.439  88.741  37.337  1.00  0.00    -0.097 SA
BRANCH  27  28
HETATM   28  C14 UNL     1      50.962  87.509  38.515  1.00  0.00     0.129 A 
HETATM   29  N6  UNL     1      50.400  87.218  39.700  1.00  0.00    -0.287 N 
HETATM   30  N7  UNL     1      50.868  86.281  40.393  1.00  0.00    -0.281 N 
ATOM     31  H6  UNL     1      49.600  87.754  40.035  1.00  0.00     0.188 HD
HETATM   32  C15 UNL     1      51.909  85.569  39.965  1.00  0.00     0.209 A 
ATOM     33  H7  UNL     1      50.445  86.062  41.295  1.00  0.00     0.188 HD
HETATM   34  S3  UNL     1      52.217  86.329  38.459  1.00  0.00    -0.030 SA
BRANCH  32  35
HETATM   35  S2  UNL     1      52.745  84.226  40.730  1.00  0.00     0.163 S 
HETATM   36  O7  UNL     1      51.793  83.106  41.048  1.00  0.00    -0.590 OA
HETATM   37  O8  UNL     1      53.723  83.642  39.723  1.00  0.00    -0.590 OA
HETATM   38  O9  UNL     1      53.604  84.769  42.031  1.00  0.00    -0.590 OA
ENDBRANCH  32  35
ENDBRANCH  27  28
ENDBRANCH  26  27
ENDBRANCH  22  26
BRANCH  23  39
HETATM   39  C18 UNL     1      48.718  92.782  39.578  1.00  0.00     0.183 C 
HETATM   40  N9  UNL     1      49.044  93.821  38.925  1.00  0.00    -0.246 N 
ATOM     41  H9  UNL     1      49.315  93.697  37.950  1.00  0.00     0.196 HD
BRANCH  39  42
HETATM   42  O10 UNL     1      48.348  92.972  40.914  1.00  0.00    -0.344 OA
ATOM     43  H10 UNL     1      48.195  93.849  41.247  1.00  0.00     0.219 HD
ENDBRANCH  39  42
BRANCH  40  44
HETATM   44  O11 UNL     1      49.059  95.076  39.422  1.00  0.00    -0.288 OA
ATOM     45  H11 UNL     1      49.067  95.869  38.899  1.00  0.00     0.244 HD
ENDBRANCH  40  44
ENDBRANCH  23  39
ENDBRANCH   9  22
BRANCH  11  46
HETATM   46  O12 UNL     1      51.121  94.634  36.041  1.00  0.00    -0.307 OA
ATOM     47  H12 UNL     1      51.171  95.213  36.793  1.00  0.00     0.237 HD
ENDBRANCH  11  46
BRANCH   1  48
HETATM   48  N1  UNL     1      52.326  90.954  35.066  1.00  0.00    -0.332 N 
HETATM   49  C2  UNL     1      53.687  90.809  34.710  1.00  0.00     0.215 C 
HETATM   50  C1  UNL     1      54.140  89.401  34.300  1.00  0.00     0.117 C 
HETATM   51  O1  UNL     1      54.563  91.698  34.682  1.00  0.00    -0.274 OA
ATOM     52  H1  UNL     1      51.725  90.130  35.051  1.00  0.00     0.165 HD
ENDBRANCH   1  48
TORSDOF 14
ENDMDL
MODEL 2
REMARK VINA RESULT: -10.013557514      1.230      1.461
REMARK  14 active torsions:
REMARK  status: ('A' for Active; 'I' for Inactive)
REMARK       I    between atoms: C2_2  and  N1_4 
REMARK    1  A    between atoms: N1_4  and  C3_6 
REMARK    2  A    between atoms: C4_8  and  C5_9 
REMARK       I    between atoms: C5_9  and  N2_11 
REMARK    3  A    between atoms: N2_11  and  O4_12 
REMARK    4  A    between atoms: O4_12  and  C6_13 
REMARK    5  A    between atoms: C6_13  and  C9_16 
REMARK    6  A    between atoms: N5_24  and  C12_25 
REMARK    7  A    between atoms: C12_25  and  C13_26 
REMARK    8  A    between atoms: C13_26  and  S1_27 
REMARK    9  A    between atoms: S1_27  and  C14_28 
REMARK   10  A    between atoms: C15_33  and  S2_34 
REMARK   11  A    between atoms: C16_39  and  C18_42 
REMARK   12  A    between atoms: C18_42  and  O10_43 
REMARK   13  A    between atoms: N9_45  and  O11_47 
REMARK   14  A    between atoms: N10_50  and  O12_51 
ROOT
HETATM    1  C3  UNL     1      51.648  92.309  34.889  1.00  0.00     0.267 C 
HETATM    2  O2  UNL     1      50.650  92.790  33.972  1.00  0.00    -0.319 OA
HETATM    3  C4  UNL     1      49.577  93.063  34.744  1.00  0.00     0.302 C 
HETATM    4  C10 UNL     1      49.038  91.767  35.335  1.00  0.00     0.159 C 
HETATM    5  N3  UNL     1      48.083  91.185  34.793  1.00  0.00    -0.278 N 
ATOM      6  H3  UNL     1      47.746  91.662  33.957  1.00  0.00     0.179 HD
HETATM    7  C11 UNL     1      47.404  90.067  35.070  1.00  0.00     0.183 C 
HETATM    8  N4  UNL     1      46.832  89.073  35.341  1.00  0.00    -0.172 NA
HETATM    9  N5  UNL     1      49.848  91.570  36.493  1.00  0.00    -0.309 N 
HETATM   10  C19 UNL     1      51.028  92.415  36.194  1.00  0.00     0.245 C 
HETATM   11  N10 UNL     1      50.154  93.645  35.945  1.00  0.00    -0.119 NA
ENDROOT
BRANCH   3  12
HETATM   12  C5  UNL     1      48.517  93.855  34.088  1.00  0.00     0.380 C 
HETATM   13  O3  UNL     1      47.873  93.342  33.205  1.00  0.00    -0.249 OA
HETATM   14  N2  UNL     1      48.393  95.196  34.630  1.00  0.00    -0.235 NA
BRANCH  14  15
HETATM   15  O4  UNL     1      48.287  96.248  35.045  1.00  0.00    -0.184 OA
BRANCH  15  16
HETATM   16  C6  UNL     1      49.053  97.376  35.007  1.00  0.00     0.183 C 
HETATM   17  C7  UNL     1      49.809  97.414  33.673  1.00  0.00     0.061 C 
HETATM   18  C8  UNL     1      48.313  98.666  35.156  1.00  0.00     0.061 C 
BRANCH  16  19
HETATM   19  C9  UNL     1      50.121  97.237  36.051  1.00  0.00     0.212 C 
HETATM   20  O5  UNL     1      49.884  96.985  37.253  1.00  0.00    -0.646 OA
HETATM   21  O6  UNL     1      51.439  97.418  35.579  1.00  0.00    -0.646 OA
ENDBRANCH  16  19
ENDBRANCH  15  16
ENDBRANCH  14  15
ENDBRANCH   3  12
BRANCH   9  22
HETATM   22  C12 UNL     1      49.527  90.868  37.670  1.00  0.00     0.050 C 
HETATM   23  C16 UNL     1      49.167  91.235  38.854  1.00  0.00     0.120 C 
HETATM   24  C17 UNL     1      48.915  90.140  39.860  1.00  0.00     0.106 C 
HETATM   25  N8  UNL     1      48.698  89.313  40.650  1.00  0.00    -0.191 NA
BRANCH  22  26
HETATM   26  C13 UNL     1      49.639  89.323  37.543  1.00  0.00     0.140 C 
BRANCH  26  27
HETATM   27  S1  UNL     1      51.341  88.897  37.288  1.00  0.00    -0.097 SA
BRANCH  27  28
HETATM   28  C14 UNL     1      52.128  88.081  38.664  1.00  0.00     0.129 A 
HETATM   29  N6  UNL     1      51.577  87.747  39.843  1.00  0.00    -0.287 N 
HETATM   30  N7  UNL     1      52.263  87.127  40.693  1.00  0.00    -0.281 N 
ATOM     31  H6  UNL     1      50.609  87.995  40.046  1.00  0.00     0.188 HD
HETATM   32  C15 UNL     1      53.526  86.792  40.438  1.00  0.00     0.209 A 
ATOM     33  H7  UNL     1      51.847  86.878  41.591  1.00  0.00     0.188 HD
HETATM   34  S3  UNL     1      53.713  87.432  38.858  1.00  0.00    -0.030 SA
BRANCH  32  35
HETATM   35  S2  UNL     1      54.688  85.938  41.442  1.00  0.00     0.163 S 
HETATM   36  O7  UNL     1      54.223  84.539  41.737  1.00  0.00    -0.590 OA
HETATM   37  O8  UNL     1      55.970  85.768  40.642  1.00  0.00    -0.590 OA
HETATM   38  O9  UNL     1      55.031  86.831  42.787  1.00  0.00    -0.590 OA
ENDBRANCH  32  35
ENDBRANCH  27  28
ENDBRANCH  26  27
ENDBRANCH  22  26
BRANCH  23  39
HETATM   39  C18 UNL     1      48.933  92.544  39.412  1.00  0.00     0.183 C 
HETATM   40  N9  UNL     1      49.198  93.621  38.795  1.00  0.00    -0.246 N 
ATOM     41  H9  UNL     1      49.598  93.542  37.860  1.00  0.00     0.196 HD
BRANCH  39  42
HETATM   42  O10 UNL     1      48.383  92.674  40.692  1.00  0.00    -0.344 OA
ATOM     43  H10 UNL     1      48.391  93.516  41.132  1.00  0.00     0.219 HD
ENDBRANCH  39  42
BRANCH  40  44
HETATM   44  O11 UNL     1      48.991  94.864  39.281  1.00  0.00    -0.288 OA
ATOM     45  H11 UNL     1      48.875  95.644  38.751  1.00  0.00     0.244 HD
ENDBRANCH  40  44
ENDBRANCH  23  39
ENDBRANCH   9  22
BRANCH  11  46
HETATM   46  O12 UNL     1      50.949  94.673  35.702  1.00  0.00    -0.307 OA
ATOM     47  H12 UNL     1      51.555  94.523  34.986  1.00  0.00     0.237 HD
ENDBRANCH  11  46
BRANCH   1  48
HETATM   48  N1  UNL     1      52.217  91.131  34.367  1.00  0.00    -0.332 N 
HETATM   49  C2  UNL     1      53.231  91.146  33.382  1.00  0.00     0.215 C 
HETATM   50  C1  UNL     1      53.731  89.779  32.895  1.00  0.00     0.117 C 
HETATM   51  O1  UNL     1      53.762  92.144  32.854  1.00  0.00    -0.274 OA
ATOM     52  H1  UNL     1      51.885  90.230  34.714  1.00  0.00     0.165 HD
ENDBRANCH   1  48
TORSDOF 14
ENDMDL
MODEL 3
REMARK VINA RESULT: -9.784926877      1.619      1.885
REMARK  14 active torsions:
REMARK  status: ('A' for Active; 'I' for Inactive)
REMARK       I    between atoms: C2_2  and  N1_4 
REMARK    1  A    between atoms: N1_4  and  C3_6 
REMARK    2  A    between atoms: C4_8  and  C5_9 
REMARK       I    between atoms: C5_9  and  N2_11 
REMARK    3  A    between atoms: N2_11  and  O4_12 
REMARK    4  A    between atoms: O4_12  and  C6_13 
REMARK    5  A    between atoms: C6_13  and  C9_16 
REMARK    6  A    between atoms: N5_24  and  C12_25 
REMARK    7  A    between atoms: C12_25  and  C13_26 
REMARK    8  A    between atoms: C13_26  and  S1_27 
REMARK    9  A    between atoms: S1_27  and  C14_28 
REMARK   10  A    between atoms: C15_33  and  S2_34 
REMARK   11  A    between atoms: C16_39  and  C18_42 
REMARK   12  A    between atoms: C18_42  and  O10_43 
REMARK   13  A    between atoms: N9_45  and  O11_47 
REMARK   14  A    between atoms: N10_50  and  O12_51 
ROOT
HETATM    1  C3  UNL     1      51.967  92.048  35.350  1.00  0.00     0.267 C 
HETATM    2  O2  UNL     1      51.036  92.450  34.330  1.00  0.00    -0.319 OA
HETATM    3  C4  UNL     1      49.924  92.815  35.003  1.00  0.00     0.302 C 
HETATM    4  C10 UNL     1      49.323  91.593  35.685  1.00  0.00     0.159 C 
HETATM    5  N3  UNL     1      48.391  90.974  35.145  1.00  0.00    -0.278 N 
ATOM      6  H3  UNL     1      48.115  91.371  34.247  1.00  0.00     0.179 HD
HETATM    7  C11 UNL     1      47.672  89.901  35.489  1.00  0.00     0.183 C 
HETATM    8  N4  UNL     1      47.064  88.948  35.821  1.00  0.00    -0.172 NA
HETATM    9  N5  UNL     1      50.058  91.501  36.905  1.00  0.00    -0.309 N 
HETATM   10  C19 UNL     1      51.271  92.293  36.598  1.00  0.00     0.245 C 
HETATM   11  N10 UNL     1      50.440  93.506  36.174  1.00  0.00    -0.119 NA
ENDROOT
BRANCH   3  12
HETATM   12  C5  UNL     1      48.923  93.553  34.207  1.00  0.00     0.380 C 
HETATM   13  O3  UNL     1      48.428  93.009  33.250  1.00  0.00    -0.249 OA
HETATM   14  N2  UNL     1      48.662  94.887  34.719  1.00  0.00    -0.235 NA
BRANCH  14  15
HETATM   15  O4  UNL     1      48.450  95.932  35.110  1.00  0.00    -0.184 OA
BRANCH  15  16
HETATM   16  C6  UNL     1      49.076  97.139  35.009  1.00  0.00     0.183 C 
HETATM   17  C7  UNL     1      49.685  97.264  33.606  1.00  0.00     0.061 C 
HETATM   18  C8  UNL     1      48.215  98.337  35.247  1.00  0.00     0.061 C 
BRANCH  16  19
HETATM   19  C9  UNL     1      50.254  97.121  35.939  1.00  0.00     0.212 C 
HETATM   20  O5  UNL     1      51.432  97.314  35.566  1.00  0.00    -0.646 OA
HETATM   21  O6  UNL     1      49.937  96.864  37.291  1.00  0.00    -0.646 OA
ENDBRANCH  16  19
ENDBRANCH  15  16
ENDBRANCH  14  15
ENDBRANCH   3  12
BRANCH   9  22
HETATM   22  C12 UNL     1      49.652  90.925  38.123  1.00  0.00     0.050 C 
HETATM   23  C16 UNL     1      49.173  91.410  39.220  1.00  0.00     0.120 C 
HETATM   24  C17 UNL     1      48.862  90.428  40.321  1.00  0.00     0.106 C 
HETATM   25  N8  UNL     1      48.599  89.689  41.182  1.00  0.00    -0.191 NA
BRANCH  22  26
HETATM   26  C13 UNL     1      49.823  89.382  38.190  1.00  0.00     0.140 C 
BRANCH  26  27
HETATM   27  S1  UNL     1      51.443  89.018  38.810  1.00  0.00    -0.097 SA
BRANCH  27  28
HETATM   28  C14 UNL     1      52.201  87.556  38.127  1.00  0.00     0.129 A 
HETATM   29  N6  UNL     1      53.410  87.455  37.547  1.00  0.00    -0.287 N 
HETATM   30  N7  UNL     1      53.816  86.331  37.159  1.00  0.00    -0.281 N 
ATOM     31  H6  UNL     1      53.992  88.282  37.424  1.00  0.00     0.188 HD
HETATM   32  C15 UNL     1      53.068  85.242  37.320  1.00  0.00     0.209 A 
ATOM     33  H7  UNL     1      54.731  86.253  36.714  1.00  0.00     0.188 HD
HETATM   34  S3  UNL     1      51.686  85.912  38.082  1.00  0.00    -0.030 SA
BRANCH  32  35
HETATM   35  S2  UNL     1      53.398  83.575  36.871  1.00  0.00     0.163 S 
HETATM   36  O7  UNL     1      52.970  82.626  37.956  1.00  0.00    -0.590 OA
HETATM   37  O8  UNL     1      52.527  83.226  35.674  1.00  0.00    -0.590 OA
HETATM   38  O9  UNL     1      54.979  83.417  36.424  1.00  0.00    -0.590 OA
ENDBRANCH  32  35
ENDBRANCH  27  28
ENDBRANCH  26  27
ENDBRANCH  22  26
BRANCH  23  39
HETATM   39  C18 UNL     1      48.847  92.764  39.597  1.00  0.00     0.183 C 
HETATM   40  N9  UNL     1      49.115  93.772  38.873  1.00  0.00    -0.246 N 
ATOM     41  H9  UNL     1      49.586  93.601  37.985  1.00  0.00     0.196 HD
BRANCH  39  42
HETATM   42  O10 UNL     1      48.199  93.019  40.810  1.00  0.00    -0.344 OA
ATOM     43  H10 UNL     1      48.126  93.908  41.135  1.00  0.00     0.219 HD
ENDBRANCH  39  42
BRANCH  40  44
HETATM   44  O11 UNL     1      48.825  95.053  39.188  1.00  0.00    -0.288 OA
ATOM     45  H11 UNL     1      49.309  95.812  38.886  1.00  0.00     0.244 HD
ENDBRANCH  40  44
ENDBRANCH  23  39
ENDBRANCH   9  22
BRANCH  11  46
HETATM   46  O12 UNL     1      51.270  94.492  35.880  1.00  0.00    -0.307 OA
ATOM     47  H12 UNL     1      51.815  94.760  36.611  1.00  0.00     0.237 HD
ENDBRANCH  11  46
BRANCH   1  48
HETATM   48  N1  UNL     1      52.541  90.814  34.984  1.00  0.00    -0.332 N 
HETATM   49  C2  UNL     1      53.906  90.681  34.641  1.00  0.00     0.215 C 
HETATM   50  C1  UNL     1      54.376  89.276  34.239  1.00  0.00     0.117 C 
HETATM   51  O1  UNL     1      54.774  91.578  34.618  1.00  0.00    -0.274 OA
ATOM     52  H1  UNL     1      51.948  89.984  34.966  1.00  0.00     0.165 HD
ENDBRANCH   1  48
TORSDOF 14
ENDMDL
MODEL 4
REMARK VINA RESULT: -9.651022232      3.621      9.301
REMARK  14 active torsions:
REMARK  status: ('A' for Active; 'I' for Inactive)
REMARK       I    between atoms: C2_2  and  N1_4 
REMARK    1  A    between atoms: N1_4  and  C3_6 
REMARK    2  A    between atoms: C4_8  and  C5_9 
REMARK       I    between atoms: C5_9  and  N2_11 
REMARK    3  A    between atoms: N2_11  and  O4_12 
REMARK    4  A    between atoms: O4_12  and  C6_13 
REMARK    5  A    between atoms: C6_13  and  C9_16 
REMARK    6  A    between atoms: N5_24  and  C12_25 
REMARK    7  A    between atoms: C12_25  and  C13_26 
REMARK    8  A    between atoms: C13_26  and  S1_27 
REMARK    9  A    between atoms: S1_27  and  C14_28 
REMARK   10  A    between atoms: C15_33  and  S2_34 
REMARK   11  A    between atoms: C16_39  and  C18_42 
REMARK   12  A    between atoms: C18_42  and  O10_43 
REMARK   13  A    between atoms: N9_45  and  O11_47 
REMARK   14  A    between atoms: N10_50  and  O12_51 
ROOT
HETATM    1  C3  UNL     1      53.222  87.108  37.325  1.00  0.00     0.267 C 
HETATM    2  O2  UNL     1      54.333  86.845  38.200  1.00  0.00    -0.319 OA
HETATM    3  C4  UNL     1      53.771  86.554  39.392  1.00  0.00     0.302 C 
HETATM    4  C10 UNL     1      53.072  87.791  39.936  1.00  0.00     0.159 C 
HETATM    5  N3  UNL     1      53.648  88.520  40.761  1.00  0.00    -0.278 N 
ATOM      6  H3  UNL     1      54.586  88.195  40.995  1.00  0.00     0.179 HD
HETATM    7  C11 UNL     1      53.302  89.638  41.407  1.00  0.00     0.183 C 
HETATM    8  N4  UNL     1      52.966  90.627  41.954  1.00  0.00    -0.172 NA
HETATM    9  N5  UNL     1      51.794  87.755  39.301  1.00  0.00    -0.309 N 
HETATM   10  C19 UNL     1      52.048  86.869  38.142  1.00  0.00     0.245 C 
HETATM   11  N10 UNL     1      52.604  85.762  39.039  1.00  0.00    -0.119 NA
ENDROOT
BRANCH   3  12
HETATM   12  C5  UNL     1      54.684  85.951  40.384  1.00  0.00     0.380 C 
HETATM   13  O3  UNL     1      54.214  85.285  41.274  1.00  0.00    -0.249 OA
HETATM   14  N2  UNL     1      56.080  86.258  40.130  1.00  0.00    -0.235 NA
BRANCH  14  15
HETATM   15  O4  UNL     1      57.176  86.491  39.942  1.00  0.00    -0.184 OA
BRANCH  15  16
HETATM   16  C6  UNL     1      57.864  87.129  38.952  1.00  0.00     0.183 C 
HETATM   17  C7  UNL     1      59.326  87.285  39.389  1.00  0.00     0.061 C 
HETATM   18  C8  UNL     1      57.849  86.458  37.617  1.00  0.00     0.061 C 
BRANCH  16  19
HETATM   19  C9  UNL     1      57.337  88.532  38.862  1.00  0.00     0.212 C 
HETATM   20  O5  UNL     1      56.706  89.094  39.784  1.00  0.00    -0.646 OA
HETATM   21  O6  UNL     1      57.604  89.188  37.641  1.00  0.00    -0.646 OA
ENDBRANCH  16  19
ENDBRANCH  15  16
ENDBRANCH  14  15
ENDBRANCH   3  12
BRANCH   9  22
HETATM   22  C12 UNL     1      50.581  88.307  39.754  1.00  0.00     0.050 C 
HETATM   23  C16 UNL     1      49.998  88.346  40.905  1.00  0.00     0.120 C 
HETATM   24  C17 UNL     1      48.667  89.051  40.972  1.00  0.00     0.106 C 
HETATM   25  N8  UNL     1      47.645  89.605  41.053  1.00  0.00    -0.191 NA
BRANCH  22  26
HETATM   26  C13 UNL     1      49.745  89.008  38.649  1.00  0.00     0.140 C 
BRANCH  26  27
HETATM   27  S1  UNL     1      50.701  90.339  37.973  1.00  0.00    -0.097 SA
BRANCH  27  28
HETATM   28  C14 UNL     1      49.863  91.911  37.906  1.00  0.00     0.129 A 
HETATM   29  N6  UNL     1      49.477  92.679  38.940  1.00  0.00    -0.287 N 
HETATM   30  N7  UNL     1      48.937  93.791  38.717  1.00  0.00    -0.281 N 
ATOM     31  H6  UNL     1      49.622  92.362  39.898  1.00  0.00     0.188 HD
HETATM   32  C15 UNL     1      48.747  94.219  37.470  1.00  0.00     0.209 A 
ATOM     33  H7  UNL     1      48.639  94.372  39.500  1.00  0.00     0.188 HD
HETATM   34  S3  UNL     1      49.398  92.907  36.578  1.00  0.00    -0.030 SA
BRANCH  32  35
HETATM   35  S2  UNL     1      48.024  95.713  36.892  1.00  0.00     0.163 S 
HETATM   36  O7  UNL     1      48.063  96.779  37.951  1.00  0.00    -0.590 OA
HETATM   37  O8  UNL     1      48.885  96.248  35.759  1.00  0.00    -0.590 OA
HETATM   38  O9  UNL     1      46.514  95.411  36.296  1.00  0.00    -0.590 OA
ENDBRANCH  32  35
ENDBRANCH  27  28
ENDBRANCH  26  27
ENDBRANCH  22  26
BRANCH  23  39
HETATM   39  C18 UNL     1      50.405  87.840  42.194  1.00  0.00     0.183 C 
HETATM   40  N9  UNL     1      50.041  88.361  43.293  1.00  0.00    -0.246 N 
ATOM     41  H9  UNL     1      49.432  89.178  43.247  1.00  0.00     0.196 HD
BRANCH  39  42
HETATM   42  O10 UNL     1      51.239  86.720  42.277  1.00  0.00    -0.344 OA
ATOM     43  H10 UNL     1      51.033  85.934  41.785  1.00  0.00     0.219 HD
ENDBRANCH  39  42
BRANCH  40  44
HETATM   44  O11 UNL     1      50.397  87.917  44.517  1.00  0.00    -0.288 OA
ATOM     45  H11 UNL     1      50.444  88.454  45.300  1.00  0.00     0.244 HD
ENDBRANCH  40  44
ENDBRANCH  23  39
ENDBRANCH   9  22
BRANCH  11  46
HETATM   46  O12 UNL     1      52.886  84.717  38.278  1.00  0.00    -0.307 OA
ATOM     47  H12 UNL     1      53.256  84.951  37.435  1.00  0.00     0.237 HD
ENDBRANCH  11  46
BRANCH   1  48
HETATM   48  N1  UNL     1      53.472  88.299  36.614  1.00  0.00    -0.332 N 
HETATM   49  C2  UNL     1      54.574  88.448  35.742  1.00  0.00     0.215 C 
HETATM   50  C1  UNL     1      54.726  89.815  35.060  1.00  0.00     0.117 C 
HETATM   51  O1  UNL     1      55.446  87.598  35.467  1.00  0.00    -0.274 OA
ATOM     52  H1  UNL     1      52.832  89.085  36.735  1.00  0.00     0.165 HD
ENDBRANCH   1  48
TORSDOF 14
ENDMDL
MODEL 5
REMARK VINA RESULT: -9.606601934      3.059      5.106
REMARK  14 active torsions:
REMARK  status: ('A' for Active; 'I' for Inactive)
REMARK       I    between atoms: C2_2  and  N1_4 
REMARK    1  A    between atoms: N1_4  and  C3_6 
REMARK    2  A    between atoms: C4_8  and  C5_9 
REMARK       I    between atoms: C5_9  and  N2_11 
REMARK    3  A    between atoms: N2_11  and  O4_12 
REMARK    4  A    between atoms: O4_12  and  C6_13 
REMARK    5  A    between atoms: C6_13  and  C9_16 
REMARK    6  A    between atoms: N5_24  and  C12_25 
REMARK    7  A    between atoms: C12_25  and  C13_26 
REMARK    8  A    between atoms: C13_26  and  S1_27 
REMARK    9  A    between atoms: S1_27  and  C14_28 
REMARK   10  A    between atoms: C15_33  and  S2_34 
REMARK   11  A    between atoms: C16_39  and  C18_42 
REMARK   12  A    between atoms: C18_42  and  O10_43 
REMARK   13  A    between atoms: N9_45  and  O11_47 
REMARK   14  A    between atoms: N10_50  and  O12_51 
ROOT
HETATM    1  C3  UNL     1      49.141  89.890  36.641  1.00  0.00     0.267 C 
HETATM    2  O2  UNL     1      48.642  91.062  37.309  1.00  0.00    -0.319 OA
HETATM    3  C4  UNL     1      49.471  91.238  38.360  1.00  0.00     0.302 C 
HETATM    4  C10 UNL     1      49.306  90.079  39.333  1.00  0.00     0.159 C 
HETATM    5  N3  UNL     1      48.565  90.197  40.323  1.00  0.00    -0.278 N 
ATOM      6  H3  UNL     1      48.115  91.110  40.379  1.00  0.00     0.179 HD
HETATM    7  C11 UNL     1      48.232  89.383  41.330  1.00  0.00     0.183 C 
HETATM    8  N4  UNL     1      47.956  88.637  42.199  1.00  0.00    -0.172 NA
HETATM    9  N5  UNL     1      50.166  89.074  38.796  1.00  0.00    -0.309 N 
HETATM   10  C19 UNL     1      50.324  89.517  37.392  1.00  0.00     0.245 C 
HETATM   11  N10 UNL     1      50.781  90.911  37.824  1.00  0.00    -0.119 NA
ENDROOT
BRANCH   3  12
HETATM   12  C5  UNL     1      49.357  92.547  39.035  1.00  0.00     0.380 C 
HETATM   13  O3  UNL     1      48.823  92.597  40.115  1.00  0.00    -0.249 OA
HETATM   14  N2  UNL     1      49.939  93.634  38.266  1.00  0.00    -0.235 NA
BRANCH  14  15
HETATM   15  O4  UNL     1      50.391  94.491  37.675  1.00  0.00    -0.184 OA
BRANCH  15  16
HETATM   16  C6  UNL     1      50.027  95.181  36.556  1.00  0.00     0.183 C 
HETATM   17  C7  UNL     1      49.275  96.449  36.981  1.00  0.00     0.061 C 
HETATM   18  C8  UNL     1      51.146  95.588  35.653  1.00  0.00     0.061 C 
BRANCH  16  19
HETATM   19  C9  UNL     1      49.009  94.358  35.824  1.00  0.00     0.212 C 
HETATM   20  O5  UNL     1      49.305  93.427  35.042  1.00  0.00    -0.646 OA
HETATM   21  O6  UNL     1      47.666  94.711  36.078  1.00  0.00    -0.646 OA
ENDBRANCH  16  19
ENDBRANCH  15  16
ENDBRANCH  14  15
ENDBRANCH   3  12
BRANCH   9  22
HETATM   22  C12 UNL     1      50.806  88.022  39.478  1.00  0.00     0.050 C 
HETATM   23  C16 UNL     1      51.509  87.961  40.559  1.00  0.00     0.120 C 
HETATM   24  C17 UNL     1      52.032  86.604  40.957  1.00  0.00     0.106 C 
HETATM   25  N8  UNL     1      52.433  85.565  41.296  1.00  0.00    -0.191 NA
BRANCH  22  26
HETATM   26  C13 UNL     1      50.661  86.634  38.794  1.00  0.00     0.140 C 
BRANCH  26  27
HETATM   27  S1  UNL     1      52.157  86.279  37.911  1.00  0.00    -0.097 SA
BRANCH  27  28
HETATM   28  C14 UNL     1      52.366  84.572  37.440  1.00  0.00     0.129 A 
HETATM   29  N6  UNL     1      52.133  83.481  38.190  1.00  0.00    -0.287 N 
HETATM   30  N7  UNL     1      52.287  82.340  37.686  1.00  0.00    -0.281 N 
ATOM     31  H6  UNL     1      51.833  83.577  39.159  1.00  0.00     0.188 HD
HETATM   32  C15 UNL     1      52.672  82.201  36.419  1.00  0.00     0.209 A 
ATOM     33  H7  UNL     1      52.115  81.511  38.254  1.00  0.00     0.188 HD
HETATM   34  S3  UNL     1      52.820  83.843  35.946  1.00  0.00    -0.030 SA
BRANCH  32  35
HETATM   35  S2  UNL     1      52.958  80.740  35.485  1.00  0.00     0.163 S 
HETATM   36  O7  UNL     1      52.524  79.517  36.245  1.00  0.00    -0.590 OA
HETATM   37  O8  UNL     1      52.063  80.781  34.256  1.00  0.00    -0.590 OA
HETATM   38  O9  UNL     1      54.529  80.696  34.980  1.00  0.00    -0.590 OA
ENDBRANCH  32  35
ENDBRANCH  27  28
ENDBRANCH  26  27
ENDBRANCH  22  26
BRANCH  23  39
HETATM   39  C18 UNL     1      51.887  88.984  41.505  1.00  0.00     0.183 C 
HETATM   40  N9  UNL     1      52.300  90.133  41.159  1.00  0.00    -0.246 N 
ATOM     41  H9  UNL     1      52.364  90.329  40.160  1.00  0.00     0.196 HD
BRANCH  39  42
HETATM   42  O10 UNL     1      51.804  88.734  42.879  1.00  0.00    -0.344 OA
ATOM     43  H10 UNL     1      50.991  88.425  43.259  1.00  0.00     0.219 HD
ENDBRANCH  39  42
BRANCH  40  44
HETATM   44  O11 UNL     1      52.660  91.116  42.012  1.00  0.00    -0.288 OA
ATOM     45  H11 UNL     1      52.205  91.944  42.113  1.00  0.00     0.244 HD
ENDBRANCH  40  44
ENDBRANCH  23  39
ENDBRANCH   9  22
BRANCH  11  46
HETATM   46  O12 UNL     1      51.094  91.598  36.738  1.00  0.00    -0.307 OA
ATOM     47  H12 UNL     1      50.687  91.263  35.948  1.00  0.00     0.237 HD
ENDBRANCH  11  46
BRANCH   1  48
HETATM   48  N1  UNL     1      48.062  89.026  36.367  1.00  0.00    -0.332 N 
HETATM   49  C2  UNL     1      47.006  89.379  35.497  1.00  0.00     0.215 C 
HETATM   50  C1  UNL     1      45.890  88.340  35.320  1.00  0.00     0.117 C 
HETATM   51  O1  UNL     1      46.870  90.444  34.860  1.00  0.00    -0.274 OA
ATOM     52  H1  UNL     1      48.043  88.109  36.814  1.00  0.00     0.165 HD
ENDBRANCH   1  48
TORSDOF 14
ENDMDL
