MODEL 1
REMARK VINA RESULT: -8.714619042      0.000      0.000
REMARK  15 active torsions:
REMARK  status: ('A' for Active; 'I' for Inactive)
REMARK    1  A    between atoms: O1_2  and  C2_3 
REMARK    2  A    between atoms: C4_5  and  O2_6 
REMARK    3  A    between atoms: C5_8  and  O3_9 
REMARK    4  A    between atoms: O3_9  and  C6_10 
REMARK    5  A    between atoms: C7_12  and  O5_13 
REMARK    6  A    between atoms: O5_13  and  S1_14 
REMARK    7  A    between atoms: C8_18  and  O9_19 
REMARK    8  A    between atoms: C8_18  and  C9_21 
REMARK    9  A    between atoms: C10_24  and  O12_25 
REMARK   10  A    between atoms: O12_25  and  S2_26 
REMARK   11  A    between atoms: C11_30  and  O16_31 
REMARK   12  A    between atoms: C12_33  and  O17_34 
REMARK   13  A    between atoms: O17_34  and  S3_35 
REMARK   14  A    between atoms: C13_39  and  O21_40 
REMARK   15  A    between atoms: O21_40  and  S4_41 
ROOT
HETATM    1  C6  UNL     1      49.966  91.864  36.951  1.00  0.00     0.301 C 
HETATM    2  O4  UNL     1      51.148  92.387  36.581  1.00  0.00    -0.323 OA
HETATM    3  C7  UNL     1      51.204  93.517  35.835  1.00  0.00     0.332 C 
HETATM    4  C8  UNL     1      50.151  94.478  36.394  1.00  0.00     0.227 C 
HETATM    5  C10 UNL     1      48.846  93.881  35.885  1.00  0.00     0.229 C 
HETATM    6  C11 UNL     1      48.710  92.556  36.584  1.00  0.00     0.208 C 
ENDROOT
BRANCH   1   7
HETATM    7  O3  UNL     1      49.963  90.471  36.580  1.00  0.00    -0.312 OA
BRANCH   7   8
HETATM    8  C5  UNL     1      50.686  89.502  37.219  1.00  0.00     0.143 A 
HETATM    9  C4  UNL     1      51.871  89.098  36.662  1.00  0.00     0.104 A 
HETATM   10  C3  UNL     1      52.643  88.122  37.261  1.00  0.00     0.079 A 
HETATM   11  C2  UNL     1      52.245  87.543  38.413  1.00  0.00     0.108 A 
HETATM   12  C13 UNL     1      51.041  87.911  39.039  1.00  0.00     0.160 A 
HETATM   13  C12 UNL     1      50.301  88.884  38.412  1.00  0.00     0.165 A 
BRANCH   9  14
HETATM   14  O2  UNL     1      52.342  89.654  35.474  1.00  0.00    -0.358 OA
ATOM     15  H2  UNL     1      51.925  90.449  35.164  1.00  0.00     0.217 HD
ENDBRANCH   9  14
BRANCH  11  16
HETATM   16  O1  UNL     1      53.033  86.564  39.000  1.00  0.00    -0.353 OA
HETATM   17  C1  UNL     1      54.434  86.658  39.094  1.00  0.00     0.210 C 
ENDBRANCH  11  16
BRANCH  12  18
HETATM   18  O21 UNL     1      50.715  87.266  40.201  1.00  0.00    -0.227 OA
BRANCH  18  19
HETATM   19  S4  UNL     1      51.477  87.282  41.681  1.00  0.00     0.266 S 
HETATM   20  C14 UNL     1      52.680  88.539  41.906  1.00  0.00     0.194 C 
HETATM   21  O22 UNL     1      50.455  87.404  42.802  1.00  0.00    -0.199 OA
HETATM   22  O23 UNL     1      52.170  85.950  41.968  1.00  0.00    -0.199 OA
ENDBRANCH  18  19
ENDBRANCH  12  18
BRANCH  13  23
HETATM   23  O17 UNL     1      49.100  89.320  38.933  1.00  0.00    -0.208 OA
BRANCH  23  24
HETATM   24  S3  UNL     1      48.851  90.199  40.333  1.00  0.00     0.257 S 
HETATM   25  O18 UNL     1      50.066  90.587  41.081  1.00  0.00    -0.572 OA
HETATM   26  O19 UNL     1      48.008  91.412  40.003  1.00  0.00    -0.572 OA
HETATM   27  O20 UNL     1      47.974  89.186  41.396  1.00  0.00    -0.572 OA
ENDBRANCH  23  24
ENDBRANCH  13  23
ENDBRANCH   7   8
ENDBRANCH   1   7
BRANCH   6  28
HETATM   28  O16 UNL     1      47.876  92.823  37.699  1.00  0.00    -0.388 OA
ATOM     29  H16 UNL     1      46.970  92.973  37.458  1.00  0.00     0.210 HD
ENDBRANCH   6  28
BRANCH   3  30
HETATM   30  O5  UNL     1      50.931  93.228  34.501  1.00  0.00    -0.220 OA
BRANCH  30  31
HETATM   31  S1  UNL     1      52.187  92.513  33.686  1.00  0.00     0.254 S 
HETATM   32  O6  UNL     1      52.439  93.272  32.388  1.00  0.00    -0.572 OA
HETATM   33  O7  UNL     1      51.760  91.122  33.287  1.00  0.00    -0.572 OA
HETATM   34  O8  UNL     1      53.612  92.461  34.550  1.00  0.00    -0.572 OA
ENDBRANCH  30  31
ENDBRANCH   3  30
BRANCH   5  35
HETATM   35  O12 UNL     1      47.761  94.685  36.133  1.00  0.00    -0.245 OA
BRANCH  35  36
HETATM   36  S2  UNL     1      46.440  94.369  35.154  1.00  0.00     0.252 S 
HETATM   37  O13 UNL     1      46.796  93.626  33.922  1.00  0.00    -0.572 OA
HETATM   38  O14 UNL     1      45.716  95.624  34.771  1.00  0.00    -0.572 OA
HETATM   39  O15 UNL     1      45.384  93.400  36.052  1.00  0.00    -0.572 OA
ENDBRANCH  35  36
ENDBRANCH   5  35
BRANCH   4  40
HETATM   40  O9  UNL     1      50.165  94.265  37.794  1.00  0.00    -0.373 OA
ATOM     41  H9  UNL     1      50.519  95.066  38.162  1.00  0.00     0.211 HD
ENDBRANCH   4  40
BRANCH   4  42
HETATM   42  C9  UNL     1      50.356  95.868  36.047  1.00  0.00     0.217 C 
HETATM   43  O10 UNL     1      50.196  96.762  36.900  1.00  0.00    -0.645 OA
HETATM   44  O11 UNL     1      50.729  96.226  34.772  1.00  0.00    -0.645 OA
ENDBRANCH   4  42
TORSDOF 15
ENDMDL
MODEL 2
REMARK VINA RESULT: -8.363304928      2.577      8.555
REMARK  15 active torsions:
REMARK  status: ('A' for Active; 'I' for Inactive)
REMARK    1  A    between atoms: O1_2  and  C2_3 
REMARK    2  A    between atoms: C4_5  and  O2_6 
REMARK    3  A    between atoms: C5_8  and  O3_9 
REMARK    4  A    between atoms: O3_9  and  C6_10 
REMARK    5  A    between atoms: C7_12  and  O5_13 
REMARK    6  A    between atoms: O5_13  and  S1_14 
REMARK    7  A    between atoms: C8_18  and  O9_19 
REMARK    8  A    between atoms: C8_18  and  C9_21 
REMARK    9  A    between atoms: C10_24  and  O12_25 
REMARK   10  A    between atoms: O12_25  and  S2_26 
REMARK   11  A    between atoms: C11_30  and  O16_31 
REMARK   12  A    between atoms: C12_33  and  O17_34 
REMARK   13  A    between atoms: O17_34  and  S3_35 
REMARK   14  A    between atoms: C13_39  and  O21_40 
REMARK   15  A    between atoms: O21_40  and  S4_41 
ROOT
HETATM    1  C6  UNL     1      51.693  88.029  40.775  1.00  0.00     0.301 C 
HETATM    2  O4  UNL     1      51.634  86.755  41.200  1.00  0.00    -0.323 OA
HETATM    3  C7  UNL     1      52.752  85.992  41.263  1.00  0.00     0.332 C 
HETATM    4  C8  UNL     1      53.867  86.874  41.832  1.00  0.00     0.227 C 
HETATM    5  C10 UNL     1      54.218  87.774  40.655  1.00  0.00     0.229 C 
HETATM    6  C11 UNL     1      53.000  88.625  40.421  1.00  0.00     0.208 C 
ENDROOT
BRANCH   1   7
HETATM    7  O3  UNL     1      50.706  88.196  39.738  1.00  0.00    -0.312 OA
BRANCH   7   8
HETATM    8  C5  UNL     1      50.884  88.964  38.621  1.00  0.00     0.143 A 
HETATM    9  C4  UNL     1      51.417  88.376  37.502  1.00  0.00     0.104 A 
HETATM   10  C3  UNL     1      51.621  89.102  36.345  1.00  0.00     0.079 A 
HETATM   11  C2  UNL     1      51.299  90.411  36.290  1.00  0.00     0.108 A 
HETATM   12  C13 UNL     1      50.749  91.076  37.400  1.00  0.00     0.160 A 
HETATM   13  C12 UNL     1      50.561  90.321  38.532  1.00  0.00     0.165 A 
BRANCH   9  14
HETATM   14  O2  UNL     1      51.770  87.028  37.490  1.00  0.00    -0.358 OA
ATOM     15  H2  UNL     1      51.677  86.540  38.300  1.00  0.00     0.217 HD
ENDBRANCH   9  14
BRANCH  11  16
HETATM   16  O1  UNL     1      51.512  91.123  35.120  1.00  0.00    -0.353 OA
HETATM   17  C1  UNL     1      52.788  91.536  34.691  1.00  0.00     0.210 C 
ENDBRANCH  11  16
BRANCH  12  18
HETATM   18  O21 UNL     1      50.460  92.406  37.254  1.00  0.00    -0.227 OA
BRANCH  18  19
HETATM   19  S4  UNL     1      49.151  93.142  36.535  1.00  0.00     0.266 S 
HETATM   20  C14 UNL     1      49.526  94.294  35.266  1.00  0.00     0.194 C 
HETATM   21  O22 UNL     1      48.208  92.098  35.957  1.00  0.00    -0.199 OA
HETATM   22  O23 UNL     1      48.291  93.879  37.560  1.00  0.00    -0.199 OA
ENDBRANCH  18  19
ENDBRANCH  12  18
BRANCH  13  23
HETATM   23  O17 UNL     1      50.033  90.870  39.682  1.00  0.00    -0.208 OA
BRANCH  23  24
HETATM   24  S3  UNL     1      48.420  91.040  40.088  1.00  0.00     0.257 S 
HETATM   25  O18 UNL     1      47.460  90.998  38.963  1.00  0.00    -0.572 OA
HETATM   26  O19 UNL     1      48.071  90.007  41.137  1.00  0.00    -0.572 OA
HETATM   27  O20 UNL     1      48.249  92.600  40.766  1.00  0.00    -0.572 OA
ENDBRANCH  23  24
ENDBRANCH  13  23
ENDBRANCH   7   8
ENDBRANCH   1   7
BRANCH   6  28
HETATM   28  O16 UNL     1      53.268  89.831  41.115  1.00  0.00    -0.388 OA
ATOM     29  H16 UNL     1      54.049  89.786  41.654  1.00  0.00     0.210 HD
ENDBRANCH   6  28
BRANCH   3  30
HETATM   30  O5  UNL     1      53.099  85.538  39.994  1.00  0.00    -0.220 OA
BRANCH  30  31
HETATM   31  S1  UNL     1      52.318  84.149  39.528  1.00  0.00     0.254 S 
HETATM   32  O6  UNL     1      53.194  83.389  38.540  1.00  0.00    -0.572 OA
HETATM   33  O7  UNL     1      51.071  84.540  38.774  1.00  0.00    -0.572 OA
HETATM   34  O8  UNL     1      51.942  83.129  40.791  1.00  0.00    -0.572 OA
ENDBRANCH  30  31
ENDBRANCH   3  30
BRANCH   5  35
HETATM   35  O12 UNL     1      55.326  88.550  40.890  1.00  0.00    -0.245 OA
BRANCH  35  36
HETATM   36  S2  UNL     1      56.673  88.105  40.001  1.00  0.00     0.252 S 
HETATM   37  O13 UNL     1      57.770  87.566  40.841  1.00  0.00    -0.572 OA
HETATM   38  O14 UNL     1      57.204  89.242  39.183  1.00  0.00    -0.572 OA
HETATM   39  O15 UNL     1      56.182  86.876  38.947  1.00  0.00    -0.572 OA
ENDBRANCH  35  36
ENDBRANCH   5  35
BRANCH   4  40
HETATM   40  O9  UNL     1      53.229  87.703  42.787  1.00  0.00    -0.373 OA
ATOM     41  H9  UNL     1      52.491  88.087  42.328  1.00  0.00     0.211 HD
ENDBRANCH   4  40
BRANCH   4  42
HETATM   42  C9  UNL     1      54.986  86.148  42.394  1.00  0.00     0.217 C 
HETATM   43  O10 UNL     1      55.341  85.059  41.905  1.00  0.00    -0.645 OA
HETATM   44  O11 UNL     1      55.675  86.648  43.475  1.00  0.00    -0.645 OA
ENDBRANCH   4  42
TORSDOF 15
ENDMDL
MODEL 3
REMARK VINA RESULT: -8.353867459      2.144      8.047
REMARK  15 active torsions:
REMARK  status: ('A' for Active; 'I' for Inactive)
REMARK    1  A    between atoms: O1_2  and  C2_3 
REMARK    2  A    between atoms: C4_5  and  O2_6 
REMARK    3  A    between atoms: C5_8  and  O3_9 
REMARK    4  A    between atoms: O3_9  and  C6_10 
REMARK    5  A    between atoms: C7_12  and  O5_13 
REMARK    6  A    between atoms: O5_13  and  S1_14 
REMARK    7  A    between atoms: C8_18  and  O9_19 
REMARK    8  A    between atoms: C8_18  and  C9_21 
REMARK    9  A    between atoms: C10_24  and  O12_25 
REMARK   10  A    between atoms: O12_25  and  S2_26 
REMARK   11  A    between atoms: C11_30  and  O16_31 
REMARK   12  A    between atoms: C12_33  and  O17_34 
REMARK   13  A    between atoms: O17_34  and  S3_35 
REMARK   14  A    between atoms: C13_39  and  O21_40 
REMARK   15  A    between atoms: O21_40  and  S4_41 
ROOT
HETATM    1  C6  UNL     1      50.321  88.243  37.906  1.00  0.00     0.301 C 
HETATM    2  O4  UNL     1      50.994  87.098  37.690  1.00  0.00    -0.323 OA
HETATM    3  C7  UNL     1      52.015  86.730  38.502  1.00  0.00     0.332 C 
HETATM    4  C8  UNL     1      51.579  87.031  39.938  1.00  0.00     0.227 C 
HETATM    5  C10 UNL     1      51.704  88.547  40.017  1.00  0.00     0.229 C 
HETATM    6  C11 UNL     1      50.663  89.085  39.073  1.00  0.00     0.208 C 
ENDROOT
BRANCH   1   7
HETATM    7  O3  UNL     1      50.301  88.983  36.670  1.00  0.00    -0.312 OA
BRANCH   7   8
HETATM    8  C5  UNL     1      49.540  90.098  36.452  1.00  0.00     0.143 A 
HETATM    9  C4  UNL     1      48.176  89.984  36.537  1.00  0.00     0.104 A 
HETATM   10  C3  UNL     1      47.356  91.075  36.326  1.00  0.00     0.079 A 
HETATM   11  C2  UNL     1      47.881  92.282  36.030  1.00  0.00     0.108 A 
HETATM   12  C13 UNL     1      49.271  92.469  35.927  1.00  0.00     0.160 A 
HETATM   13  C12 UNL     1      50.054  91.361  36.144  1.00  0.00     0.165 A 
BRANCH   9  14
HETATM   14  O2  UNL     1      47.567  88.768  36.841  1.00  0.00    -0.358 OA
ATOM     15  H2  UNL     1      46.633  88.691  36.683  1.00  0.00     0.217 HD
ENDBRANCH   9  14
BRANCH  11  16
HETATM   16  O1  UNL     1      47.042  93.365  35.820  1.00  0.00    -0.353 OA
HETATM   17  C1  UNL     1      45.653  93.319  36.045  1.00  0.00     0.210 C 
ENDBRANCH  11  16
BRANCH  12  18
HETATM   18  O21 UNL     1      49.714  93.726  35.617  1.00  0.00    -0.227 OA
BRANCH  18  19
HETATM   19  S4  UNL     1      50.433  94.875  36.584  1.00  0.00     0.266 S 
HETATM   20  C14 UNL     1      49.342  96.000  37.373  1.00  0.00     0.194 C 
HETATM   21  O22 UNL     1      51.278  94.208  37.659  1.00  0.00    -0.199 OA
HETATM   22  O23 UNL     1      51.441  95.715  35.800  1.00  0.00    -0.199 OA
ENDBRANCH  18  19
ENDBRANCH  12  18
BRANCH  13  23
HETATM   23  O17 UNL     1      51.429  91.427  36.065  1.00  0.00    -0.208 OA
BRANCH  23  24
HETATM   24  S3  UNL     1      52.378  91.394  34.688  1.00  0.00     0.257 S 
HETATM   25  O18 UNL     1      53.201  90.180  34.497  1.00  0.00    -0.572 OA
HETATM   26  O19 UNL     1      51.498  91.648  33.484  1.00  0.00    -0.572 OA
HETATM   27  O20 UNL     1      53.499  92.677  34.837  1.00  0.00    -0.572 OA
ENDBRANCH  23  24
ENDBRANCH  13  23
ENDBRANCH   7   8
ENDBRANCH   1   7
BRANCH   6  28
HETATM   28  O16 UNL     1      49.547  89.374  39.897  1.00  0.00    -0.388 OA
ATOM     29  H16 UNL     1      49.693  90.113  40.476  1.00  0.00     0.210 HD
ENDBRANCH   6  28
BRANCH   3  30
HETATM   30  O5  UNL     1      53.165  87.448  38.187  1.00  0.00    -0.220 OA
BRANCH  30  31
HETATM   31  S1  UNL     1      54.480  86.505  37.818  1.00  0.00     0.254 S 
HETATM   32  O6  UNL     1      54.049  85.045  37.761  1.00  0.00    -0.572 OA
HETATM   33  O7  UNL     1      55.469  86.611  38.953  1.00  0.00    -0.572 OA
HETATM   34  O8  UNL     1      55.208  86.897  36.370  1.00  0.00    -0.572 OA
ENDBRANCH  30  31
ENDBRANCH   3  30
BRANCH   5  35
HETATM   35  O12 UNL     1      51.517  89.032  41.287  1.00  0.00    -0.245 OA
BRANCH  35  36
HETATM   36  S2  UNL     1      52.493  90.337  41.671  1.00  0.00     0.252 S 
HETATM   37  O13 UNL     1      52.264  90.848  43.044  1.00  0.00    -0.572 OA
HETATM   38  O14 UNL     1      52.325  91.465  40.700  1.00  0.00    -0.572 OA
HETATM   39  O15 UNL     1      54.093  89.795  41.585  1.00  0.00    -0.572 OA
ENDBRANCH  35  36
ENDBRANCH   5  35
BRANCH   4  40
HETATM   40  O9  UNL     1      50.193  86.746  39.970  1.00  0.00    -0.373 OA
ATOM     41  H9  UNL     1      50.124  85.825  39.746  1.00  0.00     0.211 HD
ENDBRANCH   4  40
BRANCH   4  42
HETATM   42  C9  UNL     1      52.313  86.311  40.957  1.00  0.00     0.217 C 
HETATM   43  O10 UNL     1      51.860  85.252  41.431  1.00  0.00    -0.645 OA
HETATM   44  O11 UNL     1      53.519  86.784  41.419  1.00  0.00    -0.645 OA
ENDBRANCH   4  42
TORSDOF 15
ENDMDL
MODEL 4
REMARK VINA RESULT: -8.351904411      1.406      1.873
REMARK  15 active torsions:
REMARK  status: ('A' for Active; 'I' for Inactive)
REMARK    1  A    between atoms: O1_2  and  C2_3 
REMARK    2  A    between atoms: C4_5  and  O2_6 
REMARK    3  A    between atoms: C5_8  and  O3_9 
REMARK    4  A    between atoms: O3_9  and  C6_10 
REMARK    5  A    between atoms: C7_12  and  O5_13 
REMARK    6  A    between atoms: O5_13  and  S1_14 
REMARK    7  A    between atoms: C8_18  and  O9_19 
REMARK    8  A    between atoms: C8_18  and  C9_21 
REMARK    9  A    between atoms: C10_24  and  O12_25 
REMARK   10  A    between atoms: O12_25  and  S2_26 
REMARK   11  A    between atoms: C11_30  and  O16_31 
REMARK   12  A    between atoms: C12_33  and  O17_34 
REMARK   13  A    between atoms: O17_34  and  S3_35 
REMARK   14  A    between atoms: C13_39  and  O21_40 
REMARK   15  A    between atoms: O21_40  and  S4_41 
ROOT
HETATM    1  C6  UNL     1      49.226  90.707  37.964  1.00  0.00     0.301 C 
HETATM    2  O4  UNL     1      50.335  91.458  37.839  1.00  0.00    -0.323 OA
HETATM    3  C7  UNL     1      50.317  92.608  37.124  1.00  0.00     0.332 C 
HETATM    4  C8  UNL     1      49.012  93.332  37.467  1.00  0.00     0.227 C 
HETATM    5  C10 UNL     1      47.969  92.524  36.706  1.00  0.00     0.229 C 
HETATM    6  C11 UNL     1      47.957  91.168  37.358  1.00  0.00     0.208 C 
ENDROOT
BRANCH   1   7
HETATM    7  O3  UNL     1      49.562  89.356  37.593  1.00  0.00    -0.312 OA
BRANCH   7   8
HETATM    8  C5  UNL     1      50.736  88.736  37.921  1.00  0.00     0.143 A 
HETATM    9  C4  UNL     1      51.769  88.777  37.020  1.00  0.00     0.104 A 
HETATM   10  C3  UNL     1      52.978  88.168  37.296  1.00  0.00     0.079 A 
HETATM   11  C2  UNL     1      53.169  87.518  38.463  1.00  0.00     0.108 A 
HETATM   12  C13 UNL     1      52.152  87.438  39.431  1.00  0.00     0.160 A 
HETATM   13  C12 UNL     1      50.965  88.055  39.120  1.00  0.00     0.165 A 
BRANCH   9  14
HETATM   14  O2  UNL     1      51.641  89.432  35.798  1.00  0.00    -0.358 OA
ATOM     15  H2  UNL     1      52.274  90.111  35.593  1.00  0.00     0.217 HD
ENDBRANCH   9  14
BRANCH  11  16
HETATM   16  O1  UNL     1      54.389  86.912  38.721  1.00  0.00    -0.353 OA
HETATM   17  C1  UNL     1      55.626  87.533  38.468  1.00  0.00     0.210 C 
ENDBRANCH  11  16
BRANCH  12  18
HETATM   18  O21 UNL     1      52.433  86.753  40.581  1.00  0.00    -0.227 OA
BRANCH  18  19
HETATM   19  S4  UNL     1      53.244  87.248  41.949  1.00  0.00     0.266 S 
HETATM   20  C14 UNL     1      54.241  88.680  41.767  1.00  0.00     0.194 C 
HETATM   21  O22 UNL     1      52.264  87.499  43.084  1.00  0.00    -0.199 OA
HETATM   22  O23 UNL     1      54.151  86.144  42.491  1.00  0.00    -0.199 OA
ENDBRANCH  18  19
ENDBRANCH  12  18
BRANCH  13  23
HETATM   23  O17 UNL     1      49.896  88.038  39.993  1.00  0.00    -0.208 OA
BRANCH  23  24
HETATM   24  S3  UNL     1      49.544  89.138  41.202  1.00  0.00     0.257 S 
HETATM   25  O18 UNL     1      49.435  88.586  42.570  1.00  0.00    -0.572 OA
HETATM   26  O19 UNL     1      50.558  90.260  41.149  1.00  0.00    -0.572 OA
HETATM   27  O20 UNL     1      47.996  89.772  40.848  1.00  0.00    -0.572 OA
ENDBRANCH  23  24
ENDBRANCH  13  23
ENDBRANCH   7   8
ENDBRANCH   1   7
BRANCH   6  28
HETATM   28  O16 UNL     1      46.886  91.226  38.286  1.00  0.00    -0.388 OA
ATOM     29  H16 UNL     1      46.478  92.083  38.330  1.00  0.00     0.210 HD
ENDBRANCH   6  28
BRANCH   3  30
HETATM   30  O5  UNL     1      50.369  92.331  35.761  1.00  0.00    -0.220 OA
BRANCH  30  31
HETATM   31  S1  UNL     1      51.732  92.894  35.000  1.00  0.00     0.254 S 
HETATM   32  O6  UNL     1      52.465  93.852  35.931  1.00  0.00    -0.572 OA
HETATM   33  O7  UNL     1      51.302  93.710  33.806  1.00  0.00    -0.572 OA
HETATM   34  O8  UNL     1      52.793  91.695  34.537  1.00  0.00    -0.572 OA
ENDBRANCH  30  31
ENDBRANCH   3  30
BRANCH   5  35
HETATM   35  O12 UNL     1      46.723  93.099  36.737  1.00  0.00    -0.245 OA
BRANCH  35  36
HETATM   36  S2  UNL     1      45.936  93.105  35.259  1.00  0.00     0.252 S 
HETATM   37  O13 UNL     1      46.117  91.843  34.503  1.00  0.00    -0.572 OA
HETATM   38  O14 UNL     1      46.371  94.252  34.399  1.00  0.00    -0.572 OA
HETATM   39  O15 UNL     1      44.286  93.278  35.583  1.00  0.00    -0.572 OA
ENDBRANCH  35  36
ENDBRANCH   5  35
BRANCH   4  40
HETATM   40  O9  UNL     1      48.794  93.066  38.841  1.00  0.00    -0.373 OA
ATOM     41  H9  UNL     1      48.918  93.901  39.277  1.00  0.00     0.211 HD
ENDBRANCH   4  40
BRANCH   4  42
HETATM   42  C9  UNL     1      49.010  94.749  37.175  1.00  0.00     0.217 C 
HETATM   43  O10 UNL     1      49.156  95.153  36.006  1.00  0.00    -0.645 OA
HETATM   44  O11 UNL     1      48.847  95.673  38.181  1.00  0.00    -0.645 OA
ENDBRANCH   4  42
TORSDOF 15
ENDMDL
MODEL 5
REMARK VINA RESULT: -8.311646988      1.576      2.445
REMARK  15 active torsions:
REMARK  status: ('A' for Active; 'I' for Inactive)
REMARK    1  A    between atoms: O1_2  and  C2_3 
REMARK    2  A    between atoms: C4_5  and  O2_6 
REMARK    3  A    between atoms: C5_8  and  O3_9 
REMARK    4  A    between atoms: O3_9  and  C6_10 
REMARK    5  A    between atoms: C7_12  and  O5_13 
REMARK    6  A    between atoms: O5_13  and  S1_14 
REMARK    7  A    between atoms: C8_18  and  O9_19 
REMARK    8  A    between atoms: C8_18  and  C9_21 
REMARK    9  A    between atoms: C10_24  and  O12_25 
REMARK   10  A    between atoms: O12_25  and  S2_26 
REMARK   11  A    between atoms: C11_30  and  O16_31 
REMARK   12  A    between atoms: C12_33  and  O17_34 
REMARK   13  A    between atoms: O17_34  and  S3_35 
REMARK   14  A    between atoms: C13_39  and  O21_40 
REMARK   15  A    between atoms: O21_40  and  S4_41 
ROOT
HETATM    1  C6  UNL     1      49.585  90.373  38.147  1.00  0.00     0.301 C 
HETATM    2  O4  UNL     1      50.664  91.166  38.029  1.00  0.00    -0.323 OA
HETATM    3  C7  UNL     1      50.595  92.334  37.345  1.00  0.00     0.332 C 
HETATM    4  C8  UNL     1      49.270  93.000  37.725  1.00  0.00     0.227 C 
HETATM    5  C10 UNL     1      48.246  92.175  36.956  1.00  0.00     0.229 C 
HETATM    6  C11 UNL     1      48.292  90.803  37.571  1.00  0.00     0.208 C 
ENDROOT
BRANCH   1   7
HETATM    7  O3  UNL     1      49.964  89.045  37.736  1.00  0.00    -0.312 OA
BRANCH   7   8
HETATM    8  C5  UNL     1      51.193  88.489  37.963  1.00  0.00     0.143 A 
HETATM    9  C4  UNL     1      52.172  88.662  37.018  1.00  0.00     0.104 A 
HETATM   10  C3  UNL     1      53.431  88.123  37.192  1.00  0.00     0.079 A 
HETATM   11  C2  UNL     1      53.728  87.413  38.299  1.00  0.00     0.108 A 
HETATM   12  C13 UNL     1      52.772  87.197  39.308  1.00  0.00     0.160 A 
HETATM   13  C12 UNL     1      51.531  87.748  39.099  1.00  0.00     0.165 A 
BRANCH   9  14
HETATM   14  O2  UNL     1      51.934  89.386  35.851  1.00  0.00    -0.358 OA
ATOM     15  H2  UNL     1      51.493  90.224  35.934  1.00  0.00     0.217 HD
ENDBRANCH   9  14
BRANCH  11  16
HETATM   16  O1  UNL     1      54.998  86.879  38.455  1.00  0.00    -0.353 OA
HETATM   17  C1  UNL     1      55.670  86.180  37.435  1.00  0.00     0.210 C 
ENDBRANCH  11  16
BRANCH  12  18
HETATM   18  O21 UNL     1      53.159  86.459  40.393  1.00  0.00    -0.227 OA
BRANCH  18  19
HETATM   19  S4  UNL     1      53.210  84.808  40.598  1.00  0.00     0.266 S 
HETATM   20  C14 UNL     1      53.235  83.856  39.124  1.00  0.00     0.194 C 
HETATM   21  O22 UNL     1      54.420  84.414  41.431  1.00  0.00    -0.199 OA
HETATM   22  O23 UNL     1      52.024  84.310  41.424  1.00  0.00    -0.199 OA
ENDBRANCH  18  19
ENDBRANCH  12  18
BRANCH  13  23
HETATM   23  O17 UNL     1      50.514  87.598  40.019  1.00  0.00    -0.208 OA
BRANCH  23  24
HETATM   24  S3  UNL     1      50.240  88.502  41.399  1.00  0.00     0.257 S 
HETATM   25  O18 UNL     1      51.021  89.751  41.522  1.00  0.00    -0.572 OA
HETATM   26  O19 UNL     1      48.757  88.776  41.514  1.00  0.00    -0.572 OA
HETATM   27  O20 UNL     1      50.730  87.534  42.721  1.00  0.00    -0.572 OA
ENDBRANCH  23  24
ENDBRANCH  13  23
ENDBRANCH   7   8
ENDBRANCH   1   7
BRANCH   6  28
HETATM   28  O16 UNL     1      47.233  90.798  38.514  1.00  0.00    -0.388 OA
ATOM     29  H16 UNL     1      46.860  91.659  38.659  1.00  0.00     0.210 HD
ENDBRANCH   6  28
BRANCH   3  30
HETATM   30  O5  UNL     1      50.638  92.094  35.975  1.00  0.00    -0.220 OA
BRANCH  30  31
HETATM   31  S1  UNL     1      51.924  92.799  35.198  1.00  0.00     0.254 S 
HETATM   32  O6  UNL     1      52.471  93.931  36.060  1.00  0.00    -0.572 OA
HETATM   33  O7  UNL     1      51.415  93.441  33.930  1.00  0.00    -0.572 OA
HETATM   34  O8  UNL     1      53.170  91.745  34.859  1.00  0.00    -0.572 OA
ENDBRANCH  30  31
ENDBRANCH   3  30
BRANCH   5  35
HETATM   35  O12 UNL     1      46.981  92.704  37.019  1.00  0.00    -0.245 OA
BRANCH  35  36
HETATM   36  S2  UNL     1      46.224  92.842  35.532  1.00  0.00     0.252 S 
HETATM   37  O13 UNL     1      46.162  91.559  34.792  1.00  0.00    -0.572 OA
HETATM   38  O14 UNL     1      46.883  93.871  34.664  1.00  0.00    -0.572 OA
HETATM   39  O15 UNL     1      44.636  93.339  35.833  1.00  0.00    -0.572 OA
ENDBRANCH  35  36
ENDBRANCH   5  35
BRANCH   4  40
HETATM   40  O9  UNL     1      49.081  92.690  39.093  1.00  0.00    -0.373 OA
ATOM     41  H9  UNL     1      49.376  93.460  39.565  1.00  0.00     0.211 HD
ENDBRANCH   4  40
BRANCH   4  42
HETATM   42  C9  UNL     1      49.213  94.423  37.471  1.00  0.00     0.217 C 
HETATM   43  O10 UNL     1      49.364  94.865  36.317  1.00  0.00    -0.645 OA
HETATM   44  O11 UNL     1      48.992  95.311  38.499  1.00  0.00    -0.645 OA
ENDBRANCH   4  42
TORSDOF 15
ENDMDL
