MODEL 1
REMARK VINA RESULT: -7.911605723      0.000      0.000
REMARK  5 active torsions:
REMARK  status: ('A' for Active; 'I' for Inactive)
REMARK    1  A    between atoms: C2_2  and  C3_3 
REMARK    2  A    between atoms: C3_3  and  C4_4 
REMARK    3  A    between atoms: C4_4  and  O1_6 
REMARK    4  A    between atoms: C4_4  and  C6_8 
REMARK    5  A    between atoms: C11_13  and  O2_14 
ROOT
HETATM    1  C6  UNL     1      35.815  24.364  21.533  1.00  0.00     0.028 C 
HETATM    2  C7  UNL     1      34.311  24.256  21.446  1.00  0.00     0.009 C 
HETATM    3  C8  UNL     1      33.895  25.593  20.935  1.00  0.00     0.006 C 
HETATM    4  C9  UNL     1      35.163  26.353  20.553  1.00  0.00     0.001 C 
HETATM    5  C10 UNL     1      35.490  27.282  21.621  1.00  0.00     0.028 C 
HETATM    6  C11 UNL     1      34.680  28.578  21.459  1.00  0.00     0.124 C 
HETATM    7  C12 UNL     1      35.911  29.330  21.827  1.00  0.00     0.042 C 
HETATM    8  C13 UNL     1      36.716  28.041  21.628  1.00  0.00    -0.021 C 
HETATM    9  C14 UNL     1      37.632  27.887  22.839  1.00  0.00     0.088 C 
HETATM   10  C15 UNL     1      38.853  28.566  22.404  1.00  0.00     0.128 C 
HETATM   11  O3  UNL     1      39.636  29.203  23.107  1.00  0.00    -0.298 OA
HETATM   12  C16 UNL     1      38.978  28.342  20.945  1.00  0.00     0.083 C 
HETATM   13  C17 UNL     1      37.550  28.135  20.431  1.00  0.00     0.002 C 
HETATM   14  C18 UNL     1      37.569  26.979  19.509  1.00  0.00     0.006 C 
HETATM   15  C19 UNL     1      37.546  25.645  20.224  1.00  0.00     0.010 C 
HETATM   16  C20 UNL     1      36.137  25.203  20.344  1.00  0.00    -0.034 C 
HETATM   17  C21 UNL     1      35.725  24.580  19.019  1.00  0.00     0.016 C 
ENDROOT
BRANCH   1  18
HETATM   18  C4  UNL     1      36.522  23.102  21.701  1.00  0.00     0.061 C 
HETATM   19  C5  UNL     1      37.493  22.721  20.622  1.00  0.00     0.046 C 
BRANCH  18  20
HETATM   20  C3  UNL     1      35.496  21.965  21.756  1.00  0.00     0.064 C 
BRANCH  20  21
HETATM   21  C2  UNL     1      35.582  21.039  20.626  1.00  0.00    -0.034 C 
HETATM   22  C1  UNL     1      34.819  19.960  20.595  1.00  0.00     0.007 C 
ENDBRANCH  20  21
ENDBRANCH  18  20
BRANCH  18  23
HETATM   23  O1  UNL     1      37.194  23.072  22.911  1.00  0.00    -0.390 OA
ATOM     24  H1  UNL     1      36.902  23.836  23.394  1.00  0.00     0.210 HD
ENDBRANCH  18  23
ENDBRANCH   1  18
BRANCH   6  25
HETATM   25  O2  UNL     1      33.592  28.684  22.289  1.00  0.00    -0.395 OA
ATOM     26  H2  UNL     1      33.132  29.514  22.237  1.00  0.00     0.210 HD
ENDBRANCH   6  25
TORSDOF 5
ENDMDL
MODEL 2
REMARK VINA RESULT: -7.409029579      1.716      2.340
REMARK  5 active torsions:
REMARK  status: ('A' for Active; 'I' for Inactive)
REMARK    1  A    between atoms: C2_2  and  C3_3 
REMARK    2  A    between atoms: C3_3  and  C4_4 
REMARK    3  A    between atoms: C4_4  and  O1_6 
REMARK    4  A    between atoms: C4_4  and  C6_8 
REMARK    5  A    between atoms: C11_13  and  O2_14 
ROOT
HETATM    1  C6  UNL     1      35.499  24.508  20.858  1.00  0.00     0.028 C 
HETATM    2  C7  UNL     1      34.728  23.967  19.677  1.00  0.00     0.009 C 
HETATM    3  C8  UNL     1      34.249  25.195  18.981  1.00  0.00     0.006 C 
HETATM    4  C9  UNL     1      34.917  26.393  19.653  1.00  0.00     0.001 C 
HETATM    5  C10 UNL     1      33.969  27.000  20.573  1.00  0.00     0.028 C 
HETATM    6  C11 UNL     1      33.040  27.960  19.814  1.00  0.00     0.124 C 
HETATM    7  C12 UNL     1      33.177  28.908  20.955  1.00  0.00     0.042 C 
HETATM    8  C13 UNL     1      34.348  28.063  21.470  1.00  0.00    -0.021 C 
HETATM    9  C14 UNL     1      34.121  27.838  22.963  1.00  0.00     0.088 C 
HETATM   10  C15 UNL     1      34.834  28.964  23.567  1.00  0.00     0.128 C 
HETATM   11  O3  UNL     1      34.530  29.565  24.597  1.00  0.00    -0.298 OA
HETATM   12  C16 UNL     1      36.002  29.253  22.704  1.00  0.00     0.083 C 
HETATM   13  C17 UNL     1      35.611  28.778  21.301  1.00  0.00     0.002 C 
HETATM   14  C18 UNL     1      36.760  28.031  20.745  1.00  0.00     0.006 C 
HETATM   15  C19 UNL     1      36.842  26.605  21.246  1.00  0.00     0.010 C 
HETATM   16  C20 UNL     1      36.132  25.730  20.284  1.00  0.00    -0.034 C 
HETATM   17  C21 UNL     1      37.071  25.449  19.120  1.00  0.00     0.016 C 
ENDROOT
BRANCH   1  18
HETATM   18  C4  UNL     1      36.349  23.544  21.542  1.00  0.00     0.061 C 
HETATM   19  C5  UNL     1      37.539  23.033  20.782  1.00  0.00     0.046 C 
BRANCH  18  20
HETATM   20  C3  UNL     1      35.514  22.306  21.886  1.00  0.00     0.064 C 
BRANCH  20  21
HETATM   21  C2  UNL     1      35.863  21.123  21.099  1.00  0.00    -0.034 C 
HETATM   22  C1  UNL     1      34.928  20.249  20.769  1.00  0.00     0.007 C 
ENDBRANCH  20  21
ENDBRANCH  18  20
BRANCH  18  23
HETATM   23  O1  UNL     1      36.799  24.052  22.748  1.00  0.00    -0.390 OA
ATOM     24  H1  UNL     1      36.070  24.535  23.119  1.00  0.00     0.210 HD
ENDBRANCH  18  23
ENDBRANCH   1  18
BRANCH   6  25
HETATM   25  O2  UNL     1      31.791  27.458  19.544  1.00  0.00    -0.395 OA
ATOM     26  H2  UNL     1      31.129  27.669  20.191  1.00  0.00     0.210 HD
ENDBRANCH   6  25
TORSDOF 5
ENDMDL
MODEL 3
REMARK VINA RESULT: -7.353140619      2.211      3.000
REMARK  5 active torsions:
REMARK  status: ('A' for Active; 'I' for Inactive)
REMARK    1  A    between atoms: C2_2  and  C3_3 
REMARK    2  A    between atoms: C3_3  and  C4_4 
REMARK    3  A    between atoms: C4_4  and  O1_6 
REMARK    4  A    between atoms: C4_4  and  C6_8 
REMARK    5  A    between atoms: C11_13  and  O2_14 
ROOT
HETATM    1  C6  UNL     1      36.677  25.295  20.881  1.00  0.00     0.028 C 
HETATM    2  C7  UNL     1      36.612  25.136  22.382  1.00  0.00     0.009 C 
HETATM    3  C8  UNL     1      35.765  26.282  22.818  1.00  0.00     0.006 C 
HETATM    4  C9  UNL     1      35.205  26.942  21.560  1.00  0.00     0.001 C 
HETATM    5  C10 UNL     1      35.994  28.126  21.264  1.00  0.00     0.028 C 
HETATM    6  C11 UNL     1      35.491  29.316  22.096  1.00  0.00     0.124 C 
HETATM    7  C12 UNL     1      35.656  30.165  20.884  1.00  0.00     0.042 C 
HETATM    8  C13 UNL     1      35.809  28.886  20.053  1.00  0.00    -0.021 C 
HETATM    9  C14 UNL     1      37.024  29.076  19.149  1.00  0.00     0.088 C 
HETATM   10  C15 UNL     1      36.434  29.643  17.935  1.00  0.00     0.128 C 
HETATM   11  O3  UNL     1      36.949  30.459  17.174  1.00  0.00    -0.298 OA
HETATM   12  C16 UNL     1      35.086  29.047  17.789  1.00  0.00     0.083 C 
HETATM   13  C17 UNL     1      34.635  28.681  19.206  1.00  0.00     0.002 C 
HETATM   14  C18 UNL     1      34.049  27.324  19.154  1.00  0.00     0.006 C 
HETATM   15  C19 UNL     1      35.089  26.225  19.160  1.00  0.00     0.010 C 
HETATM   16  C20 UNL     1      35.312  25.800  20.561  1.00  0.00    -0.034 C 
HETATM   17  C21 UNL     1      34.194  24.841  20.946  1.00  0.00     0.016 C 
ENDROOT
BRANCH   1  18
HETATM   18  C4  UNL     1      37.176  24.137  20.153  1.00  0.00     0.061 C 
HETATM   19  C5  UNL     1      36.377  23.691  18.962  1.00  0.00     0.046 C 
BRANCH  18  20
HETATM   20  C3  UNL     1      37.213  22.935  21.102  1.00  0.00     0.064 C 
BRANCH  20  21
HETATM   21  C2  UNL     1      36.244  21.891  20.768  1.00  0.00    -0.034 C 
HETATM   22  C1  UNL     1      35.445  21.405  21.703  1.00  0.00     0.007 C 
ENDBRANCH  20  21
ENDBRANCH  18  20
BRANCH  18  23
HETATM   23  O1  UNL     1      38.481  24.341  19.739  1.00  0.00    -0.390 OA
ATOM     24  H1  UNL     1      38.434  24.558  18.815  1.00  0.00     0.210 HD
ENDBRANCH  18  23
ENDBRANCH   1  18
BRANCH   6  25
HETATM   25  O2  UNL     1      36.257  29.613  23.196  1.00  0.00    -0.395 OA
ATOM     26  H2  UNL     1      36.421  30.539  23.329  1.00  0.00     0.210 HD
ENDBRANCH   6  25
TORSDOF 5
ENDMDL
MODEL 4
REMARK VINA RESULT: -7.190918497      1.004      1.050
REMARK  5 active torsions:
REMARK  status: ('A' for Active; 'I' for Inactive)
REMARK    1  A    between atoms: C2_2  and  C3_3 
REMARK    2  A    between atoms: C3_3  and  C4_4 
REMARK    3  A    between atoms: C4_4  and  O1_6 
REMARK    4  A    between atoms: C4_4  and  C6_8 
REMARK    5  A    between atoms: C11_13  and  O2_14 
ROOT
HETATM    1  C6  UNL     1      35.078  24.670  20.549  1.00  0.00     0.028 C 
HETATM    2  C7  UNL     1      33.585  24.742  20.330  1.00  0.00     0.009 C 
HETATM    3  C8  UNL     1      33.345  26.184  20.039  1.00  0.00     0.006 C 
HETATM    4  C9  UNL     1      34.710  26.856  19.898  1.00  0.00     0.001 C 
HETATM    5  C10 UNL     1      35.019  27.547  21.139  1.00  0.00     0.028 C 
HETATM    6  C11 UNL     1      34.353  28.931  21.152  1.00  0.00     0.124 C 
HETATM    7  C12 UNL     1      35.609  29.471  21.743  1.00  0.00     0.042 C 
HETATM    8  C13 UNL     1      36.305  28.155  21.376  1.00  0.00    -0.021 C 
HETATM    9  C14 UNL     1      37.084  27.696  22.606  1.00  0.00     0.088 C 
HETATM   10  C15 UNL     1      38.399  28.303  22.395  1.00  0.00     0.128 C 
HETATM   11  O3  UNL     1      39.167  28.722  23.259  1.00  0.00    -0.298 OA
HETATM   12  C16 UNL     1      38.639  28.322  20.934  1.00  0.00     0.083 C 
HETATM   13  C17 UNL     1      37.253  28.363  20.284  1.00  0.00     0.002 C 
HETATM   14  C18 UNL     1      37.251  27.388  19.172  1.00  0.00     0.006 C 
HETATM   15  C19 UNL     1      37.036  25.961  19.630  1.00  0.00     0.010 C 
HETATM   16  C20 UNL     1      35.588  25.661  19.560  1.00  0.00    -0.034 C 
HETATM   17  C21 UNL     1      35.246  25.324  18.116  1.00  0.00     0.016 C 
ENDROOT
BRANCH   1  18
HETATM   18  C4  UNL     1      35.644  23.328  20.540  1.00  0.00     0.061 C 
HETATM   19  C5  UNL     1      35.801  22.669  19.200  1.00  0.00     0.046 C 
BRANCH  18  20
HETATM   20  C3  UNL     1      34.735  22.402  21.354  1.00  0.00     0.064 C 
BRANCH  20  21
HETATM   21  C2  UNL     1      35.415  21.214  21.871  1.00  0.00    -0.034 C 
HETATM   22  C1  UNL     1      35.023  20.010  21.492  1.00  0.00     0.007 C 
ENDBRANCH  20  21
ENDBRANCH  18  20
BRANCH  18  23
HETATM   23  O1  UNL     1      36.877  23.309  21.171  1.00  0.00    -0.390 OA
ATOM     24  H1  UNL     1      37.223  24.191  21.100  1.00  0.00     0.210 HD
ENDBRANCH  18  23
ENDBRANCH   1  18
BRANCH   6  25
HETATM   25  O2  UNL     1      33.206  29.010  21.902  1.00  0.00    -0.395 OA
ATOM     26  H2  UNL     1      32.450  29.351  21.438  1.00  0.00     0.210 HD
ENDBRANCH   6  25
TORSDOF 5
ENDMDL
MODEL 5
REMARK VINA RESULT: -6.957081022      1.915      3.243
REMARK  5 active torsions:
REMARK  status: ('A' for Active; 'I' for Inactive)
REMARK    1  A    between atoms: C2_2  and  C3_3 
REMARK    2  A    between atoms: C3_3  and  C4_4 
REMARK    3  A    between atoms: C4_4  and  O1_6 
REMARK    4  A    between atoms: C4_4  and  C6_8 
REMARK    5  A    between atoms: C11_13  and  O2_14 
ROOT
HETATM    1  C6  UNL     1      36.132  24.483  20.352  1.00  0.00     0.028 C 
HETATM    2  C7  UNL     1      36.769  23.875  21.580  1.00  0.00     0.009 C 
HETATM    3  C8  UNL     1      36.525  24.895  22.639  1.00  0.00     0.006 C 
HETATM    4  C9  UNL     1      35.592  25.952  22.052  1.00  0.00     0.001 C 
HETATM    5  C10 UNL     1      36.384  27.103  21.654  1.00  0.00     0.028 C 
HETATM    6  C11 UNL     1      36.633  28.015  22.865  1.00  0.00     0.124 C 
HETATM    7  C12 UNL     1      36.378  29.180  21.973  1.00  0.00     0.042 C 
HETATM    8  C13 UNL     1      35.813  28.211  20.929  1.00  0.00    -0.021 C 
HETATM    9  C14 UNL     1      36.443  28.573  19.586  1.00  0.00     0.088 C 
HETATM   10  C15 UNL     1      35.485  29.530  19.032  1.00  0.00     0.128 C 
HETATM   11  O3  UNL     1      35.737  30.498  18.316  1.00  0.00    -0.298 OA
HETATM   12  C16 UNL     1      34.140  29.116  19.494  1.00  0.00     0.083 C 
HETATM   13  C17 UNL     1      34.364  28.369  20.812  1.00  0.00     0.002 C 
HETATM   14  C18 UNL     1      33.536  27.144  20.780  1.00  0.00     0.006 C 
HETATM   15  C19 UNL     1      34.168  26.018  19.990  1.00  0.00     0.010 C 
HETATM   16  C20 UNL     1      34.939  25.166  20.925  1.00  0.00    -0.034 C 
HETATM   17  C21 UNL     1      33.964  24.227  21.620  1.00  0.00     0.016 C 
ENDROOT
BRANCH   1  18
HETATM   18  C4  UNL     1      35.937  23.569  19.235  1.00  0.00     0.061 C 
HETATM   19  C5  UNL     1      34.537  23.429  18.711  1.00  0.00     0.046 C 
BRANCH  18  20
HETATM   20  C3  UNL     1      36.360  22.162  19.668  1.00  0.00     0.064 C 
BRANCH  20  21
HETATM   21  C2  UNL     1      35.238  21.241  19.854  1.00  0.00    -0.034 C 
HETATM   22  C1  UNL     1      35.151  20.518  20.958  1.00  0.00     0.007 C 
ENDBRANCH  20  21
ENDBRANCH  18  20
BRANCH  18  23
HETATM   23  O1  UNL     1      36.758  23.907  18.173  1.00  0.00    -0.390 OA
ATOM     24  H1  UNL     1      36.822  24.855  18.180  1.00  0.00     0.210 HD
ENDBRANCH  18  23
ENDBRANCH   1  18
BRANCH   6  25
HETATM   25  O2  UNL     1      37.881  27.899  23.426  1.00  0.00    -0.395 OA
ATOM     26  H2  UNL     1      37.891  27.889  24.376  1.00  0.00     0.210 HD
ENDBRANCH   6  25
TORSDOF 5
ENDMDL
