MODEL 1
REMARK VINA RESULT: -7.564095369      0.000      0.000
REMARK  4 active torsions:
REMARK  status: ('A' for Active; 'I' for Inactive)
REMARK    1  A    between atoms: C2_2  and  C3_3 
REMARK    2  A    between atoms: C2_2  and  C8_12 
REMARK    3  A    between atoms: C3_3  and  N1_4 
REMARK    4  A    between atoms: C15_19  and  O1_20 
ROOT
HETATM    1  C8  UNL     1      34.320  27.433  21.088  1.00  0.00    -0.008 C 
HETATM    2  C9  UNL     1      33.807  28.500  21.992  1.00  0.00     0.005 C 
HETATM    3  C10 UNL     1      32.859  29.330  21.079  1.00  0.00     0.006 C 
HETATM    4  C11 UNL     1      33.825  30.118  20.213  1.00  0.00    -0.002 C 
HETATM    5  C12 UNL     1      33.150  31.245  19.499  1.00  0.00    -0.003 C 
HETATM    6  C13 UNL     1      31.662  31.191  19.812  1.00  0.00     0.008 C 
HETATM    7  C14 UNL     1      31.086  32.151  18.818  1.00  0.00     0.032 C 
HETATM    8  C15 UNL     1      31.962  32.040  17.606  1.00  0.00     0.122 C 
HETATM    9  C16 UNL     1      33.179  31.225  18.023  1.00  0.00     0.019 C 
HETATM   10  C17 UNL     1      33.081  29.806  17.538  1.00  0.00     0.008 C 
HETATM   11  C18 UNL     1      34.302  29.076  17.954  1.00  0.00     0.010 C 
HETATM   12  C19 UNL     1      34.736  29.286  19.382  1.00  0.00    -0.040 C 
HETATM   13  C20 UNL     1      36.032  30.127  19.272  1.00  0.00     0.015 C 
HETATM   14  C21 UNL     1      35.137  27.966  19.951  1.00  0.00     0.014 C 
ENDROOT
BRANCH   1  15
HETATM   15  C2  UNL     1      35.187  26.402  21.843  1.00  0.00     0.014 C 
HETATM   16  C1  UNL     1      35.165  26.704  23.319  1.00  0.00     0.012 C 
BRANCH  15  17
HETATM   17  C3  UNL     1      34.739  25.019  21.522  1.00  0.00     0.277 C 
BRANCH  17  18
HETATM   18  N1  UNL     1      35.643  24.148  20.910  1.00  0.00     0.092 N 
HETATM   19  C4  UNL     1      37.026  24.381  20.944  1.00  0.00     0.300 C 
HETATM   20  C5  UNL     1      37.820  23.156  21.402  1.00  0.00     0.262 C 
HETATM   21  N2  UNL     1      37.491  22.025  20.583  1.00  0.00    -0.072 N 
HETATM   22  C6  UNL     1      36.079  21.822  20.427  1.00  0.00     0.262 C 
ATOM     23  H22 UNL     1      37.949  22.092  19.674  1.00  0.00     0.277 HD
ATOM     24  H21 UNL     1      37.939  21.180  20.938  1.00  0.00     0.277 HD
HETATM   25  C7  UNL     1      35.347  22.791  21.323  1.00  0.00     0.300 C 
ENDBRANCH  17  18
ENDBRANCH  15  17
ENDBRANCH   1  15
BRANCH   8  26
HETATM   26  O1  UNL     1      31.244  31.397  16.602  1.00  0.00    -0.395 OA
ATOM     27  H1  UNL     1      31.711  30.606  16.359  1.00  0.00     0.210 HD
ENDBRANCH   8  26
TORSDOF 4
ENDMDL
MODEL 2
REMARK VINA RESULT: -7.267802319      1.231      1.803
REMARK  4 active torsions:
REMARK  status: ('A' for Active; 'I' for Inactive)
REMARK    1  A    between atoms: C2_2  and  C3_3 
REMARK    2  A    between atoms: C2_2  and  C8_12 
REMARK    3  A    between atoms: C3_3  and  N1_4 
REMARK    4  A    between atoms: C15_19  and  O1_20 
ROOT
HETATM    1  C8  UNL     1      34.747  27.185  19.408  1.00  0.00    -0.008 C 
HETATM    2  C9  UNL     1      33.659  27.176  20.425  1.00  0.00     0.005 C 
HETATM    3  C10 UNL     1      32.634  28.209  19.874  1.00  0.00     0.006 C 
HETATM    4  C11 UNL     1      33.301  29.540  20.171  1.00  0.00    -0.002 C 
HETATM    5  C12 UNL     1      32.349  30.687  20.049  1.00  0.00    -0.003 C 
HETATM    6  C13 UNL     1      31.006  30.149  19.578  1.00  0.00     0.008 C 
HETATM    7  C14 UNL     1      30.267  31.399  19.212  1.00  0.00     0.032 C 
HETATM    8  C15 UNL     1      31.314  32.345  18.706  1.00  0.00     0.122 C 
HETATM    9  C16 UNL     1      32.663  31.723  19.045  1.00  0.00     0.019 C 
HETATM   10  C17 UNL     1      33.289  31.081  17.839  1.00  0.00     0.008 C 
HETATM   11  C18 UNL     1      34.603  30.517  18.229  1.00  0.00     0.010 C 
HETATM   12  C19 UNL     1      34.623  29.732  19.515  1.00  0.00    -0.040 C 
HETATM   13  C20 UNL     1      35.416  30.626  20.501  1.00  0.00     0.015 C 
HETATM   14  C21 UNL     1      35.446  28.505  19.304  1.00  0.00     0.014 C 
ENDROOT
BRANCH   1  15
HETATM   15  C2  UNL     1      35.818  26.111  19.697  1.00  0.00     0.014 C 
HETATM   16  C1  UNL     1      37.166  26.603  19.240  1.00  0.00     0.012 C 
BRANCH  15  17
HETATM   17  C3  UNL     1      35.790  25.730  21.137  1.00  0.00     0.277 C 
BRANCH  17  18
HETATM   18  N1  UNL     1      35.694  24.378  21.469  1.00  0.00     0.092 N 
HETATM   19  C4  UNL     1      34.993  23.470  20.662  1.00  0.00     0.300 C 
HETATM   20  C5  UNL     1      35.810  22.219  20.333  1.00  0.00     0.262 C 
HETATM   21  N2  UNL     1      36.275  21.605  21.544  1.00  0.00    -0.072 N 
HETATM   22  C6  UNL     1      36.895  22.527  22.452  1.00  0.00     0.262 C 
ATOM     23  H22 UNL     1      35.519  21.098  22.004  1.00  0.00     0.277 HD
ATOM     24  H21 UNL     1      36.900  20.826  21.337  1.00  0.00     0.277 HD
HETATM   25  C7  UNL     1      37.017  23.869  21.773  1.00  0.00     0.300 C 
ENDBRANCH  17  18
ENDBRANCH  15  17
ENDBRANCH   1  15
BRANCH   8  26
HETATM   26  O1  UNL     1      31.153  32.482  17.330  1.00  0.00    -0.395 OA
ATOM     27  H1  UNL     1      31.002  33.400  17.136  1.00  0.00     0.210 HD
ENDBRANCH   8  26
TORSDOF 4
ENDMDL
MODEL 3
REMARK VINA RESULT: -7.266633022      3.831      7.865
REMARK  4 active torsions:
REMARK  status: ('A' for Active; 'I' for Inactive)
REMARK    1  A    between atoms: C2_2  and  C3_3 
REMARK    2  A    between atoms: C2_2  and  C8_12 
REMARK    3  A    between atoms: C3_3  and  N1_4 
REMARK    4  A    between atoms: C15_19  and  O1_20 
ROOT
HETATM    1  C8  UNL     1      34.410  27.949  21.061  1.00  0.00    -0.008 C 
HETATM    2  C9  UNL     1      33.440  27.045  20.383  1.00  0.00     0.005 C 
HETATM    3  C10 UNL     1      33.769  25.644  20.976  1.00  0.00     0.006 C 
HETATM    4  C11 UNL     1      35.060  25.271  20.270  1.00  0.00    -0.002 C 
HETATM    5  C12 UNL     1      35.382  23.818  20.416  1.00  0.00    -0.003 C 
HETATM    6  C13 UNL     1      34.332  23.180  21.313  1.00  0.00     0.008 C 
HETATM    7  C14 UNL     1      34.934  21.842  21.616  1.00  0.00     0.032 C 
HETATM    8  C15 UNL     1      36.415  22.072  21.644  1.00  0.00     0.122 C 
HETATM    9  C16 UNL     1      36.650  23.471  21.089  1.00  0.00     0.019 C 
HETATM   10  C17 UNL     1      36.921  24.457  22.188  1.00  0.00     0.008 C 
HETATM   11  C18 UNL     1      37.163  25.789  21.583  1.00  0.00     0.010 C 
HETATM   12  C19 UNL     1      36.192  26.206  20.509  1.00  0.00    -0.040 C 
HETATM   13  C20 UNL     1      37.018  26.154  19.200  1.00  0.00     0.015 C 
HETATM   14  C21 UNL     1      35.837  27.639  20.727  1.00  0.00     0.014 C 
ENDROOT
BRANCH   1  15
HETATM   15  C2  UNL     1      34.160  29.432  20.711  1.00  0.00     0.014 C 
HETATM   16  C1  UNL     1      35.478  30.150  20.575  1.00  0.00     0.012 C 
BRANCH  15  17
HETATM   17  C3  UNL     1      33.308  29.538  19.494  1.00  0.00     0.277 C 
BRANCH  17  18
HETATM   18  N1  UNL     1      32.142  30.302  19.559  1.00  0.00     0.092 N 
HETATM   19  C4  UNL     1      32.181  31.704  19.578  1.00  0.00     0.300 C 
HETATM   20  C5  UNL     1      31.248  32.335  18.543  1.00  0.00     0.262 C 
HETATM   21  N2  UNL     1      29.913  31.839  18.719  1.00  0.00    -0.072 N 
HETATM   22  C6  UNL     1      29.843  30.409  18.824  1.00  0.00     0.262 C 
ATOM     23  H22 UNL     1      29.466  32.282  19.523  1.00  0.00     0.277 HD
ATOM     24  H21 UNL     1      29.301  32.176  17.977  1.00  0.00     0.277 HD
HETATM   25  C7  UNL     1      31.212  29.835  18.551  1.00  0.00     0.300 C 
ENDBRANCH  17  18
ENDBRANCH  15  17
ENDBRANCH   1  15
BRANCH   8  26
HETATM   26  O1  UNL     1      36.850  21.972  22.962  1.00  0.00    -0.395 OA
ATOM     27  H1  UNL     1      37.525  21.304  23.005  1.00  0.00     0.210 HD
ENDBRANCH   8  26
TORSDOF 4
ENDMDL
MODEL 4
REMARK VINA RESULT: -7.201789366      3.821      7.895
REMARK  4 active torsions:
REMARK  status: ('A' for Active; 'I' for Inactive)
REMARK    1  A    between atoms: C2_2  and  C3_3 
REMARK    2  A    between atoms: C2_2  and  C8_12 
REMARK    3  A    between atoms: C3_3  and  N1_4 
REMARK    4  A    between atoms: C15_19  and  O1_20 
ROOT
HETATM    1  C8  UNL     1      34.275  28.060  20.915  1.00  0.00    -0.008 C 
HETATM    2  C9  UNL     1      33.383  27.117  20.186  1.00  0.00     0.005 C 
HETATM    3  C10 UNL     1      33.733  25.731  20.801  1.00  0.00     0.006 C 
HETATM    4  C11 UNL     1      35.076  25.410  20.170  1.00  0.00    -0.002 C 
HETATM    5  C12 UNL     1      35.448  23.972  20.339  1.00  0.00    -0.003 C 
HETATM    6  C13 UNL     1      34.375  23.292  21.176  1.00  0.00     0.008 C 
HETATM    7  C14 UNL     1      35.012  21.980  21.517  1.00  0.00     0.032 C 
HETATM    8  C15 UNL     1      36.479  22.270  21.628  1.00  0.00     0.122 C 
HETATM    9  C16 UNL     1      36.688  23.676  21.084  1.00  0.00     0.019 C 
HETATM   10  C17 UNL     1      36.857  24.674  22.195  1.00  0.00     0.008 C 
HETATM   11  C18 UNL     1      37.078  26.014  21.601  1.00  0.00     0.010 C 
HETATM   12  C19 UNL     1      36.154  26.391  20.471  1.00  0.00    -0.040 C 
HETATM   13  C20 UNL     1      37.056  26.371  19.212  1.00  0.00     0.015 C 
HETATM   14  C21 UNL     1      35.730  27.808  20.665  1.00  0.00     0.014 C 
ENDROOT
BRANCH   1  15
HETATM   15  C2  UNL     1      33.986  29.532  20.548  1.00  0.00     0.014 C 
HETATM   16  C1  UNL     1      34.703  29.886  19.271  1.00  0.00     0.012 C 
BRANCH  15  17
HETATM   17  C3  UNL     1      32.517  29.767  20.478  1.00  0.00     0.277 C 
BRANCH  17  18
HETATM   18  N1  UNL     1      31.976  30.275  19.296  1.00  0.00     0.092 N 
HETATM   19  C4  UNL     1      30.962  29.600  18.601  1.00  0.00     0.300 C 
HETATM   20  C5  UNL     1      29.776  30.504  18.260  1.00  0.00     0.262 C 
HETATM   21  N2  UNL     1      30.231  31.661  17.545  1.00  0.00    -0.072 N 
HETATM   22  C6  UNL     1      31.349  32.315  18.165  1.00  0.00     0.262 C 
ATOM     23  H22 UNL     1      30.443  31.426  16.575  1.00  0.00     0.277 HD
ATOM     24  H21 UNL     1      29.466  32.319  17.397  1.00  0.00     0.277 HD
HETATM   25  C7  UNL     1      31.613  31.663  19.500  1.00  0.00     0.300 C 
ENDBRANCH  17  18
ENDBRANCH  15  17
ENDBRANCH   1  15
BRANCH   8  26
HETATM   26  O1  UNL     1      36.842  22.188  22.969  1.00  0.00    -0.395 OA
ATOM     27  H1  UNL     1      37.679  21.743  23.027  1.00  0.00     0.210 HD
ENDBRANCH   8  26
TORSDOF 4
ENDMDL
MODEL 5
REMARK VINA RESULT: -7.072798506      1.408      2.429
REMARK  4 active torsions:
REMARK  status: ('A' for Active; 'I' for Inactive)
REMARK    1  A    between atoms: C2_2  and  C3_3 
REMARK    2  A    between atoms: C2_2  and  C8_12 
REMARK    3  A    between atoms: C3_3  and  N1_4 
REMARK    4  A    between atoms: C15_19  and  O1_20 
ROOT
HETATM    1  C8  UNL     1      36.044  28.466  21.024  1.00  0.00    -0.008 C 
HETATM    2  C9  UNL     1      36.357  28.556  19.572  1.00  0.00     0.005 C 
HETATM    3  C10 UNL     1      35.389  29.660  19.056  1.00  0.00     0.006 C 
HETATM    4  C11 UNL     1      34.049  28.949  19.023  1.00  0.00    -0.002 C 
HETATM    5  C12 UNL     1      33.030  29.704  18.230  1.00  0.00    -0.003 C 
HETATM    6  C13 UNL     1      33.654  31.011  17.765  1.00  0.00     0.008 C 
HETATM    7  C14 UNL     1      32.468  31.777  17.267  1.00  0.00     0.032 C 
HETATM    8  C15 UNL     1      31.326  31.350  18.140  1.00  0.00     0.122 C 
HETATM    9  C16 UNL     1      31.814  30.150  18.940  1.00  0.00     0.019 C 
HETATM   10  C17 UNL     1      32.168  30.536  20.348  1.00  0.00     0.008 C 
HETATM   11  C18 UNL     1      32.612  29.324  21.076  1.00  0.00     0.010 C 
HETATM   12  C19 UNL     1      33.585  28.438  20.342  1.00  0.00    -0.040 C 
HETATM   13  C20 UNL     1      32.766  27.169  19.996  1.00  0.00     0.015 C 
HETATM   14  C21 UNL     1      34.645  28.008  21.300  1.00  0.00     0.014 C 
ENDROOT
BRANCH   1  15
HETATM   15  C2  UNL     1      37.003  27.509  21.765  1.00  0.00     0.014 C 
HETATM   16  C1  UNL     1      37.451  28.140  23.058  1.00  0.00     0.012 C 
BRANCH  15  17
HETATM   17  C3  UNL     1      36.359  26.180  21.955  1.00  0.00     0.277 C 
BRANCH  17  18
HETATM   18  N1  UNL     1      37.011  25.045  21.469  1.00  0.00     0.092 N 
HETATM   19  C4  UNL     1      37.075  23.858  22.214  1.00  0.00     0.300 C 
HETATM   20  C5  UNL     1      36.645  22.631  21.407  1.00  0.00     0.262 C 
HETATM   21  N2  UNL     1      37.416  22.543  20.200  1.00  0.00    -0.072 N 
HETATM   22  C6  UNL     1      37.474  23.776  19.467  1.00  0.00     0.262 C 
ATOM     23  H22 UNL     1      38.355  22.196  20.396  1.00  0.00     0.277 HD
ATOM     24  H21 UNL     1      37.075  21.787  19.608  1.00  0.00     0.277 HD
HETATM   25  C7  UNL     1      36.551  24.774  20.122  1.00  0.00     0.300 C 
ENDBRANCH  17  18
ENDBRANCH  15  17
ENDBRANCH   1  15
BRANCH   8  26
HETATM   26  O1  UNL     1      30.991  32.411  18.976  1.00  0.00    -0.395 OA
ATOM     27  H1  UNL     1      30.756  32.060  19.827  1.00  0.00     0.210 HD
ENDBRANCH   8  26
TORSDOF 4
ENDMDL
