MODEL 1
REMARK VINA RESULT: -6.723669924      0.000      0.000
REMARK  4 active torsions:
REMARK  status: ('A' for Active; 'I' for Inactive)
REMARK    1  A    between atoms: C2_2  and  C3_3 
REMARK    2  A    between atoms: C7_7  and  N1_8 
REMARK    3  A    between atoms: C9_11  and  C10_12 
REMARK    4  A    between atoms: C10_12  and  O1_13 
ROOT
HETATM    1  C3  UNL     1      35.704  27.501  22.550  1.00  0.00     0.053 C 
HETATM    2  C4  UNL     1      35.498  26.266  22.148  1.00  0.00    -0.024 C 
HETATM    3  C5  UNL     1      36.401  25.163  22.458  1.00  0.00     0.008 C 
HETATM    4  C6  UNL     1      36.380  24.068  21.719  1.00  0.00    -0.001 C 
HETATM    5  C7  UNL     1      35.443  23.952  20.574  1.00  0.00     0.105 C 
HETATM    6  C9  UNL     1      34.154  24.638  20.861  1.00  0.00     0.044 C 
HETATM    7  C11 UNL     1      34.262  26.055  21.335  1.00  0.00     0.036 C 
HETATM    8  C12 UNL     1      34.156  27.074  20.262  1.00  0.00     0.030 C 
HETATM    9  C13 UNL     1      35.389  27.490  19.532  1.00  0.00     0.016 C 
HETATM   10  C14 UNL     1      35.049  28.959  19.841  1.00  0.00     0.022 C 
HETATM   11  C15 UNL     1      34.447  29.649  18.701  1.00  0.00     0.016 C 
HETATM   12  C16 UNL     1      33.060  30.171  18.881  1.00  0.00    -0.047 C 
HETATM   13  C17 UNL     1      32.441  30.295  17.487  1.00  0.00     0.015 C 
HETATM   14  C18 UNL     1      33.042  31.533  19.502  1.00  0.00     0.015 C 
HETATM   15  C19 UNL     1      32.171  29.258  19.674  1.00  0.00     0.012 C 
HETATM   16  C20 UNL     1      32.792  29.010  21.000  1.00  0.00     0.040 C 
HETATM   17  C21 UNL     1      34.172  28.450  20.918  1.00  0.00     0.075 C 
HETATM   18  O2  UNL     1      34.767  28.455  22.189  1.00  0.00    -0.343 OA
ENDROOT
BRANCH   5  19
HETATM   19  N1  UNL     1      35.264  22.597  20.206  1.00  0.00    -0.418 N 
HETATM   20  C8  UNL     1      35.106  21.621  21.217  1.00  0.00     0.140 C 
ATOM     21  H1  UNL     1      35.248  22.328  19.222  1.00  0.00     0.153 HD
ENDBRANCH   5  19
BRANCH   6  22
HETATM   22  C10 UNL     1      33.250  24.569  19.644  1.00  0.00     0.171 C 
BRANCH  22  23
HETATM   23  O1  UNL     1      33.943  24.352  18.470  1.00  0.00    -0.400 OA
ATOM     24  H1  UNL     1      34.104  25.151  17.982  1.00  0.00     0.209 HD
ENDBRANCH  22  23
ENDBRANCH   6  22
BRANCH   1  25
HETATM   25  C2  UNL     1      36.893  27.835  23.357  1.00  0.00     0.060 C 
HETATM   26  C1  UNL     1      38.043  28.384  22.513  1.00  0.00     0.012 C 
ENDBRANCH   1  25
TORSDOF 4
ENDMDL
MODEL 2
REMARK VINA RESULT: -6.636106667      1.180      1.203
REMARK  4 active torsions:
REMARK  status: ('A' for Active; 'I' for Inactive)
REMARK    1  A    between atoms: C2_2  and  C3_3 
REMARK    2  A    between atoms: C7_7  and  N1_8 
REMARK    3  A    between atoms: C9_11  and  C10_12 
REMARK    4  A    between atoms: C10_12  and  O1_13 
ROOT
HETATM    1  C3  UNL     1      35.265  27.285  22.456  1.00  0.00     0.053 C 
HETATM    2  C4  UNL     1      35.513  26.239  21.699  1.00  0.00    -0.024 C 
HETATM    3  C5  UNL     1      36.544  25.255  22.008  1.00  0.00     0.008 C 
HETATM    4  C6  UNL     1      37.023  24.481  21.050  1.00  0.00    -0.001 C 
HETATM    5  C7  UNL     1      36.517  24.604  19.660  1.00  0.00     0.105 C 
HETATM    6  C9  UNL     1      35.067  24.940  19.642  1.00  0.00     0.044 C 
HETATM    7  C11 UNL     1      34.661  26.117  20.477  1.00  0.00     0.036 C 
HETATM    8  C12 UNL     1      34.605  27.404  19.742  1.00  0.00     0.030 C 
HETATM    9  C13 UNL     1      35.841  28.230  19.630  1.00  0.00     0.016 C 
HETATM   10  C14 UNL     1      35.057  29.439  20.172  1.00  0.00     0.022 C 
HETATM   11  C15 UNL     1      34.647  30.363  19.115  1.00  0.00     0.016 C 
HETATM   12  C16 UNL     1      33.181  30.567  18.924  1.00  0.00    -0.047 C 
HETATM   13  C17 UNL     1      32.977  31.048  17.486  1.00  0.00     0.015 C 
HETATM   14  C18 UNL     1      32.631  31.623  19.831  1.00  0.00     0.015 C 
HETATM   15  C19 UNL     1      32.373  29.312  19.084  1.00  0.00     0.012 C 
HETATM   16  C20 UNL     1      32.631  28.739  20.429  1.00  0.00     0.040 C 
HETATM   17  C21 UNL     1      34.072  28.466  20.697  1.00  0.00     0.075 C 
HETATM   18  O2  UNL     1      34.255  28.142  22.050  1.00  0.00    -0.343 OA
ENDROOT
BRANCH   5  19
HETATM   19  N1  UNL     1      36.811  23.439  18.912  1.00  0.00    -0.418 N 
HETATM   20  C8  UNL     1      36.755  22.177  19.548  1.00  0.00     0.140 C 
ATOM     21  H1  UNL     1      37.059  23.509  17.926  1.00  0.00     0.153 HD
ENDBRANCH   5  19
BRANCH   6  22
HETATM   22  C10 UNL     1      34.600  25.138  18.212  1.00  0.00     0.171 C 
BRANCH  22  23
HETATM   23  O1  UNL     1      35.631  25.439  17.346  1.00  0.00    -0.400 OA
ATOM     24  H1  UNL     1      35.560  24.987  16.513  1.00  0.00     0.209 HD
ENDBRANCH  22  23
ENDBRANCH   6  22
BRANCH   1  25
HETATM   25  C2  UNL     1      36.043  27.517  23.687  1.00  0.00     0.060 C 
HETATM   26  C1  UNL     1      37.360  28.248  23.424  1.00  0.00     0.012 C 
ENDBRANCH   1  25
TORSDOF 4
ENDMDL
MODEL 3
REMARK VINA RESULT: -6.510986721      2.299      4.450
REMARK  4 active torsions:
REMARK  status: ('A' for Active; 'I' for Inactive)
REMARK    1  A    between atoms: C2_2  and  C3_3 
REMARK    2  A    between atoms: C7_7  and  N1_8 
REMARK    3  A    between atoms: C9_11  and  C10_12 
REMARK    4  A    between atoms: C10_12  and  O1_13 
ROOT
HETATM    1  C3  UNL     1      35.245  25.040  17.936  1.00  0.00     0.053 C 
HETATM    2  C4  UNL     1      35.495  23.954  18.633  1.00  0.00    -0.024 C 
HETATM    3  C5  UNL     1      34.980  22.637  18.274  1.00  0.00     0.008 C 
HETATM    4  C6  UNL     1      34.912  21.686  19.188  1.00  0.00    -0.001 C 
HETATM    5  C7  UNL     1      35.358  21.948  20.580  1.00  0.00     0.105 C 
HETATM    6  C9  UNL     1      36.520  22.876  20.608  1.00  0.00     0.044 C 
HETATM    7  C11 UNL     1      36.353  24.152  19.840  1.00  0.00     0.036 C 
HETATM    8  C12 UNL     1      35.871  25.299  20.648  1.00  0.00     0.030 C 
HETATM    9  C13 UNL     1      34.403  25.502  20.815  1.00  0.00     0.016 C 
HETATM   10  C14 UNL     1      34.573  26.957  20.339  1.00  0.00     0.022 C 
HETATM   11  C15 UNL     1      34.575  27.914  21.444  1.00  0.00     0.016 C 
HETATM   12  C16 UNL     1      35.815  28.722  21.638  1.00  0.00    -0.047 C 
HETATM   13  C17 UNL     1      35.835  29.172  23.100  1.00  0.00     0.015 C 
HETATM   14  C18 UNL     1      35.828  29.955  20.790  1.00  0.00     0.015 C 
HETATM   15  C19 UNL     1      37.080  27.950  21.401  1.00  0.00     0.012 C 
HETATM   16  C20 UNL     1      37.054  27.388  20.027  1.00  0.00     0.040 C 
HETATM   17  C21 UNL     1      35.864  26.532  19.752  1.00  0.00     0.075 C 
HETATM   18  O2  UNL     1      35.798  26.228  18.385  1.00  0.00    -0.343 OA
ENDROOT
BRANCH   5  19
HETATM   19  N1  UNL     1      35.618  20.735  21.262  1.00  0.00    -0.418 N 
HETATM   20  C8  UNL     1      34.889  19.575  20.910  1.00  0.00     0.140 C 
ATOM     21  H1  UNL     1      36.322  20.698  21.998  1.00  0.00     0.153 HD
ENDBRANCH   5  19
BRANCH   6  22
HETATM   22  C10 UNL     1      36.899  23.185  22.045  1.00  0.00     0.171 C 
BRANCH  22  23
HETATM   23  O1  UNL     1      38.261  23.306  22.229  1.00  0.00    -0.400 OA
ATOM     24  H1  UNL     1      38.596  22.732  22.908  1.00  0.00     0.209 HD
ENDBRANCH  22  23
ENDBRANCH   6  22
BRANCH   1  25
HETATM   25  C2  UNL     1      34.406  24.973  16.725  1.00  0.00     0.060 C 
HETATM   26  C1  UNL     1      33.014  25.568  16.937  1.00  0.00     0.012 C 
ENDBRANCH   1  25
TORSDOF 4
ENDMDL
MODEL 4
REMARK VINA RESULT: -6.483365356      2.376      5.740
REMARK  4 active torsions:
REMARK  status: ('A' for Active; 'I' for Inactive)
REMARK    1  A    between atoms: C2_2  and  C3_3 
REMARK    2  A    between atoms: C7_7  and  N1_8 
REMARK    3  A    between atoms: C9_11  and  C10_12 
REMARK    4  A    between atoms: C10_12  and  O1_13 
ROOT
HETATM    1  C3  UNL     1      37.288  27.889  20.155  1.00  0.00     0.053 C 
HETATM    2  C4  UNL     1      36.048  28.328  20.154  1.00  0.00    -0.024 C 
HETATM    3  C5  UNL     1      35.683  29.692  20.518  1.00  0.00     0.008 C 
HETATM    4  C6  UNL     1      34.445  29.964  20.891  1.00  0.00    -0.001 C 
HETATM    5  C7  UNL     1      33.421  28.890  20.940  1.00  0.00     0.105 C 
HETATM    6  C9  UNL     1      33.633  27.894  19.855  1.00  0.00     0.044 C 
HETATM    7  C11 UNL     1      35.015  27.326  19.753  1.00  0.00     0.036 C 
HETATM    8  C12 UNL     1      35.210  26.047  20.479  1.00  0.00     0.030 C 
HETATM    9  C13 UNL     1      35.603  26.082  21.917  1.00  0.00     0.016 C 
HETATM   10  C14 UNL     1      36.778  25.140  21.596  1.00  0.00     0.022 C 
HETATM   11  C15 UNL     1      36.504  23.752  21.966  1.00  0.00     0.016 C 
HETATM   12  C16 UNL     1      36.496  22.745  20.864  1.00  0.00    -0.047 C 
HETATM   13  C17 UNL     1      35.646  21.564  21.337  1.00  0.00     0.015 C 
HETATM   14  C18 UNL     1      37.866  22.220  20.566  1.00  0.00     0.015 C 
HETATM   15  C19 UNL     1      35.876  23.249  19.593  1.00  0.00     0.012 C 
HETATM   16  C20 UNL     1      36.596  24.472  19.155  1.00  0.00     0.040 C 
HETATM   17  C21 UNL     1      36.622  25.551  20.184  1.00  0.00     0.075 C 
HETATM   18  O2  UNL     1      37.499  26.571  19.785  1.00  0.00    -0.343 OA
ENDROOT
BRANCH   5  19
HETATM   19  N1  UNL     1      32.116  29.438  20.925  1.00  0.00    -0.418 N 
HETATM   20  C8  UNL     1      31.864  30.603  20.164  1.00  0.00     0.140 C 
ATOM     21  H1  UNL     1      31.366  28.997  21.457  1.00  0.00     0.153 HD
ENDBRANCH   5  19
BRANCH   6  22
HETATM   22  C10 UNL     1      32.621  26.770  19.982  1.00  0.00     0.171 C 
BRANCH  22  23
HETATM   23  O1  UNL     1      31.455  27.014  19.286  1.00  0.00    -0.400 OA
ATOM     24  H1  UNL     1      31.100  26.235  18.873  1.00  0.00     0.209 HD
ENDBRANCH  22  23
ENDBRANCH   6  22
BRANCH   1  25
HETATM   25  C2  UNL     1      38.396  28.784  20.537  1.00  0.00     0.060 C 
HETATM   26  C1  UNL     1      38.888  28.539  21.964  1.00  0.00     0.012 C 
ENDBRANCH   1  25
TORSDOF 4
ENDMDL
MODEL 5
REMARK VINA RESULT: -6.456365841      2.808      5.895
REMARK  4 active torsions:
REMARK  status: ('A' for Active; 'I' for Inactive)
REMARK    1  A    between atoms: C2_2  and  C3_3 
REMARK    2  A    between atoms: C7_7  and  N1_8 
REMARK    3  A    between atoms: C9_11  and  C10_12 
REMARK    4  A    between atoms: C10_12  and  O1_13 
ROOT
HETATM    1  C3  UNL     1      37.215  27.214  21.740  1.00  0.00     0.053 C 
HETATM    2  C4  UNL     1      37.058  28.014  20.709  1.00  0.00    -0.024 C 
HETATM    3  C5  UNL     1      36.824  29.448  20.838  1.00  0.00     0.008 C 
HETATM    4  C6  UNL     1      36.281  30.119  19.837  1.00  0.00    -0.001 C 
HETATM    5  C7  UNL     1      35.906  29.422  18.581  1.00  0.00     0.105 C 
HETATM    6  C9  UNL     1      36.866  28.330  18.264  1.00  0.00     0.044 C 
HETATM    7  C11 UNL     1      37.131  27.355  19.370  1.00  0.00     0.036 C 
HETATM    8  C12 UNL     1      36.283  26.138  19.334  1.00  0.00     0.030 C 
HETATM    9  C13 UNL     1      34.955  26.158  20.011  1.00  0.00     0.016 C 
HETATM   10  C14 UNL     1      35.346  24.877  20.770  1.00  0.00     0.022 C 
HETATM   11  C15 UNL     1      34.748  23.675  20.189  1.00  0.00     0.016 C 
HETATM   12  C16 UNL     1      35.685  22.640  19.662  1.00  0.00    -0.047 C 
HETATM   13  C17 UNL     1      34.913  21.820  18.624  1.00  0.00     0.015 C 
HETATM   14  C18 UNL     1      36.145  21.694  20.727  1.00  0.00     0.015 C 
HETATM   15  C19 UNL     1      36.883  23.212  18.962  1.00  0.00     0.012 C 
HETATM   16  C20 UNL     1      37.603  24.114  19.896  1.00  0.00     0.040 C 
HETATM   17  C21 UNL     1      36.752  25.208  20.448  1.00  0.00     0.075 C 
HETATM   18  O2  UNL     1      37.433  25.871  21.479  1.00  0.00    -0.343 OA
ENDROOT
BRANCH   5  19
HETATM   19  N1  UNL     1      35.766  30.345  17.517  1.00  0.00    -0.418 N 
HETATM   20  C8  UNL     1      34.474  30.795  17.158  1.00  0.00     0.140 C 
ATOM     21  H1  UNL     1      36.587  30.682  17.015  1.00  0.00     0.153 HD
ENDBRANCH   5  19
BRANCH   6  22
HETATM   22  C10 UNL     1      36.412  27.589  17.020  1.00  0.00     0.171 C 
BRANCH  22  23
HETATM   23  O1  UNL     1      37.092  27.975  15.884  1.00  0.00    -0.400 OA
ATOM     24  H1  UNL     1      36.841  27.477  15.114  1.00  0.00     0.209 HD
ENDBRANCH  22  23
ENDBRANCH   6  22
BRANCH   1  25
HETATM   25  C2  UNL     1      37.159  27.747  23.114  1.00  0.00     0.060 C 
HETATM   26  C1  UNL     1      35.849  27.408  23.826  1.00  0.00     0.012 C 
ENDBRANCH   1  25
TORSDOF 4
ENDMDL
