MODEL 1
REMARK VINA RESULT: -8.149533959      0.000      0.000
REMARK  3 active torsions:
REMARK  status: ('A' for Active; 'I' for Inactive)
REMARK    1  A    between atoms: C2_3  and  C3_4 
REMARK       I    between atoms: C3_4  and  N2_6 
REMARK    2  A    between atoms: N2_6  and  C4_8 
REMARK    3  A    between atoms: C14_18  and  N3_19 
ROOT
HETATM    1  N1  UNL     1      38.732  28.610  23.045  1.00  0.00    -0.196 NA
HETATM    2  C1  UNL     1      37.803  28.019  22.656  1.00  0.00     0.081 C 
HETATM    3  C2  UNL     1      36.644  27.261  22.188  1.00  0.00     0.149 C 
HETATM    4  C11 UNL     1      35.779  26.841  23.384  1.00  0.00     0.037 C 
HETATM    5  C12 UNL     1      34.410  27.393  23.151  1.00  0.00     0.004 C 
HETATM    6  C13 UNL     1      34.343  27.629  21.658  1.00  0.00     0.027 C 
HETATM    7  C14 UNL     1      35.753  28.198  21.413  1.00  0.00     0.114 C 
ENDROOT
BRANCH   3   8
HETATM    8  C3  UNL     1      36.999  26.049  21.452  1.00  0.00     0.243 C 
HETATM    9  O1  UNL     1      37.893  26.100  20.572  1.00  0.00    -0.271 OA
HETATM   10  N2  UNL     1      36.366  24.800  21.690  1.00  0.00    -0.355 N 
ATOM     11  H2  UNL     1      35.638  24.753  22.403  1.00  0.00     0.162 HD
BRANCH  10  12
HETATM   12  C4  UNL     1      36.702  23.594  20.972  1.00  0.00     0.084 C 
HETATM   13  C5  UNL     1      35.840  23.471  19.735  1.00  0.00     0.025 C 
HETATM   14  C6  UNL     1      36.071  22.153  19.059  1.00  0.00     0.002 C 
HETATM   15  C7  UNL     1      35.062  21.107  19.417  1.00  0.00     0.000 C 
HETATM   16  C8  UNL     1      35.207  20.575  20.814  1.00  0.00     0.000 C 
HETATM   17  C9  UNL     1      35.284  21.706  21.821  1.00  0.00     0.002 C 
HETATM   18  C10 UNL     1      36.627  22.356  21.834  1.00  0.00     0.025 C 
ENDBRANCH  10  12
ENDBRANCH   3   8
BRANCH   7  19
HETATM   19  N3  UNL     1      36.048  28.320  20.053  1.00  0.00    -0.373 N 
HETATM   20  C15 UNL     1      35.725  29.299  19.316  1.00  0.00     0.073 C 
HETATM   21  C16 UNL     1      34.988  30.504  19.684  1.00  0.00     0.076 C 
HETATM   22  N4  UNL     1      36.127  29.252  17.909  1.00  0.00    -0.380 N 
HETATM   23  C17 UNL     1      33.902  30.879  18.700  1.00  0.00     0.009 C 
HETATM   24  C18 UNL     1      34.148  30.419  17.307  1.00  0.00     0.020 C 
HETATM   25  C19 UNL     1      35.669  30.372  17.111  1.00  0.00     0.121 C 
ATOM     26  H4  UNL     1      36.685  28.491  17.520  1.00  0.00     0.160 HD
ATOM     27  H3  UNL     1      36.567  27.558  19.616  1.00  0.00     0.161 HD
ENDBRANCH   7  19
TORSDOF 3
ENDMDL
MODEL 2
REMARK VINA RESULT: -7.611616297      2.058      2.808
REMARK  3 active torsions:
REMARK  status: ('A' for Active; 'I' for Inactive)
REMARK    1  A    between atoms: C2_3  and  C3_4 
REMARK       I    between atoms: C3_4  and  N2_6 
REMARK    2  A    between atoms: N2_6  and  C4_8 
REMARK    3  A    between atoms: C14_18  and  N3_19 
ROOT
HETATM    1  N1  UNL     1      36.745  30.476  19.299  1.00  0.00    -0.196 NA
HETATM    2  C1  UNL     1      36.288  29.696  20.038  1.00  0.00     0.081 C 
HETATM    3  C2  UNL     1      35.741  28.708  20.966  1.00  0.00     0.149 C 
HETATM    4  C11 UNL     1      36.598  28.659  22.238  1.00  0.00     0.037 C 
HETATM    5  C12 UNL     1      35.693  28.950  23.391  1.00  0.00     0.004 C 
HETATM    6  C13 UNL     1      34.306  28.630  22.876  1.00  0.00     0.027 C 
HETATM    7  C14 UNL     1      34.407  29.211  21.454  1.00  0.00     0.114 C 
ENDROOT
BRANCH   3   8
HETATM    8  C3  UNL     1      35.690  27.355  20.415  1.00  0.00     0.243 C 
HETATM    9  O1  UNL     1      35.192  27.170  19.278  1.00  0.00    -0.271 OA
HETATM   10  N2  UNL     1      36.183  26.225  21.121  1.00  0.00    -0.355 N 
ATOM     11  H2  UNL     1      36.588  26.370  22.045  1.00  0.00     0.162 HD
BRANCH  10  12
HETATM   12  C4  UNL     1      36.139  24.883  20.593  1.00  0.00     0.084 C 
HETATM   13  C5  UNL     1      34.798  24.253  20.893  1.00  0.00     0.025 C 
HETATM   14  C6  UNL     1      34.788  22.811  20.485  1.00  0.00     0.002 C 
HETATM   15  C7  UNL     1      35.070  21.864  21.609  1.00  0.00     0.000 C 
HETATM   16  C8  UNL     1      36.500  21.870  22.065  1.00  0.00     0.000 C 
HETATM   17  C9  UNL     1      36.978  23.284  22.335  1.00  0.00     0.002 C 
HETATM   18  C10 UNL     1      37.284  24.023  21.075  1.00  0.00     0.025 C 
ENDBRANCH  10  12
ENDBRANCH   3   8
BRANCH   7  19
HETATM   19  N3  UNL     1      33.309  28.869  20.660  1.00  0.00    -0.373 N 
HETATM   20  C15 UNL     1      32.722  29.641  19.845  1.00  0.00     0.073 C 
HETATM   21  C16 UNL     1      33.029  31.034  19.537  1.00  0.00     0.076 C 
HETATM   22  N4  UNL     1      31.587  29.101  19.094  1.00  0.00    -0.380 N 
HETATM   23  C17 UNL     1      31.812  31.931  19.492  1.00  0.00     0.009 C 
HETATM   24  C18 UNL     1      30.548  31.235  19.135  1.00  0.00     0.020 C 
HETATM   25  C19 UNL     1      30.924  30.056  18.228  1.00  0.00     0.121 C 
ATOM     26  H4  UNL     1      31.286  28.129  19.174  1.00  0.00     0.160 HD
ATOM     27  H3  UNL     1      32.950  27.918  20.744  1.00  0.00     0.161 HD
ENDBRANCH   7  19
TORSDOF 3
ENDMDL
MODEL 3
REMARK VINA RESULT: -7.297903964      1.111      1.207
REMARK  3 active torsions:
REMARK  status: ('A' for Active; 'I' for Inactive)
REMARK    1  A    between atoms: C2_3  and  C3_4 
REMARK       I    between atoms: C3_4  and  N2_6 
REMARK    2  A    between atoms: N2_6  and  C4_8 
REMARK    3  A    between atoms: C14_18  and  N3_19 
ROOT
HETATM    1  N1  UNL     1      38.906  28.245  21.275  1.00  0.00    -0.196 NA
HETATM    2  C1  UNL     1      37.898  27.657  21.224  1.00  0.00     0.081 C 
HETATM    3  C2  UNL     1      36.649  26.898  21.174  1.00  0.00     0.149 C 
HETATM    4  C11 UNL     1      36.325  26.337  22.564  1.00  0.00     0.037 C 
HETATM    5  C12 UNL     1      34.974  26.853  22.943  1.00  0.00     0.004 C 
HETATM    6  C13 UNL     1      34.325  27.222  21.627  1.00  0.00     0.027 C 
HETATM    7  C14 UNL     1      35.525  27.866  20.908  1.00  0.00     0.114 C 
ENDROOT
BRANCH   3   8
HETATM    8  C3  UNL     1      36.686  25.774  20.240  1.00  0.00     0.243 C 
HETATM    9  O1  UNL     1      37.097  25.958  19.068  1.00  0.00    -0.271 OA
HETATM   10  N2  UNL     1      36.270  24.466  20.606  1.00  0.00    -0.355 N 
ATOM     11  H2  UNL     1      35.935  24.312  21.557  1.00  0.00     0.162 HD
BRANCH  10  12
HETATM   12  C4  UNL     1      36.298  23.345  19.697  1.00  0.00     0.084 C 
HETATM   13  C5  UNL     1      34.991  23.258  18.943  1.00  0.00     0.025 C 
HETATM   14  C6  UNL     1      34.946  22.015  18.106  1.00  0.00     0.002 C 
HETATM   15  C7  UNL     1      34.222  20.877  18.755  1.00  0.00     0.000 C 
HETATM   16  C8  UNL     1      34.972  20.251  19.896  1.00  0.00     0.000 C 
HETATM   17  C9  UNL     1      35.444  21.304  20.880  1.00  0.00     0.002 C 
HETATM   18  C10 UNL     1      36.641  22.042  20.381  1.00  0.00     0.025 C 
ENDBRANCH  10  12
ENDBRANCH   3   8
BRANCH   7  19
HETATM   19  N3  UNL     1      35.261  28.124  19.560  1.00  0.00    -0.373 N 
HETATM   20  C15 UNL     1      34.903  29.242  19.082  1.00  0.00     0.073 C 
HETATM   21  C16 UNL     1      34.682  30.500  19.789  1.00  0.00     0.076 C 
HETATM   22  N4  UNL     1      34.675  29.322  17.638  1.00  0.00    -0.380 N 
HETATM   23  C17 UNL     1      33.410  31.211  19.386  1.00  0.00     0.009 C 
HETATM   24  C18 UNL     1      32.954  30.917  18.001  1.00  0.00     0.020 C 
HETATM   25  C19 UNL     1      34.207  30.612  17.170  1.00  0.00     0.121 C 
ATOM     26  H4  UNL     1      34.833  28.533  17.011  1.00  0.00     0.160 HD
ATOM     27  H3  UNL     1      35.364  27.348  18.906  1.00  0.00     0.161 HD
ENDBRANCH   7  19
TORSDOF 3
ENDMDL
MODEL 4
REMARK VINA RESULT: -7.239848049      1.893      2.740
REMARK  3 active torsions:
REMARK  status: ('A' for Active; 'I' for Inactive)
REMARK    1  A    between atoms: C2_3  and  C3_4 
REMARK       I    between atoms: C3_4  and  N2_6 
REMARK    2  A    between atoms: N2_6  and  C4_8 
REMARK    3  A    between atoms: C14_18  and  N3_19 
ROOT
HETATM    1  N1  UNL     1      37.069  27.453  18.936  1.00  0.00    -0.196 NA
HETATM    2  C1  UNL     1      36.585  27.375  19.997  1.00  0.00     0.081 C 
HETATM    3  C2  UNL     1      35.998  27.258  21.330  1.00  0.00     0.149 C 
HETATM    4  C11 UNL     1      37.101  27.339  22.393  1.00  0.00     0.037 C 
HETATM    5  C12 UNL     1      36.758  28.477  23.299  1.00  0.00     0.004 C 
HETATM    6  C13 UNL     1      35.269  28.678  23.109  1.00  0.00     0.027 C 
HETATM    7  C14 UNL     1      35.165  28.489  21.585  1.00  0.00     0.114 C 
ENDROOT
BRANCH   3   8
HETATM    8  C3  UNL     1      35.272  26.007  21.541  1.00  0.00     0.243 C 
HETATM    9  O1  UNL     1      34.489  25.904  22.517  1.00  0.00    -0.271 OA
HETATM   10  N2  UNL     1      35.416  24.888  20.679  1.00  0.00    -0.355 N 
ATOM     11  H2  UNL     1      36.051  24.967  19.885  1.00  0.00     0.162 HD
BRANCH  10  12
HETATM   12  C4  UNL     1      34.708  23.645  20.872  1.00  0.00     0.084 C 
HETATM   13  C5  UNL     1      35.605  22.640  21.558  1.00  0.00     0.025 C 
HETATM   14  C6  UNL     1      34.939  21.300  21.633  1.00  0.00     0.002 C 
HETATM   15  C7  UNL     1      35.345  20.363  20.539  1.00  0.00     0.000 C 
HETATM   16  C8  UNL     1      34.788  20.722  19.191  1.00  0.00     0.000 C 
HETATM   17  C9  UNL     1      35.053  22.179  18.865  1.00  0.00     0.002 C 
HETATM   18  C10 UNL     1      34.125  23.095  19.592  1.00  0.00     0.025 C 
ENDBRANCH  10  12
ENDBRANCH   3   8
BRANCH   7  19
HETATM   19  N3  UNL     1      33.840  28.418  21.147  1.00  0.00    -0.373 N 
HETATM   20  C15 UNL     1      33.315  29.169  20.272  1.00  0.00     0.073 C 
HETATM   21  C16 UNL     1      33.934  30.260  19.525  1.00  0.00     0.076 C 
HETATM   22  N4  UNL     1      31.907  28.942  19.939  1.00  0.00    -0.380 N 
HETATM   23  C17 UNL     1      33.087  31.511  19.459  1.00  0.00     0.009 C 
HETATM   24  C18 UNL     1      31.623  31.270  19.564  1.00  0.00     0.020 C 
HETATM   25  C19 UNL     1      31.354  29.877  18.979  1.00  0.00     0.121 C 
ATOM     26  H4  UNL     1      31.359  28.186  20.349  1.00  0.00     0.160 HD
ATOM     27  H3  UNL     1      33.246  27.703  21.567  1.00  0.00     0.161 HD
ENDBRANCH   7  19
TORSDOF 3
ENDMDL
MODEL 5
REMARK VINA RESULT: -7.168755748      1.988      6.944
REMARK  3 active torsions:
REMARK  status: ('A' for Active; 'I' for Inactive)
REMARK    1  A    between atoms: C2_3  and  C3_4 
REMARK       I    between atoms: C3_4  and  N2_6 
REMARK    2  A    between atoms: N2_6  and  C4_8 
REMARK    3  A    between atoms: C14_18  and  N3_19 
ROOT
HETATM    1  N1  UNL     1      37.501  27.855  23.366  1.00  0.00    -0.196 NA
HETATM    2  C1  UNL     1      37.036  27.810  22.295  1.00  0.00     0.081 C 
HETATM    3  C2  UNL     1      36.455  27.782  20.953  1.00  0.00     0.149 C 
HETATM    4  C11 UNL     1      37.258  28.698  20.020  1.00  0.00     0.037 C 
HETATM    5  C12 UNL     1      37.732  27.856  18.879  1.00  0.00     0.004 C 
HETATM    6  C13 UNL     1      36.794  26.669  18.866  1.00  0.00     0.027 C 
HETATM    7  C14 UNL     1      36.672  26.406  20.378  1.00  0.00     0.114 C 
ENDROOT
BRANCH   3   8
HETATM    8  C3  UNL     1      35.061  28.220  20.912  1.00  0.00     0.243 C 
HETATM    9  O1  UNL     1      34.244  27.758  21.745  1.00  0.00    -0.271 OA
HETATM   10  N2  UNL     1      34.585  29.156  19.957  1.00  0.00    -0.355 N 
ATOM     11  H2  UNL     1      35.245  29.535  19.278  1.00  0.00     0.162 HD
BRANCH  10  12
HETATM   12  C4  UNL     1      33.212  29.599  19.900  1.00  0.00     0.084 C 
HETATM   13  C5  UNL     1      32.470  28.845  18.820  1.00  0.00     0.025 C 
HETATM   14  C6  UNL     1      31.087  29.395  18.647  1.00  0.00     0.002 C 
HETATM   15  C7  UNL     1      30.965  30.381  17.528  1.00  0.00     0.000 C 
HETATM   16  C8  UNL     1      31.609  31.708  17.813  1.00  0.00     0.000 C 
HETATM   17  C9  UNL     1      33.032  31.527  18.305  1.00  0.00     0.002 C 
HETATM   18  C10 UNL     1      33.083  31.095  19.732  1.00  0.00     0.025 C 
ENDBRANCH  10  12
ENDBRANCH   3   8
BRANCH   7  19
HETATM   19  N3  UNL     1      35.681  25.467  20.676  1.00  0.00    -0.373 N 
HETATM   20  C15 UNL     1      35.884  24.247  20.952  1.00  0.00     0.073 C 
HETATM   21  C16 UNL     1      37.156  23.535  21.026  1.00  0.00     0.076 C 
HETATM   22  N4  UNL     1      34.717  23.413  21.243  1.00  0.00    -0.380 N 
HETATM   23  C17 UNL     1      37.145  22.192  20.329  1.00  0.00     0.009 C 
HETATM   24  C18 UNL     1      35.807  21.548  20.258  1.00  0.00     0.020 C 
HETATM   25  C19 UNL     1      35.016  22.016  21.487  1.00  0.00     0.121 C 
ATOM     26  H4  UNL     1      33.767  23.785  21.272  1.00  0.00     0.160 HD
ATOM     27  H3  UNL     1      34.714  25.790  20.671  1.00  0.00     0.161 HD
ENDBRANCH   7  19
TORSDOF 3
ENDMDL
