MODEL 1
REMARK VINA RESULT: -6.426015975      0.000      0.000
REMARK  4 active torsions:
REMARK  status: ('A' for Active; 'I' for Inactive)
REMARK    1  A    between atoms: C7_7  and  N1_8 
REMARK    2  A    between atoms: N1_8  and  C8_10 
REMARK    3  A    between atoms: C8_10  and  C17_21 
REMARK    4  A    between atoms: N2_11  and  C9_13 
ROOT
HETATM    1  C8  UNL     1      35.196  27.269  19.619  1.00  0.00     0.108 C 
HETATM    2  N2  UNL     1      35.099  26.210  19.011  1.00  0.00    -0.351 N 
ATOM      3  H2  UNL     1      34.698  26.350  18.083  1.00  0.00     0.166 HD
ENDROOT
BRANCH   1   4
HETATM    4  N1  UNL     1      34.762  28.491  18.989  1.00  0.00    -0.372 N 
ATOM      5  H1  UNL     1      35.419  29.267  18.911  1.00  0.00     0.161 HD
BRANCH   4   6
HETATM    6  C7  UNL     1      33.445  28.649  18.475  1.00  0.00     0.086 C 
HETATM    7  C2  UNL     1      33.291  29.883  17.627  1.00  0.00     0.004 C 
HETATM    8  C1  UNL     1      34.202  29.922  16.443  1.00  0.00     0.012 C 
HETATM    9  C3  UNL     1      33.477  31.149  18.429  1.00  0.00     0.006 C 
HETATM   10  C4  UNL     1      33.493  30.914  19.919  1.00  0.00     0.001 C 
HETATM   11  C5  UNL     1      32.456  29.929  20.374  1.00  0.00     0.002 C 
HETATM   12  C6  UNL     1      32.358  28.706  19.525  1.00  0.00     0.025 C 
ENDBRANCH   4   6
ENDBRANCH   1   4
BRANCH   1  13
HETATM   13  C17 UNL     1      35.736  27.415  20.980  1.00  0.00     0.214 C 
HETATM   14  C18 UNL     1      34.692  27.154  22.049  1.00  0.00     0.272 C 
HETATM   15  N3  UNL     1      35.396  26.860  23.279  1.00  0.00    -0.070 N 
HETATM   16  C19 UNL     1      36.461  27.843  23.411  1.00  0.00     0.258 C 
ATOM     17  H32 UNL     1      34.782  26.825  24.092  1.00  0.00     0.277 HD
ATOM     18  H31 UNL     1      35.733  25.898  23.327  1.00  0.00     0.277 HD
HETATM   19  C20 UNL     1      36.170  29.056  22.543  1.00  0.00     0.196 C 
HETATM   20  O1  UNL     1      36.177  28.743  21.202  1.00  0.00    -0.375 OA
ENDBRANCH   1  13
BRANCH   2  21
HETATM   21  C9  UNL     1      35.391  24.839  19.244  1.00  0.00    -0.012 C 
HETATM   22  C10 UNL     1      36.736  24.518  19.777  1.00  0.00     0.052 C 
HETATM   23  C11 UNL     1      37.300  23.317  19.054  1.00  0.00     0.006 C 
HETATM   24  C12 UNL     1      37.192  22.123  19.942  1.00  0.00     0.000 C 
HETATM   25  C13 UNL     1      35.776  21.692  20.235  1.00  0.00     0.000 C 
HETATM   26  C14 UNL     1      35.173  22.302  21.441  1.00  0.00     0.000 C 
HETATM   27  C15 UNL     1      34.517  23.611  21.282  1.00  0.00     0.006 C 
HETATM   28  C16 UNL     1      34.258  24.088  19.907  1.00  0.00     0.052 C 
ENDBRANCH   2  21
TORSDOF 4
ENDMDL
MODEL 2
REMARK VINA RESULT: -6.400549026      1.455      6.340
REMARK  4 active torsions:
REMARK  status: ('A' for Active; 'I' for Inactive)
REMARK    1  A    between atoms: C7_7  and  N1_8 
REMARK    2  A    between atoms: N1_8  and  C8_10 
REMARK    3  A    between atoms: C8_10  and  C17_21 
REMARK    4  A    between atoms: N2_11  and  C9_13 
ROOT
HETATM    1  C8  UNL     1      35.529  26.352  19.999  1.00  0.00     0.108 C 
HETATM    2  N2  UNL     1      34.758  26.722  19.121  1.00  0.00    -0.351 N 
ATOM      3  H2  UNL     1      34.649  26.010  18.399  1.00  0.00     0.166 HD
ENDROOT
BRANCH   1   4
HETATM    4  N1  UNL     1      36.141  25.050  19.903  1.00  0.00    -0.372 N 
ATOM      5  H1  UNL     1      37.077  24.972  19.506  1.00  0.00     0.161 HD
BRANCH   4   6
HETATM    6  C7  UNL     1      35.479  23.870  20.344  1.00  0.00     0.086 C 
HETATM    7  C2  UNL     1      36.410  22.890  21.008  1.00  0.00     0.004 C 
HETATM    8  C1  UNL     1      37.113  23.440  22.207  1.00  0.00     0.012 C 
HETATM    9  C3  UNL     1      37.437  22.342  20.047  1.00  0.00     0.006 C 
HETATM   10  C4  UNL     1      37.138  22.670  18.604  1.00  0.00     0.001 C 
HETATM   11  C5  UNL     1      35.687  22.525  18.253  1.00  0.00     0.002 C 
HETATM   12  C6  UNL     1      34.752  23.109  19.259  1.00  0.00     0.025 C 
ENDBRANCH   4   6
ENDBRANCH   1   4
BRANCH   1  13
HETATM   13  C17 UNL     1      35.901  27.140  21.184  1.00  0.00     0.214 C 
HETATM   14  C18 UNL     1      37.388  27.082  21.477  1.00  0.00     0.272 C 
HETATM   15  N3  UNL     1      37.708  28.214  22.320  1.00  0.00    -0.070 N 
HETATM   16  C19 UNL     1      36.682  28.287  23.350  1.00  0.00     0.258 C 
ATOM     17  H32 UNL     1      38.654  28.175  22.699  1.00  0.00     0.277 HD
ATOM     18  H31 UNL     1      37.812  29.084  21.798  1.00  0.00     0.277 HD
HETATM   19  C20 UNL     1      35.971  26.951  23.482  1.00  0.00     0.196 C 
HETATM   20  O1  UNL     1      35.269  26.627  22.344  1.00  0.00    -0.375 OA
ENDBRANCH   1  13
BRANCH   2  21
HETATM   21  C9  UNL     1      33.973  27.872  18.835  1.00  0.00    -0.012 C 
HETATM   22  C10 UNL     1      32.741  28.062  19.635  1.00  0.00     0.052 C 
HETATM   23  C11 UNL     1      31.607  28.492  18.734  1.00  0.00     0.006 C 
HETATM   24  C12 UNL     1      31.374  29.955  18.915  1.00  0.00     0.000 C 
HETATM   25  C13 UNL     1      32.512  30.828  18.446  1.00  0.00     0.000 C 
HETATM   26  C14 UNL     1      33.525  31.141  19.478  1.00  0.00     0.000 C 
HETATM   27  C15 UNL     1      34.621  30.177  19.664  1.00  0.00     0.006 C 
HETATM   28  C16 UNL     1      34.795  29.126  18.639  1.00  0.00     0.052 C 
ENDBRANCH   2  21
TORSDOF 4
ENDMDL
MODEL 3
REMARK VINA RESULT: -6.364074095      1.384      1.505
REMARK  4 active torsions:
REMARK  status: ('A' for Active; 'I' for Inactive)
REMARK    1  A    between atoms: C7_7  and  N1_8 
REMARK    2  A    between atoms: N1_8  and  C8_10 
REMARK    3  A    between atoms: C8_10  and  C17_21 
REMARK    4  A    between atoms: N2_11  and  C9_13 
ROOT
HETATM    1  C8  UNL     1      34.643  27.316  20.401  1.00  0.00     0.108 C 
HETATM    2  N2  UNL     1      34.390  26.226  19.903  1.00  0.00    -0.351 N 
ATOM      3  H2  UNL     1      33.549  26.268  19.327  1.00  0.00     0.166 HD
ENDROOT
BRANCH   1   4
HETATM    4  N1  UNL     1      33.781  28.439  20.127  1.00  0.00    -0.372 N 
ATOM      5  H1  UNL     1      33.447  29.007  20.905  1.00  0.00     0.161 HD
BRANCH   4   6
HETATM    6  C7  UNL     1      33.383  28.780  18.804  1.00  0.00     0.086 C 
HETATM    7  C2  UNL     1      33.936  30.104  18.349  1.00  0.00     0.004 C 
HETATM    8  C1  UNL     1      35.429  30.172  18.359  1.00  0.00     0.012 C 
HETATM    9  C3  UNL     1      33.389  31.256  19.157  1.00  0.00     0.006 C 
HETATM   10  C4  UNL     1      32.222  30.869  20.033  1.00  0.00     0.001 C 
HETATM   11  C5  UNL     1      31.249  29.953  19.352  1.00  0.00     0.002 C 
HETATM   12  C6  UNL     1      31.887  28.839  18.590  1.00  0.00     0.025 C 
ENDBRANCH   4   6
ENDBRANCH   1   4
BRANCH   1  13
HETATM   13  C17 UNL     1      35.787  27.597  21.283  1.00  0.00     0.214 C 
HETATM   14  C18 UNL     1      35.709  28.972  21.917  1.00  0.00     0.272 C 
HETATM   15  N3  UNL     1      36.574  28.964  23.077  1.00  0.00    -0.070 N 
HETATM   16  C19 UNL     1      37.821  28.327  22.680  1.00  0.00     0.258 C 
ATOM     17  H32 UNL     1      36.710  29.891  23.480  1.00  0.00     0.277 HD
ATOM     18  H31 UNL     1      36.145  28.528  23.893  1.00  0.00     0.277 HD
HETATM   19  C20 UNL     1      37.966  28.348  21.167  1.00  0.00     0.196 C 
HETATM   20  O1  UNL     1      36.998  27.591  20.547  1.00  0.00    -0.375 OA
ENDBRANCH   1  13
BRANCH   2  21
HETATM   21  C9  UNL     1      34.946  24.918  19.910  1.00  0.00    -0.012 C 
HETATM   22  C10 UNL     1      36.109  24.677  19.025  1.00  0.00     0.052 C 
HETATM   23  C11 UNL     1      35.950  23.350  18.320  1.00  0.00     0.006 C 
HETATM   24  C12 UNL     1      36.846  22.348  18.968  1.00  0.00     0.000 C 
HETATM   25  C13 UNL     1      36.473  22.009  20.390  1.00  0.00     0.000 C 
HETATM   26  C14 UNL     1      37.120  22.848  21.423  1.00  0.00     0.000 C 
HETATM   27  C15 UNL     1      36.460  24.115  21.776  1.00  0.00     0.006 C 
HETATM   28  C16 UNL     1      35.079  24.329  21.296  1.00  0.00     0.052 C 
ENDBRANCH   2  21
TORSDOF 4
ENDMDL
MODEL 4
REMARK VINA RESULT: -6.321676136      0.833      1.459
REMARK  4 active torsions:
REMARK  status: ('A' for Active; 'I' for Inactive)
REMARK    1  A    between atoms: C7_7  and  N1_8 
REMARK    2  A    between atoms: N1_8  and  C8_10 
REMARK    3  A    between atoms: C8_10  and  C17_21 
REMARK    4  A    between atoms: N2_11  and  C9_13 
ROOT
HETATM    1  C8  UNL     1      35.287  26.912  19.745  1.00  0.00     0.108 C 
HETATM    2  N2  UNL     1      35.096  25.816  19.232  1.00  0.00    -0.351 N 
ATOM      3  H2  UNL     1      34.669  25.908  18.310  1.00  0.00     0.166 HD
ENDROOT
BRANCH   1   4
HETATM    4  N1  UNL     1      34.909  28.106  19.032  1.00  0.00    -0.372 N 
ATOM      5  H1  UNL     1      35.622  28.805  18.826  1.00  0.00     0.161 HD
BRANCH   4   6
HETATM    6  C7  UNL     1      33.571  28.339  18.606  1.00  0.00     0.086 C 
HETATM    7  C2  UNL     1      33.446  29.530  17.693  1.00  0.00     0.004 C 
HETATM    8  C1  UNL     1      34.262  29.423  16.445  1.00  0.00     0.012 C 
HETATM    9  C3  UNL     1      33.791  30.822  18.394  1.00  0.00     0.006 C 
HETATM   10  C4  UNL     1      33.906  30.675  19.891  1.00  0.00     0.001 C 
HETATM   11  C5  UNL     1      32.835  29.807  20.485  1.00  0.00     0.002 C 
HETATM   12  C6  UNL     1      32.578  28.548  19.727  1.00  0.00     0.025 C 
ENDBRANCH   4   6
ENDBRANCH   1   4
BRANCH   1  13
HETATM   13  C17 UNL     1      35.889  27.130  21.070  1.00  0.00     0.214 C 
HETATM   14  C18 UNL     1      34.876  27.019  22.194  1.00  0.00     0.272 C 
HETATM   15  N3  UNL     1      35.611  26.779  23.417  1.00  0.00    -0.070 N 
HETATM   16  C19 UNL     1      36.737  27.702  23.431  1.00  0.00     0.258 C 
ATOM     17  H32 UNL     1      35.029  26.846  24.252  1.00  0.00     0.277 HD
ATOM     18  H31 UNL     1      35.892  25.805  23.531  1.00  0.00     0.277 HD
HETATM   19  C20 UNL     1      36.483  28.858  22.479  1.00  0.00     0.196 C 
HETATM   20  O1  UNL     1      36.417  28.441  21.169  1.00  0.00    -0.375 OA
ENDBRANCH   1  13
BRANCH   2  21
HETATM   21  C9  UNL     1      35.307  24.451  19.569  1.00  0.00    -0.012 C 
HETATM   22  C10 UNL     1      34.418  23.868  20.601  1.00  0.00     0.052 C 
HETATM   23  C11 UNL     1      35.229  23.026  21.557  1.00  0.00     0.006 C 
HETATM   24  C12 UNL     1      35.008  21.585  21.241  1.00  0.00     0.000 C 
HETATM   25  C13 UNL     1      35.541  21.155  19.896  1.00  0.00     0.000 C 
HETATM   26  C14 UNL     1      34.579  21.266  18.778  1.00  0.00     0.000 C 
HETATM   27  C15 UNL     1      34.487  22.564  18.090  1.00  0.00     0.006 C 
HETATM   28  C16 UNL     1      35.540  23.565  18.366  1.00  0.00     0.052 C 
ENDBRANCH   2  21
TORSDOF 4
ENDMDL
MODEL 5
REMARK VINA RESULT: -6.320884462      1.364      1.802
REMARK  4 active torsions:
REMARK  status: ('A' for Active; 'I' for Inactive)
REMARK    1  A    between atoms: C7_7  and  N1_8 
REMARK    2  A    between atoms: N1_8  and  C8_10 
REMARK    3  A    between atoms: C8_10  and  C17_21 
REMARK    4  A    between atoms: N2_11  and  C9_13 
ROOT
HETATM    1  C8  UNL     1      34.672  27.304  20.411  1.00  0.00     0.108 C 
HETATM    2  N2  UNL     1      34.396  26.218  19.914  1.00  0.00    -0.351 N 
ATOM      3  H2  UNL     1      33.555  26.277  19.340  1.00  0.00     0.166 HD
ENDROOT
BRANCH   1   4
HETATM    4  N1  UNL     1      33.830  28.442  20.141  1.00  0.00    -0.372 N 
ATOM      5  H1  UNL     1      33.536  29.034  20.917  1.00  0.00     0.161 HD
BRANCH   4   6
HETATM    6  C7  UNL     1      33.398  28.766  18.824  1.00  0.00     0.086 C 
HETATM    7  C2  UNL     1      33.954  30.075  18.331  1.00  0.00     0.004 C 
HETATM    8  C1  UNL     1      35.448  30.123  18.297  1.00  0.00     0.012 C 
HETATM    9  C3  UNL     1      33.446  31.248  19.134  1.00  0.00     0.006 C 
HETATM   10  C4  UNL     1      32.300  30.891  20.049  1.00  0.00     0.001 C 
HETATM   11  C5  UNL     1      31.296  29.976  19.412  1.00  0.00     0.002 C 
HETATM   12  C6  UNL     1      31.898  28.842  18.652  1.00  0.00     0.025 C 
ENDBRANCH   4   6
ENDBRANCH   1   4
BRANCH   1  13
HETATM   13  C17 UNL     1      35.824  27.562  21.290  1.00  0.00     0.214 C 
HETATM   14  C18 UNL     1      35.798  28.956  21.886  1.00  0.00     0.272 C 
HETATM   15  N3  UNL     1      36.659  28.945  23.049  1.00  0.00    -0.070 N 
HETATM   16  C19 UNL     1      37.881  28.248  22.674  1.00  0.00     0.258 C 
ATOM     17  H32 UNL     1      36.831  29.876  23.428  1.00  0.00     0.277 HD
ATOM     18  H31 UNL     1      36.210  28.548  23.875  1.00  0.00     0.277 HD
HETATM   19  C20 UNL     1      38.030  28.223  21.162  1.00  0.00     0.196 C 
HETATM   20  O1  UNL     1      37.035  27.489  20.558  1.00  0.00    -0.375 OA
ENDBRANCH   1  13
BRANCH   2  21
HETATM   21  C9  UNL     1      34.928  24.900  19.918  1.00  0.00    -0.012 C 
HETATM   22  C10 UNL     1      34.481  23.997  21.004  1.00  0.00     0.052 C 
HETATM   23  C11 UNL     1      35.662  23.229  21.550  1.00  0.00     0.006 C 
HETATM   24  C12 UNL     1      35.616  21.834  21.024  1.00  0.00     0.000 C 
HETATM   25  C13 UNL     1      35.817  21.724  19.533  1.00  0.00     0.000 C 
HETATM   26  C14 UNL     1      34.575  21.775  18.730  1.00  0.00     0.000 C 
HETATM   27  C15 UNL     1      34.069  23.104  18.350  1.00  0.00     0.006 C 
HETATM   28  C16 UNL     1      34.965  24.264  18.547  1.00  0.00     0.052 C 
ENDBRANCH   2  21
TORSDOF 4
ENDMDL
