MODEL 1
REMARK VINA RESULT: -7.276710064      0.000      0.000
REMARK  5 active torsions:
REMARK  status: ('A' for Active; 'I' for Inactive)
REMARK    1  A    between atoms: C2_2  and  C4_4 
REMARK    2  A    between atoms: C8_9  and  C9_10 
REMARK    3  A    between atoms: C10_11  and  C11_12 
REMARK    4  A    between atoms: C12_13  and  O2_14 
REMARK    5  A    between atoms: C13_16  and  O3_17 
ROOT
HETATM    1  C11 UNL     1      35.911  24.413  20.643  1.00  0.00     0.045 C 
HETATM    2  C12 UNL     1      37.325  24.033  21.032  1.00  0.00     0.155 C 
HETATM    3  C13 UNL     1      37.346  22.535  21.218  1.00  0.00     0.156 C 
HETATM    4  C14 UNL     1      35.999  22.003  20.860  1.00  0.00    -0.010 C 
HETATM    5  C15 UNL     1      35.320  21.175  21.929  1.00  0.00     0.018 C 
HETATM    6  C16 UNL     1      35.912  21.336  19.502  1.00  0.00     0.021 C 
HETATM    7  C17 UNL     1      35.273  22.611  18.946  1.00  0.00    -0.042 C 
HETATM    8  C18 UNL     1      36.134  23.275  17.946  1.00  0.00     0.015 C 
HETATM    9  C19 UNL     1      33.926  22.233  18.315  1.00  0.00     0.015 C 
HETATM   10  C20 UNL     1      35.196  23.136  20.317  1.00  0.00     0.014 C 
ENDROOT
BRANCH   1  11
HETATM   11  C10 UNL     1      35.274  24.977  21.866  1.00  0.00    -0.021 C 
HETATM   12  C9  UNL     1      34.703  26.173  21.928  1.00  0.00     0.002 C 
BRANCH  12  13
HETATM   13  C8  UNL     1      34.671  27.031  20.745  1.00  0.00     0.148 C 
HETATM   14  O1  UNL     1      33.560  27.902  20.840  1.00  0.00    -0.381 OA
HETATM   15  C7  UNL     1      33.963  28.842  21.796  1.00  0.00     0.173 C 
HETATM   16  C6  UNL     1      35.390  29.199  21.433  1.00  0.00     0.017 C 
HETATM   17  C5  UNL     1      36.434  28.834  22.467  1.00  0.00     0.012 C 
HETATM   18  C21 UNL     1      35.793  27.999  20.613  1.00  0.00     0.029 C 
HETATM   19  C4  UNL     1      36.994  27.845  21.479  1.00  0.00    -0.004 C 
BRANCH  19  20
HETATM   20  C2  UNL     1      38.204  28.481  20.773  1.00  0.00    -0.018 C 
HETATM   21  C1  UNL     1      39.369  28.661  21.680  1.00  0.00     0.010 C 
HETATM   22  C3  UNL     1      38.608  27.666  19.576  1.00  0.00     0.010 C 
ENDBRANCH  19  20
ENDBRANCH  12  13
ENDBRANCH   1  11
BRANCH   2  23
HETATM   23  O2  UNL     1      38.268  24.453  20.110  1.00  0.00    -0.392 OA
ATOM     24  H2  UNL     1      38.808  25.165  20.432  1.00  0.00     0.210 HD
ENDBRANCH   2  23
BRANCH   3  25
HETATM   25  O3  UNL     1      38.378  21.954  20.459  1.00  0.00    -0.392 OA
ATOM     26  H3  UNL     1      38.621  22.519  19.735  1.00  0.00     0.210 HD
ENDBRANCH   3  25
TORSDOF 5
ENDMDL
MODEL 2
REMARK VINA RESULT: -7.090333370      0.979      1.074
REMARK  5 active torsions:
REMARK  status: ('A' for Active; 'I' for Inactive)
REMARK    1  A    between atoms: C2_2  and  C4_4 
REMARK    2  A    between atoms: C8_9  and  C9_10 
REMARK    3  A    between atoms: C10_11  and  C11_12 
REMARK    4  A    between atoms: C12_13  and  O2_14 
REMARK    5  A    between atoms: C13_16  and  O3_17 
ROOT
HETATM    1  C11 UNL     1      35.527  24.391  20.720  1.00  0.00     0.045 C 
HETATM    2  C12 UNL     1      36.694  24.254  21.677  1.00  0.00     0.155 C 
HETATM    3  C13 UNL     1      36.839  22.785  21.992  1.00  0.00     0.156 C 
HETATM    4  C14 UNL     1      35.843  22.034  21.174  1.00  0.00    -0.010 C 
HETATM    5  C15 UNL     1      34.904  21.138  21.952  1.00  0.00     0.018 C 
HETATM    6  C16 UNL     1      36.412  21.323  19.963  1.00  0.00     0.021 C 
HETATM    7  C17 UNL     1      35.892  22.462  19.083  1.00  0.00    -0.042 C 
HETATM    8  C18 UNL     1      36.989  23.228  18.456  1.00  0.00     0.015 C 
HETATM    9  C19 UNL     1      34.987  21.856  18.002  1.00  0.00     0.015 C 
HETATM   10  C20 UNL     1      35.189  23.007  20.254  1.00  0.00     0.014 C 
ENDROOT
BRANCH   1  11
HETATM   11  C10 UNL     1      34.374  24.880  21.528  1.00  0.00    -0.021 C 
HETATM   12  C9  UNL     1      33.746  26.029  21.316  1.00  0.00     0.002 C 
BRANCH  12  13
HETATM   13  C8  UNL     1      34.177  26.908  20.230  1.00  0.00     0.148 C 
HETATM   14  O1  UNL     1      33.075  27.692  19.811  1.00  0.00    -0.381 OA
HETATM   15  C7  UNL     1      32.939  28.637  20.834  1.00  0.00     0.173 C 
HETATM   16  C6  UNL     1      34.347  29.108  21.137  1.00  0.00     0.017 C 
HETATM   17  C5  UNL     1      34.850  28.800  22.531  1.00  0.00     0.012 C 
HETATM   18  C21 UNL     1      35.163  27.960  20.597  1.00  0.00     0.029 C 
HETATM   19  C4  UNL     1      35.863  27.877  21.907  1.00  0.00    -0.004 C 
BRANCH  19  20
HETATM   20  C2  UNL     1      37.208  28.617  21.802  1.00  0.00    -0.018 C 
HETATM   21  C1  UNL     1      38.098  28.359  22.965  1.00  0.00     0.010 C 
HETATM   22  C3  UNL     1      37.915  28.254  20.526  1.00  0.00     0.010 C 
ENDBRANCH  19  20
ENDBRANCH  12  13
ENDBRANCH   1  11
BRANCH   2  23
HETATM   23  O2  UNL     1      37.866  24.794  21.177  1.00  0.00    -0.392 OA
ATOM     24  H2  UNL     1      37.787  25.072  20.272  1.00  0.00     0.210 HD
ENDBRANCH   2  23
BRANCH   3  25
HETATM   25  O3  UNL     1      38.159  22.356  21.767  1.00  0.00    -0.392 OA
ATOM     26  H3  UNL     1      38.468  22.649  20.918  1.00  0.00     0.210 HD
ENDBRANCH   3  25
TORSDOF 5
ENDMDL
MODEL 3
REMARK VINA RESULT: -6.882193731      1.668      2.231
REMARK  5 active torsions:
REMARK  status: ('A' for Active; 'I' for Inactive)
REMARK    1  A    between atoms: C2_2  and  C4_4 
REMARK    2  A    between atoms: C8_9  and  C9_10 
REMARK    3  A    between atoms: C10_11  and  C11_12 
REMARK    4  A    between atoms: C12_13  and  O2_14 
REMARK    5  A    between atoms: C13_16  and  O3_17 
ROOT
HETATM    1  C11 UNL     1      35.530  24.815  20.551  1.00  0.00     0.045 C 
HETATM    2  C12 UNL     1      36.228  24.941  21.891  1.00  0.00     0.155 C 
HETATM    3  C13 UNL     1      36.606  23.546  22.326  1.00  0.00     0.156 C 
HETATM    4  C14 UNL     1      36.230  22.600  21.235  1.00  0.00    -0.010 C 
HETATM    5  C15 UNL     1      35.324  21.460  21.644  1.00  0.00     0.018 C 
HETATM    6  C16 UNL     1      37.384  22.112  20.383  1.00  0.00     0.021 C 
HETATM    7  C17 UNL     1      36.977  23.117  19.302  1.00  0.00    -0.042 C 
HETATM    8  C18 UNL     1      37.999  24.165  19.101  1.00  0.00     0.015 C 
HETATM    9  C19 UNL     1      36.747  22.345  17.996  1.00  0.00     0.015 C 
HETATM   10  C20 UNL     1      35.762  23.412  20.076  1.00  0.00     0.014 C 
ENDROOT
BRANCH   1  11
HETATM   11  C10 UNL     1      34.071  24.955  20.821  1.00  0.00    -0.021 C 
HETATM   12  C9  UNL     1      33.288  25.857  20.243  1.00  0.00     0.002 C 
BRANCH  12  13
HETATM   13  C8  UNL     1      33.847  26.796  19.272  1.00  0.00     0.148 C 
HETATM   14  O1  UNL     1      32.802  27.278  18.447  1.00  0.00    -0.381 OA
HETATM   15  C7  UNL     1      32.121  28.178  19.274  1.00  0.00     0.173 C 
HETATM   16  C6  UNL     1      33.201  28.986  19.965  1.00  0.00     0.017 C 
HETATM   17  C5  UNL     1      33.263  28.835  21.471  1.00  0.00     0.012 C 
HETATM   18  C21 UNL     1      34.388  28.065  19.831  1.00  0.00     0.029 C 
HETATM   19  C4  UNL     1      34.608  28.179  21.298  1.00  0.00    -0.004 C 
BRANCH  19  20
HETATM   20  C2  UNL     1      35.706  29.225  21.558  1.00  0.00    -0.018 C 
HETATM   21  C1  UNL     1      36.253  29.153  22.939  1.00  0.00     0.010 C 
HETATM   22  C3  UNL     1      36.820  29.085  20.558  1.00  0.00     0.010 C 
ENDBRANCH  19  20
ENDBRANCH  12  13
ENDBRANCH   1  11
BRANCH   2  23
HETATM   23  O2  UNL     1      37.324  25.784  21.848  1.00  0.00    -0.392 OA
ATOM     24  H2  UNL     1      37.100  26.690  22.023  1.00  0.00     0.210 HD
ENDBRANCH   2  23
BRANCH   3  25
HETATM   25  O3  UNL     1      37.972  23.480  22.654  1.00  0.00    -0.392 OA
ATOM     26  H3  UNL     1      38.343  24.352  22.722  1.00  0.00     0.210 HD
ENDBRANCH   3  25
TORSDOF 5
ENDMDL
MODEL 4
REMARK VINA RESULT: -6.781504392      1.354      6.670
REMARK  5 active torsions:
REMARK  status: ('A' for Active; 'I' for Inactive)
REMARK    1  A    between atoms: C2_2  and  C4_4 
REMARK    2  A    between atoms: C8_9  and  C9_10 
REMARK    3  A    between atoms: C10_11  and  C11_12 
REMARK    4  A    between atoms: C12_13  and  O2_14 
REMARK    5  A    between atoms: C13_16  and  O3_17 
ROOT
HETATM    1  C11 UNL     1      34.381  26.756  20.520  1.00  0.00     0.045 C 
HETATM    2  C12 UNL     1      33.132  27.593  20.329  1.00  0.00     0.155 C 
HETATM    3  C13 UNL     1      33.274  28.808  21.214  1.00  0.00     0.156 C 
HETATM    4  C14 UNL     1      34.619  28.760  21.858  1.00  0.00    -0.010 C 
HETATM    5  C15 UNL     1      34.620  28.833  23.369  1.00  0.00     0.018 C 
HETATM    6  C16 UNL     1      35.652  29.690  21.257  1.00  0.00     0.021 C 
HETATM    7  C17 UNL     1      36.253  28.498  20.508  1.00  0.00    -0.042 C 
HETATM    8  C18 UNL     1      36.099  28.624  19.044  1.00  0.00     0.015 C 
HETATM    9  C19 UNL     1      37.739  28.401  20.878  1.00  0.00     0.015 C 
HETATM   10  C20 UNL     1      35.361  27.609  21.268  1.00  0.00     0.014 C 
ENDROOT
BRANCH   1  11
HETATM   11  C10 UNL     1      34.001  25.629  21.417  1.00  0.00    -0.021 C 
HETATM   12  C9  UNL     1      34.615  24.453  21.441  1.00  0.00     0.002 C 
BRANCH  12  13
HETATM   13  C8  UNL     1      35.744  24.199  20.548  1.00  0.00     0.148 C 
HETATM   14  O1  UNL     1      36.947  24.483  21.239  1.00  0.00    -0.381 OA
HETATM   15  C7  UNL     1      37.090  23.395  22.107  1.00  0.00     0.173 C 
HETATM   16  C6  UNL     1      36.768  22.171  21.275  1.00  0.00     0.017 C 
HETATM   17  C5  UNL     1      35.552  21.384  21.718  1.00  0.00     0.012 C 
HETATM   18  C21 UNL     1      35.959  22.779  20.158  1.00  0.00     0.029 C 
HETATM   19  C4  UNL     1      34.888  21.781  20.425  1.00  0.00    -0.004 C 
BRANCH  19  20
HETATM   20  C2  UNL     1      35.025  20.622  19.423  1.00  0.00    -0.018 C 
HETATM   21  C1  UNL     1      34.423  19.356  19.922  1.00  0.00     0.010 C 
HETATM   22  C3  UNL     1      34.415  20.991  18.099  1.00  0.00     0.010 C 
ENDBRANCH  19  20
ENDBRANCH  12  13
ENDBRANCH   1  11
BRANCH   2  23
HETATM   23  O2  UNL     1      32.913  27.938  19.008  1.00  0.00    -0.392 OA
ATOM     24  H2  UNL     1      32.306  27.354  18.569  1.00  0.00     0.210 HD
ENDBRANCH   2  23
BRANCH   3  25
HETATM   25  O3  UNL     1      33.068  29.988  20.476  1.00  0.00    -0.392 OA
ATOM     26  H3  UNL     1      32.156  30.069  20.222  1.00  0.00     0.210 HD
ENDBRANCH   3  25
TORSDOF 5
ENDMDL
MODEL 5
REMARK VINA RESULT: -6.780699912      3.481      5.774
REMARK  5 active torsions:
REMARK  status: ('A' for Active; 'I' for Inactive)
REMARK    1  A    between atoms: C2_2  and  C4_4 
REMARK    2  A    between atoms: C8_9  and  C9_10 
REMARK    3  A    between atoms: C10_11  and  C11_12 
REMARK    4  A    between atoms: C12_13  and  O2_14 
REMARK    5  A    between atoms: C13_16  and  O3_17 
ROOT
HETATM    1  C11 UNL     1      35.910  28.697  19.681  1.00  0.00     0.045 C 
HETATM    2  C12 UNL     1      37.387  28.752  19.344  1.00  0.00     0.155 C 
HETATM    3  C13 UNL     1      38.137  28.281  20.566  1.00  0.00     0.156 C 
HETATM    4  C14 UNL     1      37.140  27.860  21.592  1.00  0.00    -0.010 C 
HETATM    5  C15 UNL     1      37.267  28.534  22.940  1.00  0.00     0.018 C 
HETATM    6  C16 UNL     1      36.959  26.362  21.735  1.00  0.00     0.021 C 
HETATM    7  C17 UNL     1      35.678  26.463  20.903  1.00  0.00    -0.042 C 
HETATM    8  C18 UNL     1      35.799  25.764  19.607  1.00  0.00     0.015 C 
HETATM    9  C19 UNL     1      34.528  25.863  21.723  1.00  0.00     0.015 C 
HETATM   10  C20 UNL     1      35.790  27.928  20.962  1.00  0.00     0.014 C 
ENDROOT
BRANCH   1  11
HETATM   11  C10 UNL     1      35.489  30.098  19.964  1.00  0.00    -0.021 C 
HETATM   12  C9  UNL     1      34.250  30.550  19.822  1.00  0.00     0.002 C 
BRANCH  12  13
HETATM   13  C8  UNL     1      33.193  29.651  19.361  1.00  0.00     0.148 C 
HETATM   14  O1  UNL     1      32.443  29.213  20.480  1.00  0.00    -0.381 OA
HETATM   15  C7  UNL     1      31.669  30.331  20.811  1.00  0.00     0.173 C 
HETATM   16  C6  UNL     1      31.140  30.860  19.494  1.00  0.00     0.017 C 
HETATM   17  C5  UNL     1      31.608  32.251  19.116  1.00  0.00     0.012 C 
HETATM   18  C21 UNL     1      32.132  30.271  18.522  1.00  0.00     0.029 C 
HETATM   19  C4  UNL     1      32.350  31.632  17.961  1.00  0.00    -0.004 C 
BRANCH  19  20
HETATM   20  C2  UNL     1      31.502  31.789  16.687  1.00  0.00    -0.018 C 
HETATM   21  C1  UNL     1      31.518  33.177  16.153  1.00  0.00     0.010 C 
HETATM   22  C3  UNL     1      31.957  30.827  15.625  1.00  0.00     0.010 C 
ENDBRANCH  19  20
ENDBRANCH  12  13
ENDBRANCH   1  11
BRANCH   2  23
HETATM   23  O2  UNL     1      37.709  28.011  18.221  1.00  0.00    -0.392 OA
ATOM     24  H2  UNL     1      38.401  28.407  17.703  1.00  0.00     0.210 HD
ENDBRANCH   2  23
BRANCH   3  25
HETATM   25  O3  UNL     1      39.037  27.253  20.231  1.00  0.00    -0.392 OA
ATOM     26  H3  UNL     1      39.921  27.593  20.152  1.00  0.00     0.210 HD
ENDBRANCH   3  25
TORSDOF 5
ENDMDL
