MODEL 1
REMARK VINA RESULT: -6.852942815      0.000      0.000
REMARK  4 active torsions:
REMARK  status: ('A' for Active; 'I' for Inactive)
REMARK    1  A    between atoms: C2_2  and  C3_3 
REMARK    2  A    between atoms: C3_3  and  C4_4 
REMARK    3  A    between atoms: C4_4  and  C5_5 
REMARK    4  A    between atoms: C13_14  and  O2_15 
ROOT
HETATM    1  C3  UNL     1      33.557  28.313  20.272  1.00  0.00    -0.017 C 
HETATM    2  C8  UNL     1      34.430  29.266  19.504  1.00  0.00     0.021 C 
HETATM    3  C9  UNL     1      35.575  29.863  20.218  1.00  0.00     0.080 C 
HETATM    4  C10 UNL     1      35.802  29.346  21.573  1.00  0.00     0.138 C 
HETATM    5  O1  UNL     1      36.486  30.007  22.334  1.00  0.00    -0.297 OA
HETATM    6  C11 UNL     1      35.261  28.074  22.093  1.00  0.00     0.050 C 
HETATM    7  C12 UNL     1      34.760  28.344  23.496  1.00  0.00     0.027 C 
HETATM    8  C13 UNL     1      36.468  27.119  22.159  1.00  0.00     0.157 C 
HETATM    9  C14 UNL     1      35.763  25.834  21.993  1.00  0.00     0.122 C 
HETATM   10  N1  UNL     1      36.561  24.679  21.798  1.00  0.00    -0.353 N 
ATOM     11  H1  UNL     1      37.578  24.695  21.883  1.00  0.00     0.163 HD
HETATM   12  C15 UNL     1      35.841  23.492  21.474  1.00  0.00     0.218 C 
HETATM   13  O3  UNL     1      36.301  22.332  21.672  1.00  0.00    -0.274 OA
HETATM   14  C16 UNL     1      34.520  23.610  20.890  1.00  0.00     0.103 C 
HETATM   15  C17 UNL     1      33.891  24.942  20.807  1.00  0.00     0.021 C 
HETATM   16  C18 UNL     1      34.836  26.127  20.781  1.00  0.00    -0.015 C 
HETATM   17  C19 UNL     1      35.656  26.040  19.565  1.00  0.00     0.018 C 
HETATM   18  C20 UNL     1      34.264  27.394  21.219  1.00  0.00     0.026 C 
ENDROOT
BRANCH   1  19
HETATM   19  C2  UNL     1      32.667  29.130  21.141  1.00  0.00    -0.027 C 
HETATM   20  C1  UNL     1      31.917  30.135  20.806  1.00  0.00     0.008 C 
ENDBRANCH   1  19
BRANCH   1  21
HETATM   21  C4  UNL     1      32.719  27.572  19.307  1.00  0.00     0.017 C 
BRANCH  21  22
HETATM   22  C5  UNL     1      32.786  27.930  17.856  1.00  0.00    -0.022 C 
HETATM   23  C6  UNL     1      32.980  26.602  17.044  1.00  0.00     0.009 C 
HETATM   24  C7  UNL     1      31.565  28.536  17.238  1.00  0.00     0.009 C 
ENDBRANCH  21  22
ENDBRANCH   1  21
BRANCH   8  25
HETATM   25  O2  UNL     1      37.110  27.241  23.396  1.00  0.00    -0.392 OA
ATOM     26  H2  UNL     1      38.003  27.539  23.272  1.00  0.00     0.210 HD
ENDBRANCH   8  25
TORSDOF 4
ENDMDL
MODEL 2
REMARK VINA RESULT: -6.812443831      1.743      2.446
REMARK  4 active torsions:
REMARK  status: ('A' for Active; 'I' for Inactive)
REMARK    1  A    between atoms: C2_2  and  C3_3 
REMARK    2  A    between atoms: C3_3  and  C4_4 
REMARK    3  A    between atoms: C4_4  and  C5_5 
REMARK    4  A    between atoms: C13_14  and  O2_15 
ROOT
HETATM    1  C3  UNL     1      34.541  28.588  20.730  1.00  0.00    -0.017 C 
HETATM    2  C8  UNL     1      35.615  29.510  21.235  1.00  0.00     0.021 C 
HETATM    3  C9  UNL     1      36.358  29.090  22.439  1.00  0.00     0.080 C 
HETATM    4  C10 UNL     1      36.040  27.743  22.929  1.00  0.00     0.138 C 
HETATM    5  O1  UNL     1      36.340  27.462  24.076  1.00  0.00    -0.297 OA
HETATM    6  C11 UNL     1      35.380  26.690  22.132  1.00  0.00     0.050 C 
HETATM    7  C12 UNL     1      34.350  26.035  23.029  1.00  0.00     0.027 C 
HETATM    8  C13 UNL     1      36.491  25.673  21.807  1.00  0.00     0.157 C 
HETATM    9  C14 UNL     1      35.955  25.132  20.544  1.00  0.00     0.122 C 
HETATM   10  N1  UNL     1      36.803  24.279  19.794  1.00  0.00    -0.353 N 
ATOM     11  H1  UNL     1      37.699  23.947  20.151  1.00  0.00     0.163 HD
HETATM   12  C15 UNL     1      36.313  23.918  18.505  1.00  0.00     0.218 C 
HETATM   13  O3  UNL     1      36.694  22.882  17.889  1.00  0.00    -0.274 OA
HETATM   14  C16 UNL     1      35.333  24.770  17.862  1.00  0.00     0.103 C 
HETATM   15  C17 UNL     1      34.745  25.887  18.626  1.00  0.00     0.021 C 
HETATM   16  C18 UNL     1      35.581  26.427  19.770  1.00  0.00    -0.015 C 
HETATM   17  C19 UNL     1      36.822  26.985  19.214  1.00  0.00     0.018 C 
HETATM   18  C20 UNL     1      34.839  27.123  20.813  1.00  0.00     0.026 C 
ENDROOT
BRANCH   1  19
HETATM   19  C2  UNL     1      33.350  28.776  21.603  1.00  0.00    -0.027 C 
HETATM   20  C1  UNL     1      32.338  29.566  21.423  1.00  0.00     0.008 C 
ENDBRANCH   1  19
BRANCH   1  21
HETATM   21  C4  UNL     1      34.184  29.000  19.356  1.00  0.00     0.017 C 
BRANCH  21  22
HETATM   22  C5  UNL     1      34.584  30.359  18.875  1.00  0.00    -0.022 C 
HETATM   23  C6  UNL     1      35.474  30.173  17.597  1.00  0.00     0.009 C 
HETATM   24  C7  UNL     1      33.495  31.272  18.406  1.00  0.00     0.009 C 
ENDBRANCH  21  22
ENDBRANCH   1  21
BRANCH   8  25
HETATM   25  O2  UNL     1      36.579  24.716  22.824  1.00  0.00    -0.392 OA
ATOM     26  H2  UNL     1      37.030  23.944  22.505  1.00  0.00     0.210 HD
ENDBRANCH   8  25
TORSDOF 4
ENDMDL
MODEL 3
REMARK VINA RESULT: -6.710269944      2.593      4.957
REMARK  4 active torsions:
REMARK  status: ('A' for Active; 'I' for Inactive)
REMARK    1  A    between atoms: C2_2  and  C3_3 
REMARK    2  A    between atoms: C3_3  and  C4_4 
REMARK    3  A    between atoms: C4_4  and  C5_5 
REMARK    4  A    between atoms: C13_14  and  O2_15 
ROOT
HETATM    1  C3  UNL     1      35.983  25.361  20.934  1.00  0.00    -0.017 C 
HETATM    2  C8  UNL     1      34.607  25.199  21.519  1.00  0.00     0.021 C 
HETATM    3  C9  UNL     1      34.207  26.140  22.582  1.00  0.00     0.080 C 
HETATM    4  C10 UNL     1      35.165  27.218  22.853  1.00  0.00     0.138 C 
HETATM    5  O1  UNL     1      35.078  27.813  23.912  1.00  0.00    -0.297 OA
HETATM    6  C11 UNL     1      36.239  27.644  21.933  1.00  0.00     0.050 C 
HETATM    7  C12 UNL     1      37.483  27.856  22.769  1.00  0.00     0.027 C 
HETATM    8  C13 UNL     1      35.771  28.998  21.365  1.00  0.00     0.157 C 
HETATM    9  C14 UNL     1      36.468  28.964  20.066  1.00  0.00     0.122 C 
HETATM   10  N1  UNL     1      36.136  29.973  19.127  1.00  0.00    -0.353 N 
ATOM     11  H1  UNL     1      35.534  30.762  19.362  1.00  0.00     0.163 HD
HETATM   12  C15 UNL     1      36.703  29.805  17.830  1.00  0.00     0.218 C 
HETATM   13  O3  UNL     1      36.870  30.761  17.022  1.00  0.00    -0.274 OA
HETATM   14  C16 UNL     1      37.110  28.479  17.408  1.00  0.00     0.103 C 
HETATM   15  C17 UNL     1      37.087  27.378  18.390  1.00  0.00     0.021 C 
HETATM   16  C18 UNL     1      36.127  27.538  19.552  1.00  0.00    -0.015 C 
HETATM   17  C19 UNL     1      34.757  27.575  19.020  1.00  0.00     0.018 C 
HETATM   18  C20 UNL     1      36.454  26.769  20.745  1.00  0.00     0.026 C 
ENDROOT
BRANCH   1  19
HETATM   19  C2  UNL     1      36.947  24.772  21.903  1.00  0.00    -0.027 C 
HETATM   20  C1  UNL     1      37.145  23.521  22.181  1.00  0.00     0.008 C 
ENDBRANCH   1  19
BRANCH   1  21
HETATM   21  C4  UNL     1      36.047  24.585  19.679  1.00  0.00     0.017 C 
BRANCH  21  22
HETATM   22  C5  UNL     1      34.851  23.800  19.243  1.00  0.00    -0.022 C 
HETATM   23  C6  UNL     1      34.602  24.108  17.725  1.00  0.00     0.009 C 
HETATM   24  C7  UNL     1      34.955  22.308  19.279  1.00  0.00     0.009 C 
ENDBRANCH  21  22
ENDBRANCH   1  21
BRANCH   8  25
HETATM   25  O2  UNL     1      36.200  30.040  22.195  1.00  0.00    -0.392 OA
ATOM     26  H2  UNL     1      36.524  30.762  21.670  1.00  0.00     0.210 HD
ENDBRANCH   8  25
TORSDOF 4
ENDMDL
MODEL 4
REMARK VINA RESULT: -6.700151555      1.379      1.437
REMARK  4 active torsions:
REMARK  status: ('A' for Active; 'I' for Inactive)
REMARK    1  A    between atoms: C2_2  and  C3_3 
REMARK    2  A    between atoms: C3_3  and  C4_4 
REMARK    3  A    between atoms: C4_4  and  C5_5 
REMARK    4  A    between atoms: C13_14  and  O2_15 
ROOT
HETATM    1  C3  UNL     1      33.979  28.707  19.853  1.00  0.00    -0.017 C 
HETATM    2  C8  UNL     1      34.790  29.964  19.702  1.00  0.00     0.021 C 
HETATM    3  C9  UNL     1      35.717  30.308  20.797  1.00  0.00     0.080 C 
HETATM    4  C10 UNL     1      35.832  29.299  21.856  1.00  0.00     0.138 C 
HETATM    5  O1  UNL     1      36.292  29.643  22.930  1.00  0.00    -0.297 OA
HETATM    6  C11 UNL     1      35.430  27.885  21.721  1.00  0.00     0.050 C 
HETATM    7  C12 UNL     1      34.703  27.506  22.995  1.00  0.00     0.027 C 
HETATM    8  C13 UNL     1      36.751  27.096  21.636  1.00  0.00     0.157 C 
HETATM    9  C14 UNL     1      36.286  25.939  20.848  1.00  0.00     0.122 C 
HETATM   10  N1  UNL     1      37.273  25.041  20.371  1.00  0.00    -0.353 N 
ATOM     11  H1  UNL     1      38.253  25.109  20.648  1.00  0.00     0.163 HD
HETATM   12  C15 UNL     1      36.800  24.038  19.477  1.00  0.00     0.218 C 
HETATM   13  O3  UNL     1      37.403  22.944  19.288  1.00  0.00    -0.274 OA
HETATM   14  C16 UNL     1      35.570  24.272  18.746  1.00  0.00     0.103 C 
HETATM   15  C17 UNL     1      34.758  25.459  19.075  1.00  0.00     0.021 C 
HETATM   16  C18 UNL     1      35.501  26.625  19.696  1.00  0.00    -0.015 C 
HETATM   17  C19 UNL     1      36.485  27.121  18.724  1.00  0.00     0.018 C 
HETATM   18  C20 UNL     1      34.682  27.543  20.478  1.00  0.00     0.026 C 
ENDROOT
BRANCH   1  19
HETATM   19  C2  UNL     1      32.860  29.012  20.785  1.00  0.00    -0.027 C 
HETATM   20  C1  UNL     1      32.033  30.010  20.750  1.00  0.00     0.008 C 
ENDBRANCH   1  19
BRANCH   1  21
HETATM   21  C4  UNL     1      33.409  28.362  18.534  1.00  0.00     0.017 C 
BRANCH  21  22
HETATM   22  C5  UNL     1      33.635  29.283  17.377  1.00  0.00    -0.022 C 
HETATM   23  C6  UNL     1      34.115  28.417  16.161  1.00  0.00     0.009 C 
HETATM   24  C7  UNL     1      32.446  30.011  16.833  1.00  0.00     0.009 C 
ENDBRANCH  21  22
ENDBRANCH   1  21
BRANCH   8  25
HETATM   25  O2  UNL     1      37.187  26.750  22.920  1.00  0.00    -0.392 OA
ATOM     26  H2  UNL     1      37.476  27.526  23.385  1.00  0.00     0.210 HD
ENDBRANCH   8  25
TORSDOF 4
ENDMDL
MODEL 5
REMARK VINA RESULT: -6.648672699      1.297      1.396
REMARK  4 active torsions:
REMARK  status: ('A' for Active; 'I' for Inactive)
REMARK    1  A    between atoms: C2_2  and  C3_3 
REMARK    2  A    between atoms: C3_3  and  C4_4 
REMARK    3  A    between atoms: C4_4  and  C5_5 
REMARK    4  A    between atoms: C13_14  and  O2_15 
ROOT
HETATM    1  C3  UNL     1      34.409  28.832  19.656  1.00  0.00    -0.017 C 
HETATM    2  C8  UNL     1      35.710  29.573  19.520  1.00  0.00     0.021 C 
HETATM    3  C9  UNL     1      36.463  29.855  20.758  1.00  0.00     0.080 C 
HETATM    4  C10 UNL     1      35.906  29.254  21.975  1.00  0.00     0.138 C 
HETATM    5  O1  UNL     1      36.254  29.706  23.051  1.00  0.00    -0.297 OA
HETATM    6  C11 UNL     1      34.946  28.132  22.000  1.00  0.00     0.050 C 
HETATM    7  C12 UNL     1      33.896  28.468  23.038  1.00  0.00     0.027 C 
HETATM    8  C13 UNL     1      35.761  26.914  22.475  1.00  0.00     0.157 C 
HETATM    9  C14 UNL     1      34.987  25.841  21.822  1.00  0.00     0.122 C 
HETATM   10  N1  UNL     1      35.538  24.536  21.852  1.00  0.00    -0.353 N 
ATOM     11  H1  UNL     1      36.370  24.305  22.396  1.00  0.00     0.163 HD
HETATM   12  C15 UNL     1      34.847  23.568  21.067  1.00  0.00     0.218 C 
HETATM   13  O3  UNL     1      34.918  22.326  21.286  1.00  0.00    -0.274 OA
HETATM   14  C16 UNL     1      34.020  24.018  19.965  1.00  0.00     0.103 C 
HETATM   15  C17 UNL     1      33.781  25.464  19.795  1.00  0.00     0.021 C 
HETATM   16  C18 UNL     1      34.833  26.388  20.376  1.00  0.00    -0.015 C 
HETATM   17  C19 UNL     1      36.101  26.148  19.674  1.00  0.00     0.018 C 
HETATM   18  C20 UNL     1      34.380  27.740  20.678  1.00  0.00     0.026 C 
ENDROOT
BRANCH   1  19
HETATM   19  C2  UNL     1      33.390  29.810  20.125  1.00  0.00    -0.027 C 
HETATM   20  C1  UNL     1      33.109  30.977  19.634  1.00  0.00     0.008 C 
ENDBRANCH   1  19
BRANCH   1  21
HETATM   21  C4  UNL     1      34.011  28.347  18.318  1.00  0.00     0.017 C 
BRANCH  21  22
HETATM   22  C5  UNL     1      34.831  28.731  17.128  1.00  0.00    -0.022 C 
HETATM   23  C6  UNL     1      35.177  27.420  16.339  1.00  0.00     0.009 C 
HETATM   24  C7  UNL     1      34.180  29.594  16.092  1.00  0.00     0.009 C 
ENDBRANCH  21  22
ENDBRANCH   1  21
BRANCH   8  25
HETATM   25  O2  UNL     1      35.739  26.838  23.872  1.00  0.00    -0.392 OA
ATOM     26  H2  UNL     1      36.622  26.732  24.206  1.00  0.00     0.210 HD
ENDBRANCH   8  25
TORSDOF 4
ENDMDL
