MODEL 1
REMARK VINA RESULT: -6.051275424      0.000      0.000
REMARK  13 active torsions:
REMARK  status: ('A' for Active; 'I' for Inactive)
REMARK    1  A    between atoms: C2_2  and  N1_3 
REMARK       I    between atoms: N1_3  and  C3_5 
REMARK    2  A    between atoms: C3_5  and  C4_7 
REMARK    3  A    between atoms: C5_9  and  O3_10 
REMARK    4  A    between atoms: O3_10  and  C6_11 
REMARK    5  A    between atoms: C7_12  and  O4_13 
REMARK    6  A    between atoms: C8_15  and  S1_16 
REMARK    7  A    between atoms: S1_16  and  C9_17 
REMARK    8  A    between atoms: C14_22  and  O5_23 
REMARK    9  A    between atoms: C15_25  and  N2_26 
REMARK   10  A    between atoms: N2_26  and  N3_28 
REMARK   11  A    between atoms: C16_33  and  O6_34 
REMARK   12  A    between atoms: C17_36  and  O7_37 
REMARK   13  A    between atoms: C18_39  and  O8_40 
ROOT
HETATM    1  C6  UNL     1      13.832  27.822  37.346  1.00  0.00     0.181 C 
HETATM    2  C7  UNL     1      15.035  27.205  38.011  1.00  0.00     0.165 C 
HETATM    3  C8  UNL     1      16.175  27.624  37.073  1.00  0.00     0.110 C 
HETATM    4  C14 UNL     1      15.534  27.312  35.728  1.00  0.00     0.161 C 
HETATM    5  C15 UNL     1      14.189  27.992  35.877  1.00  0.00     0.162 C 
ENDROOT
BRANCH   1   6
HETATM    6  O3  UNL     1      12.696  27.057  37.415  1.00  0.00    -0.348 OA
BRANCH   6   7
HETATM    7  C5  UNL     1      11.572  27.760  37.824  1.00  0.00     0.292 C 
HETATM    8  O2  UNL     1      10.595  27.607  36.819  1.00  0.00    -0.341 OA
HETATM    9  C4  UNL     1       9.366  27.971  37.358  1.00  0.00     0.247 C 
HETATM   10  C18 UNL     1       8.853  26.787  38.152  1.00  0.00     0.188 C 
HETATM   11  C17 UNL     1      10.060  26.063  38.697  1.00  0.00     0.183 C 
HETATM   12  C16 UNL     1      11.080  27.099  39.095  1.00  0.00     0.204 C 
BRANCH   9  13
HETATM   13  C3  UNL     1       8.366  28.273  36.308  1.00  0.00     0.249 C 
HETATM   14  N1  UNL     1       7.100  28.849  36.578  1.00  0.00    -0.359 N 
ATOM     15  H1  UNL     1       6.836  29.080  37.536  1.00  0.00     0.162 HD
HETATM   16  O1  UNL     1       8.660  28.002  35.123  1.00  0.00    -0.271 OA
BRANCH  14  17
HETATM   17  C2  UNL     1       6.183  29.109  35.485  1.00  0.00     0.118 C 
HETATM   18  C1  UNL     1       4.780  29.391  35.975  1.00  0.00     0.026 C 
ENDBRANCH  14  17
ENDBRANCH   9  13
BRANCH  10  19
HETATM   19  O8  UNL     1       8.226  25.928  37.254  1.00  0.00    -0.390 OA
ATOM     20  H8  UNL     1       7.540  25.475  37.730  1.00  0.00     0.210 HD
ENDBRANCH  10  19
BRANCH  11  21
HETATM   21  O7  UNL     1       9.768  25.158  39.686  1.00  0.00    -0.390 OA
ATOM     22  H7  UNL     1       9.787  25.524  40.563  1.00  0.00     0.210 HD
ENDBRANCH  11  21
BRANCH  12  23
HETATM   23  O6  UNL     1      10.577  28.021  40.003  1.00  0.00    -0.388 OA
ATOM     24  H6  UNL     1      11.188  28.197  40.710  1.00  0.00     0.210 HD
ENDBRANCH  12  23
ENDBRANCH   6   7
ENDBRANCH   1   6
BRANCH   2  25
HETATM   25  O4  UNL     1      15.015  25.825  38.018  1.00  0.00    -0.392 OA
ATOM     26  H4  UNL     1      14.430  25.457  38.670  1.00  0.00     0.210 HD
ENDBRANCH   2  25
BRANCH   5  27
HETATM   27  N2  UNL     1      13.251  27.319  35.020  1.00  0.00    -0.313 N 
ATOM     28  H2  UNL     1      12.279  27.628  35.009  1.00  0.00     0.182 HD
BRANCH  27  29
HETATM   29  N3  UNL     1      13.585  26.388  34.306  1.00  0.00    -0.253 N 
HETATM   30  N4  UNL     1      13.522  25.577  33.361  1.00  0.00    -0.331 N 
ATOM     31  H42 UNL     1      12.656  25.912  32.940  1.00  0.00     0.178 HD
ATOM     32  H41 UNL     1      13.802  24.799  32.764  1.00  0.00     0.178 HD
ATOM     33  H3  UNL     1      14.447  26.090  34.763  1.00  0.00     0.207 HD
ENDBRANCH  27  29
ENDBRANCH   5  27
BRANCH   3  34
HETATM   34  S1  UNL     1      17.640  26.585  37.319  1.00  0.00    -0.154 SA
BRANCH  34  35
HETATM   35  C9  UNL     1      19.104  27.559  37.669  1.00  0.00     0.048 C 
HETATM   36  C10 UNL     1      18.856  28.283  38.996  1.00  0.00     0.015 C 
HETATM   37  C11 UNL     1      20.229  28.697  39.411  1.00  0.00     0.001 C 
HETATM   38  C12 UNL     1      21.122  27.544  38.994  1.00  0.00     0.001 C 
HETATM   39  C13 UNL     1      20.322  26.744  37.973  1.00  0.00     0.015 C 
ENDBRANCH  34  35
ENDBRANCH   3  34
BRANCH   4  40
HETATM   40  O5  UNL     1      16.269  27.779  34.667  1.00  0.00    -0.392 OA
ATOM     41  H5  UNL     1      16.164  28.712  34.528  1.00  0.00     0.210 HD
ENDBRANCH   4  40
TORSDOF 13
ENDMDL
MODEL 2
REMARK VINA RESULT: -5.858338760      5.083      8.512
REMARK  13 active torsions:
REMARK  status: ('A' for Active; 'I' for Inactive)
REMARK    1  A    between atoms: C2_2  and  N1_3 
REMARK       I    between atoms: N1_3  and  C3_5 
REMARK    2  A    between atoms: C3_5  and  C4_7 
REMARK    3  A    between atoms: C5_9  and  O3_10 
REMARK    4  A    between atoms: O3_10  and  C6_11 
REMARK    5  A    between atoms: C7_12  and  O4_13 
REMARK    6  A    between atoms: C8_15  and  S1_16 
REMARK    7  A    between atoms: S1_16  and  C9_17 
REMARK    8  A    between atoms: C14_22  and  O5_23 
REMARK    9  A    between atoms: C15_25  and  N2_26 
REMARK   10  A    between atoms: N2_26  and  N3_28 
REMARK   11  A    between atoms: C16_33  and  O6_34 
REMARK   12  A    between atoms: C17_36  and  O7_37 
REMARK   13  A    between atoms: C18_39  and  O8_40 
ROOT
HETATM    1  C6  UNL     1      13.796  30.218  41.132  1.00  0.00     0.181 C 
HETATM    2  C7  UNL     1      12.496  30.646  41.763  1.00  0.00     0.165 C 
HETATM    3  C8  UNL     1      12.969  31.292  43.073  1.00  0.00     0.110 C 
HETATM    4  C14 UNL     1      13.981  30.248  43.527  1.00  0.00     0.161 C 
HETATM    5  C15 UNL     1      14.797  30.059  42.266  1.00  0.00     0.162 C 
ENDROOT
BRANCH   1   6
HETATM    6  O3  UNL     1      13.730  29.024  40.461  1.00  0.00    -0.348 OA
BRANCH   6   7
HETATM    7  C5  UNL     1      13.681  29.158  39.081  1.00  0.00     0.292 C 
HETATM    8  O2  UNL     1      14.658  28.295  38.543  1.00  0.00    -0.341 OA
HETATM    9  C4  UNL     1      14.383  28.129  37.190  1.00  0.00     0.247 C 
HETATM   10  C18 UNL     1      13.284  27.091  37.077  1.00  0.00     0.188 C 
HETATM   11  C17 UNL     1      12.424  27.221  38.310  1.00  0.00     0.183 C 
HETATM   12  C16 UNL     1      12.310  28.687  38.643  1.00  0.00     0.204 C 
BRANCH   9  13
HETATM   13  C3  UNL     1      15.556  27.622  36.442  1.00  0.00     0.249 C 
HETATM   14  N1  UNL     1      16.695  27.058  37.067  1.00  0.00    -0.359 N 
ATOM     15  H1  UNL     1      16.739  26.984  38.083  1.00  0.00     0.162 HD
HETATM   16  O1  UNL     1      15.534  27.698  35.194  1.00  0.00    -0.271 OA
BRANCH  14  17
HETATM   17  C2  UNL     1      17.800  26.586  36.253  1.00  0.00     0.118 C 
HETATM   18  C1  UNL     1      18.890  25.951  37.088  1.00  0.00     0.026 C 
ENDBRANCH  14  17
ENDBRANCH   9  13
BRANCH  10  19
HETATM   19  O8  UNL     1      13.892  25.840  37.127  1.00  0.00    -0.390 OA
ATOM     20  H8  UNL     1      13.202  25.190  37.074  1.00  0.00     0.210 HD
ENDBRANCH  10  19
BRANCH  11  21
HETATM   21  O7  UNL     1      11.218  26.574  38.218  1.00  0.00    -0.390 OA
ATOM     22  H7  UNL     1      10.790  26.671  37.376  1.00  0.00     0.210 HD
ENDBRANCH  11  21
BRANCH  12  23
HETATM   23  O6  UNL     1      11.814  29.437  37.585  1.00  0.00    -0.388 OA
ATOM     24  H6  UNL     1      11.250  28.924  37.017  1.00  0.00     0.210 HD
ENDBRANCH  12  23
ENDBRANCH   6   7
ENDBRANCH   1   6
BRANCH   2  25
HETATM   25  O4  UNL     1      11.679  29.591  42.115  1.00  0.00    -0.392 OA
ATOM     26  H4  UNL     1      11.369  29.633  43.012  1.00  0.00     0.210 HD
ENDBRANCH   2  25
BRANCH   5  27
HETATM   27  N2  UNL     1      15.363  28.737  42.295  1.00  0.00    -0.313 N 
ATOM     28  H2  UNL     1      15.012  28.062  42.974  1.00  0.00     0.182 HD
BRANCH  27  29
HETATM   29  N3  UNL     1      16.251  28.402  41.529  1.00  0.00    -0.253 N 
HETATM   30  N4  UNL     1      16.769  27.921  40.501  1.00  0.00    -0.331 N 
ATOM     31  H42 UNL     1      15.912  27.646  40.022  1.00  0.00     0.178 HD
ATOM     32  H41 UNL     1      17.511  27.641  39.861  1.00  0.00     0.178 HD
ATOM     33  H3  UNL     1      17.079  28.695  42.047  1.00  0.00     0.207 HD
ENDBRANCH  27  29
ENDBRANCH   5  27
BRANCH   3  34
HETATM   34  S1  UNL     1      11.615  31.407  44.272  1.00  0.00    -0.154 SA
BRANCH  34  35
HETATM   35  C9  UNL     1      10.120  32.068  43.535  1.00  0.00     0.048 C 
HETATM   36  C10 UNL     1       9.001  31.054  43.800  1.00  0.00     0.015 C 
HETATM   37  C11 UNL     1       7.764  31.853  43.555  1.00  0.00     0.001 C 
HETATM   38  C12 UNL     1       8.081  33.233  44.097  1.00  0.00     0.001 C 
HETATM   39  C13 UNL     1       9.599  33.300  44.208  1.00  0.00     0.015 C 
ENDBRANCH  34  35
ENDBRANCH   3  34
BRANCH   4  40
HETATM   40  O5  UNL     1      14.724  30.662  44.604  1.00  0.00    -0.392 OA
ATOM     41  H5  UNL     1      14.361  30.377  45.434  1.00  0.00     0.210 HD
ENDBRANCH   4  40
TORSDOF 13
ENDMDL
MODEL 3
REMARK VINA RESULT: -5.841325602      7.614     11.795
REMARK  13 active torsions:
REMARK  status: ('A' for Active; 'I' for Inactive)
REMARK    1  A    between atoms: C2_2  and  N1_3 
REMARK       I    between atoms: N1_3  and  C3_5 
REMARK    2  A    between atoms: C3_5  and  C4_7 
REMARK    3  A    between atoms: C5_9  and  O3_10 
REMARK    4  A    between atoms: O3_10  and  C6_11 
REMARK    5  A    between atoms: C7_12  and  O4_13 
REMARK    6  A    between atoms: C8_15  and  S1_16 
REMARK    7  A    between atoms: S1_16  and  C9_17 
REMARK    8  A    between atoms: C14_22  and  O5_23 
REMARK    9  A    between atoms: C15_25  and  N2_26 
REMARK   10  A    between atoms: N2_26  and  N3_28 
REMARK   11  A    between atoms: C16_33  and  O6_34 
REMARK   12  A    between atoms: C17_36  and  O7_37 
REMARK   13  A    between atoms: C18_39  and  O8_40 
ROOT
HETATM    1  C6  UNL     1      12.254  30.993  44.177  1.00  0.00     0.181 C 
HETATM    2  C7  UNL     1      10.954  31.285  44.880  1.00  0.00     0.165 C 
HETATM    3  C8  UNL     1       9.943  30.500  44.033  1.00  0.00     0.110 C 
HETATM    4  C14 UNL     1      10.411  30.894  42.639  1.00  0.00     0.161 C 
HETATM    5  C15 UNL     1      11.899  30.634  42.742  1.00  0.00     0.162 C 
ENDROOT
BRANCH   1   6
HETATM    6  O3  UNL     1      13.126  32.051  44.140  1.00  0.00    -0.348 OA
BRANCH   6   7
HETATM    7  C5  UNL     1      14.371  31.770  44.684  1.00  0.00     0.292 C 
HETATM    8  O2  UNL     1      15.280  31.663  43.612  1.00  0.00    -0.341 OA
HETATM    9  C4  UNL     1      16.567  31.757  44.132  1.00  0.00     0.247 C 
HETATM   10  C18 UNL     1      16.861  33.228  44.343  1.00  0.00     0.188 C 
HETATM   11  C17 UNL     1      15.551  33.900  44.671  1.00  0.00     0.183 C 
HETATM   12  C16 UNL     1      14.753  32.960  45.540  1.00  0.00     0.204 C 
BRANCH   9  13
HETATM   13  C3  UNL     1      17.584  31.227  43.195  1.00  0.00     0.249 C 
HETATM   14  N1  UNL     1      18.975  31.243  43.463  1.00  0.00    -0.359 N 
ATOM     15  H1  UNL     1      19.324  31.633  44.338  1.00  0.00     0.162 HD
HETATM   16  O1  UNL     1      17.188  30.741  42.113  1.00  0.00    -0.271 OA
BRANCH  14  17
HETATM   17  C2  UNL     1      19.899  30.701  42.485  1.00  0.00     0.118 C 
HETATM   18  C1  UNL     1      20.648  31.789  41.747  1.00  0.00     0.026 C 
ENDBRANCH  14  17
ENDBRANCH   9  13
BRANCH  10  19
HETATM   19  O8  UNL     1      17.296  33.741  43.125  1.00  0.00    -0.390 OA
ATOM     20  H8  UNL     1      18.035  34.309  43.306  1.00  0.00     0.210 HD
ENDBRANCH  10  19
BRANCH  11  21
HETATM   21  O7  UNL     1      15.686  35.162  45.192  1.00  0.00    -0.390 OA
ATOM     22  H7  UNL     1      15.187  35.826  44.731  1.00  0.00     0.210 HD
ENDBRANCH  11  21
BRANCH  12  23
HETATM   23  O6  UNL     1      15.441  32.581  46.685  1.00  0.00    -0.388 OA
ATOM     24  H6  UNL     1      16.011  31.837  46.530  1.00  0.00     0.210 HD
ENDBRANCH  12  23
ENDBRANCH   6   7
ENDBRANCH   1   6
BRANCH   2  25
HETATM   25  O4  UNL     1      10.578  32.611  44.818  1.00  0.00    -0.392 OA
ATOM     26  H4  UNL     1       9.736  32.787  45.221  1.00  0.00     0.210 HD
ENDBRANCH   2  25
BRANCH   5  27
HETATM   27  N2  UNL     1      12.568  31.490  41.798  1.00  0.00    -0.313 N 
ATOM     28  H2  UNL     1      12.174  32.409  41.597  1.00  0.00     0.182 HD
BRANCH  27  29
HETATM   29  N3  UNL     1      13.593  31.146  41.233  1.00  0.00    -0.253 N 
HETATM   30  N4  UNL     1      14.547  30.406  40.922  1.00  0.00    -0.331 N 
ATOM     31  H42 UNL     1      14.306  29.606  41.507  1.00  0.00     0.178 HD
ATOM     32  H41 UNL     1      15.404  30.119  40.450  1.00  0.00     0.178 HD
ATOM     33  H3  UNL     1      13.791  31.971  40.667  1.00  0.00     0.207 HD
ENDBRANCH  27  29
ENDBRANCH   5  27
BRANCH   3  34
HETATM   34  S1  UNL     1       8.254  31.095  44.313  1.00  0.00    -0.154 SA
BRANCH  34  35
HETATM   35  C9  UNL     1       7.121  29.754  44.678  1.00  0.00     0.048 C 
HETATM   36  C10 UNL     1       6.586  29.991  46.095  1.00  0.00     0.015 C 
HETATM   37  C11 UNL     1       5.375  29.119  46.143  1.00  0.00     0.001 C 
HETATM   38  C12 UNL     1       4.766  29.228  44.758  1.00  0.00     0.001 C 
HETATM   39  C13 UNL     1       5.869  29.772  43.858  1.00  0.00     0.015 C 
ENDBRANCH  34  35
ENDBRANCH   3  34
BRANCH   4  40
HETATM   40  O5  UNL     1       9.795  30.171  41.647  1.00  0.00    -0.392 OA
ATOM     41  H5  UNL     1      10.215  29.335  41.487  1.00  0.00     0.210 HD
ENDBRANCH   4  40
TORSDOF 13
ENDMDL
MODEL 4
REMARK VINA RESULT: -5.816387842      5.836      7.460
REMARK  13 active torsions:
REMARK  status: ('A' for Active; 'I' for Inactive)
REMARK    1  A    between atoms: C2_2  and  N1_3 
REMARK       I    between atoms: N1_3  and  C3_5 
REMARK    2  A    between atoms: C3_5  and  C4_7 
REMARK    3  A    between atoms: C5_9  and  O3_10 
REMARK    4  A    between atoms: O3_10  and  C6_11 
REMARK    5  A    between atoms: C7_12  and  O4_13 
REMARK    6  A    between atoms: C8_15  and  S1_16 
REMARK    7  A    between atoms: S1_16  and  C9_17 
REMARK    8  A    between atoms: C14_22  and  O5_23 
REMARK    9  A    between atoms: C15_25  and  N2_26 
REMARK   10  A    between atoms: N2_26  and  N3_28 
REMARK   11  A    between atoms: C16_33  and  O6_34 
REMARK   12  A    between atoms: C17_36  and  O7_37 
REMARK   13  A    between atoms: C18_39  and  O8_40 
ROOT
HETATM    1  C6  UNL     1      11.461  24.058  32.877  1.00  0.00     0.181 C 
HETATM    2  C7  UNL     1      11.509  23.611  31.438  1.00  0.00     0.165 C 
HETATM    3  C8  UNL     1      12.913  23.000  31.334  1.00  0.00     0.110 C 
HETATM    4  C14 UNL     1      13.719  24.074  32.053  1.00  0.00     0.161 C 
HETATM    5  C15 UNL     1      12.904  24.259  33.315  1.00  0.00     0.162 C 
ENDROOT
BRANCH   1   6
HETATM    6  O3  UNL     1      10.793  25.238  33.079  1.00  0.00    -0.348 OA
BRANCH   6   7
HETATM    7  C5  UNL     1       9.431  25.162  32.826  1.00  0.00     0.292 C 
HETATM    8  O2  UNL     1       8.912  24.137  33.644  1.00  0.00    -0.341 OA
HETATM    9  C4  UNL     1       7.530  24.287  33.692  1.00  0.00     0.247 C 
HETATM   10  C18 UNL     1       7.230  25.368  34.712  1.00  0.00     0.188 C 
HETATM   11  C17 UNL     1       8.386  26.336  34.684  1.00  0.00     0.183 C 
HETATM   12  C16 UNL     1       8.832  26.485  33.252  1.00  0.00     0.204 C 
BRANCH   9  13
HETATM   13  C3  UNL     1       6.852  23.049  34.138  1.00  0.00     0.249 C 
HETATM   14  N1  UNL     1       7.501  22.022  34.865  1.00  0.00    -0.359 N 
ATOM     15  H1  UNL     1       8.488  22.111  35.108  1.00  0.00     0.162 HD
HETATM   16  O1  UNL     1       5.641  22.910  33.855  1.00  0.00    -0.271 OA
BRANCH  14  17
HETATM   17  C2  UNL     1       6.756  20.842  35.261  1.00  0.00     0.118 C 
HETATM   18  C1  UNL     1       6.732  20.663  36.762  1.00  0.00     0.026 C 
ENDBRANCH  14  17
ENDBRANCH   9  13
BRANCH  10  19
HETATM   19  O8  UNL     1       7.226  24.762  35.965  1.00  0.00    -0.390 OA
ATOM     20  H8  UNL     1       6.613  24.038  35.926  1.00  0.00     0.210 HD
ENDBRANCH  10  19
BRANCH  11  21
HETATM   21  O7  UNL     1       8.130  27.527  35.316  1.00  0.00    -0.390 OA
ATOM     22  H7  UNL     1       7.367  27.508  35.883  1.00  0.00     0.210 HD
ENDBRANCH  11  21
BRANCH  12  23
HETATM   23  O6  UNL     1       7.801  26.887  32.412  1.00  0.00    -0.388 OA
ATOM     24  H6  UNL     1       7.381  27.683  32.717  1.00  0.00     0.210 HD
ENDBRANCH  12  23
ENDBRANCH   6   7
ENDBRANCH   1   6
BRANCH   2  25
HETATM   25  O4  UNL     1      11.464  24.654  30.535  1.00  0.00    -0.392 OA
ATOM     26  H4  UNL     1      11.464  24.371  29.627  1.00  0.00     0.210 HD
ENDBRANCH   2  25
BRANCH   5  27
HETATM   27  N2  UNL     1      13.131  25.594  33.802  1.00  0.00    -0.313 N 
ATOM     28  H2  UNL     1      12.350  26.117  34.197  1.00  0.00     0.182 HD
BRANCH  27  29
HETATM   29  N3  UNL     1      14.232  26.116  33.754  1.00  0.00    -0.253 N 
HETATM   30  N4  UNL     1      15.324  26.546  34.173  1.00  0.00    -0.331 N 
ATOM     31  H42 UNL     1      15.208  26.303  35.157  1.00  0.00     0.178 HD
ATOM     32  H41 UNL     1      16.245  26.983  34.134  1.00  0.00     0.178 HD
ATOM     33  H3  UNL     1      14.301  26.339  32.761  1.00  0.00     0.207 HD
ENDBRANCH  27  29
ENDBRANCH   5  27
BRANCH   3  34
HETATM   34  S1  UNL     1      13.446  22.876  29.606  1.00  0.00    -0.154 SA
BRANCH  34  35
HETATM   35  C9  UNL     1      14.430  21.406  29.311  1.00  0.00     0.048 C 
HETATM   36  C10 UNL     1      15.901  21.814  29.458  1.00  0.00     0.015 C 
HETATM   37  C11 UNL     1      16.593  20.501  29.627  1.00  0.00     0.001 C 
HETATM   38  C12 UNL     1      15.644  19.670  30.468  1.00  0.00     0.001 C 
HETATM   39  C13 UNL     1      14.285  20.351  30.362  1.00  0.00     0.015 C 
ENDBRANCH  34  35
ENDBRANCH   3  34
BRANCH   4  40
HETATM   40  O5  UNL     1      15.017  23.696  32.289  1.00  0.00    -0.392 OA
ATOM     41  H5  UNL     1      15.252  23.739  33.208  1.00  0.00     0.210 HD
ENDBRANCH   4  40
TORSDOF 13
ENDMDL
MODEL 5
REMARK VINA RESULT: -5.783049230      2.935      4.137
REMARK  13 active torsions:
REMARK  status: ('A' for Active; 'I' for Inactive)
REMARK    1  A    between atoms: C2_2  and  N1_3 
REMARK       I    between atoms: N1_3  and  C3_5 
REMARK    2  A    between atoms: C3_5  and  C4_7 
REMARK    3  A    between atoms: C5_9  and  O3_10 
REMARK    4  A    between atoms: O3_10  and  C6_11 
REMARK    5  A    between atoms: C7_12  and  O4_13 
REMARK    6  A    between atoms: C8_15  and  S1_16 
REMARK    7  A    between atoms: S1_16  and  C9_17 
REMARK    8  A    between atoms: C14_22  and  O5_23 
REMARK    9  A    between atoms: C15_25  and  N2_26 
REMARK   10  A    between atoms: N2_26  and  N3_28 
REMARK   11  A    between atoms: C16_33  and  O6_34 
REMARK   12  A    between atoms: C17_36  and  O7_37 
REMARK   13  A    between atoms: C18_39  and  O8_40 
ROOT
HETATM    1  C6  UNL     1      15.943  27.836  38.130  1.00  0.00     0.181 C 
HETATM    2  C7  UNL     1      17.184  27.161  38.654  1.00  0.00     0.165 C 
HETATM    3  C8  UNL     1      18.302  27.976  37.989  1.00  0.00     0.110 C 
HETATM    4  C14 UNL     1      17.757  28.056  36.569  1.00  0.00     0.161 C 
HETATM    5  C15 UNL     1      16.336  28.511  36.825  1.00  0.00     0.162 C 
ENDROOT
BRANCH   1   6
HETATM    6  O3  UNL     1      14.905  26.980  37.864  1.00  0.00    -0.348 OA
BRANCH   6   7
HETATM    7  C5  UNL     1      13.869  27.054  38.784  1.00  0.00     0.292 C 
HETATM    8  O2  UNL     1      13.748  28.405  39.168  1.00  0.00    -0.341 OA
HETATM    9  C4  UNL     1      12.509  28.566  39.781  1.00  0.00     0.247 C 
HETATM   10  C18 UNL     1      11.476  28.700  38.680  1.00  0.00     0.188 C 
HETATM   11  C17 UNL     1      11.965  27.881  37.511  1.00  0.00     0.183 C 
HETATM   12  C16 UNL     1      12.608  26.632  38.058  1.00  0.00     0.204 C 
BRANCH   9  13
HETATM   13  C3  UNL     1      12.451  29.797  40.602  1.00  0.00     0.249 C 
HETATM   14  N1  UNL     1      11.488  30.012  41.618  1.00  0.00    -0.359 N 
ATOM     15  H1  UNL     1      10.786  29.301  41.818  1.00  0.00     0.162 HD
HETATM   16  O1  UNL     1      13.299  30.689  40.381  1.00  0.00    -0.271 OA
BRANCH  14  17
HETATM   17  C2  UNL     1      11.507  31.251  42.373  1.00  0.00     0.118 C 
HETATM   18  C1  UNL     1      10.139  31.612  42.907  1.00  0.00     0.026 C 
ENDBRANCH  14  17
ENDBRANCH   9  13
BRANCH  10  19
HETATM   19  O8  UNL     1      11.472  30.033  38.279  1.00  0.00    -0.390 OA
ATOM     20  H8  UNL     1      10.623  30.207  37.891  1.00  0.00     0.210 HD
ENDBRANCH  10  19
BRANCH  11  21
HETATM   21  O7  UNL     1      11.008  27.645  36.557  1.00  0.00    -0.390 OA
ATOM     22  H7  UNL     1      11.356  27.341  35.727  1.00  0.00     0.210 HD
ENDBRANCH  11  21
BRANCH  12  23
HETATM   23  O6  UNL     1      11.752  25.906  38.875  1.00  0.00    -0.388 OA
ATOM     24  H6  UNL     1      10.861  26.232  38.838  1.00  0.00     0.210 HD
ENDBRANCH  12  23
ENDBRANCH   6   7
ENDBRANCH   1   6
BRANCH   2  25
HETATM   25  O4  UNL     1      17.330  25.859  38.218  1.00  0.00    -0.392 OA
ATOM     26  H4  UNL     1      16.629  25.569  37.646  1.00  0.00     0.210 HD
ENDBRANCH   2  25
BRANCH   5  27
HETATM   27  N2  UNL     1      15.519  28.062  35.728  1.00  0.00    -0.313 N 
ATOM     28  H2  UNL     1      14.627  28.523  35.553  1.00  0.00     0.182 HD
BRANCH  27  29
HETATM   29  N3  UNL     1      15.866  27.146  35.001  1.00  0.00    -0.253 N 
HETATM   30  N4  UNL     1      15.810  26.342  34.050  1.00  0.00    -0.331 N 
ATOM     31  H42 UNL     1      14.932  26.662  33.642  1.00  0.00     0.178 HD
ATOM     32  H41 UNL     1      16.100  25.576  33.443  1.00  0.00     0.178 HD
ATOM     33  H3  UNL     1      16.740  26.863  35.446  1.00  0.00     0.207 HD
ENDBRANCH  27  29
ENDBRANCH   5  27
BRANCH   3  34
HETATM   34  S1  UNL     1      19.870  27.066  38.001  1.00  0.00    -0.154 SA
BRANCH  34  35
HETATM   35  C9  UNL     1      21.002  27.695  39.242  1.00  0.00     0.048 C 
HETATM   36  C10 UNL     1      22.416  27.300  38.801  1.00  0.00     0.015 C 
HETATM   37  C11 UNL     1      23.282  28.203  39.617  1.00  0.00     0.001 C 
HETATM   38  C12 UNL     1      22.528  29.517  39.671  1.00  0.00     0.001 C 
HETATM   39  C13 UNL     1      21.089  29.189  39.289  1.00  0.00     0.015 C 
ENDBRANCH  34  35
ENDBRANCH   3  34
BRANCH   4  40
HETATM   40  O5  UNL     1      18.472  28.914  35.772  1.00  0.00    -0.392 OA
ATOM     41  H5  UNL     1      18.546  29.786  36.143  1.00  0.00     0.210 HD
ENDBRANCH   4  40
TORSDOF 13
ENDMDL
