MODEL 1
REMARK VINA RESULT: -7.101924867      0.000      0.000
REMARK  12 active torsions:
REMARK  status: ('A' for Active; 'I' for Inactive)
REMARK       I    between atoms: C1_2  and  N1_3 
REMARK    1  A    between atoms: C1_2  and  O3_12 
REMARK    2  A    between atoms: N1_3  and  C2_5 
REMARK    3  A    between atoms: C5_8  and  O2_9 
REMARK    4  A    between atoms: O3_12  and  N2_13 
REMARK    5  A    between atoms: N2_13  and  C7_14 
REMARK    6  A    between atoms: C8_16  and  C9_17 
REMARK    7  A    between atoms: C9_17  and  O5_18 
REMARK    8  A    between atoms: C10_20  and  O6_21 
REMARK    9  A    between atoms: C11_23  and  N3_24 
REMARK       I    between atoms: N3_24  and  C12_26 
REMARK   10  A    between atoms: C12_26  and  C13_28 
REMARK   11  A    between atoms: C13_28  and  C14_29 
REMARK   12  A    between atoms: C13_28  and  C20_35 
ROOT
HETATM    1  C7  UNL     1      10.114  28.330  37.850  1.00  0.00     0.390 C 
HETATM    2  O4  UNL     1       9.520  27.815  36.709  1.00  0.00    -0.335 OA
HETATM    3  C8  UNL     1       8.140  27.759  36.792  1.00  0.00     0.182 C 
HETATM    4  C10 UNL     1       7.600  28.231  38.110  1.00  0.00     0.198 C 
HETATM    5  C11 UNL     1       8.333  29.402  38.679  1.00  0.00     0.259 C 
HETATM    6  O9  UNL     1       9.568  29.585  38.072  1.00  0.00    -0.318 OA
ENDROOT
BRANCH   5   7
HETATM    7  N3  UNL     1       8.541  29.340  40.108  1.00  0.00    -0.332 N 
HETATM    8  C12 UNL     1       7.613  29.774  41.062  1.00  0.00     0.230 C 
HETATM    9  O7  UNL     1       6.516  30.256  40.704  1.00  0.00    -0.273 OA
ATOM     10  H3  UNL     1       9.423  28.954  40.443  1.00  0.00     0.165 HD
BRANCH   8  11
HETATM   11  C13 UNL     1       7.896  29.678  42.510  1.00  0.00     0.142 C 
BRANCH  11  12
HETATM   12  C14 UNL     1       8.496  30.922  43.046  1.00  0.00    -0.043 A 
HETATM   13  C15 UNL     1       9.857  31.169  42.997  1.00  0.00     0.008 A 
HETATM   14  C16 UNL     1      10.405  32.328  43.499  1.00  0.00     0.001 A 
HETATM   15  C17 UNL     1       9.584  33.280  44.071  1.00  0.00     0.000 A 
HETATM   16  C18 UNL     1       8.222  33.066  44.135  1.00  0.00     0.001 A 
HETATM   17  C19 UNL     1       7.708  31.894  43.622  1.00  0.00     0.008 A 
ENDBRANCH  11  12
BRANCH  11  18
HETATM   18  C20 UNL     1       8.764  28.470  42.795  1.00  0.00     0.162 A 
HETATM   19  C21 UNL     1       8.076  27.237  43.343  1.00  0.00     0.201 A 
HETATM   20  O8  UNL     1       8.837  28.100  44.127  1.00  0.00    -0.380 OA
ENDBRANCH  11  18
ENDBRANCH   8  11
ENDBRANCH   5   7
BRANCH   4  21
HETATM   21  O6  UNL     1       6.255  28.575  37.992  1.00  0.00    -0.389 OA
ATOM     22  H6  UNL     1       6.166  29.456  37.648  1.00  0.00     0.210 HD
ENDBRANCH   4  21
BRANCH   3  23
HETATM   23  C9  UNL     1       7.582  28.548  35.628  1.00  0.00     0.199 C 
BRANCH  23  24
HETATM   24  O5  UNL     1       7.918  29.899  35.716  1.00  0.00    -0.398 OA
ATOM     25  H5  UNL     1       8.744  30.084  35.284  1.00  0.00     0.209 HD
ENDBRANCH  23  24
ENDBRANCH   3  23
BRANCH   1  26
HETATM   26  N2  UNL     1      11.520  28.529  37.557  1.00  0.00    -0.029 NA
BRANCH  26  27
HETATM   27  O3  UNL     1      11.991  27.598  36.659  1.00  0.00    -0.184 OA
BRANCH  27  28
HETATM   28  C1  UNL     1      13.334  27.330  36.487  1.00  0.00     0.379 C 
HETATM   29  O1  UNL     1      13.643  26.212  36.014  1.00  0.00    -0.237 OA
HETATM   30  N1  UNL     1      14.366  28.242  36.811  1.00  0.00    -0.331 N 
ATOM     31  H1  UNL     1      14.140  29.157  37.199  1.00  0.00     0.165 HD
BRANCH  30  32
HETATM   32  C2  UNL     1      15.739  27.866  36.591  1.00  0.00     0.089 C 
HETATM   33  C3  UNL     1      16.663  28.416  37.662  1.00  0.00     0.028 C 
HETATM   34  C4  UNL     1      18.025  28.101  37.060  1.00  0.00     0.034 C 
HETATM   35  C5  UNL     1      17.820  28.269  35.559  1.00  0.00     0.120 C 
HETATM   36  C6  UNL     1      16.338  28.435  35.345  1.00  0.00     0.057 C 
BRANCH  35  37
HETATM   37  O2  UNL     1      18.533  29.375  35.094  1.00  0.00    -0.396 OA
ATOM     38  H2  UNL     1      18.176  29.671  34.265  1.00  0.00     0.210 HD
ENDBRANCH  35  37
ENDBRANCH  30  32
ENDBRANCH  27  28
ENDBRANCH  26  27
ENDBRANCH   1  26
TORSDOF 12
ENDMDL
MODEL 2
REMARK VINA RESULT: -6.887527964      3.681      5.526
REMARK  12 active torsions:
REMARK  status: ('A' for Active; 'I' for Inactive)
REMARK       I    between atoms: C1_2  and  N1_3 
REMARK    1  A    between atoms: C1_2  and  O3_12 
REMARK    2  A    between atoms: N1_3  and  C2_5 
REMARK    3  A    between atoms: C5_8  and  O2_9 
REMARK    4  A    between atoms: O3_12  and  N2_13 
REMARK    5  A    between atoms: N2_13  and  C7_14 
REMARK    6  A    between atoms: C8_16  and  C9_17 
REMARK    7  A    between atoms: C9_17  and  O5_18 
REMARK    8  A    between atoms: C10_20  and  O6_21 
REMARK    9  A    between atoms: C11_23  and  N3_24 
REMARK       I    between atoms: N3_24  and  C12_26 
REMARK   10  A    between atoms: C12_26  and  C13_28 
REMARK   11  A    between atoms: C13_28  and  C14_29 
REMARK   12  A    between atoms: C13_28  and  C20_35 
ROOT
HETATM    1  C7  UNL     1      13.551  28.861  39.179  1.00  0.00     0.390 C 
HETATM    2  O4  UNL     1      13.878  28.130  38.048  1.00  0.00    -0.335 OA
HETATM    3  C8  UNL     1      12.847  27.320  37.607  1.00  0.00     0.182 C 
HETATM    4  C10 UNL     1      11.623  27.385  38.472  1.00  0.00     0.198 C 
HETATM    5  C11 UNL     1      11.323  28.753  38.994  1.00  0.00     0.259 C 
HETATM    6  O9  UNL     1      12.417  29.601  38.881  1.00  0.00    -0.318 OA
ENDROOT
BRANCH   5   7
HETATM    7  N3  UNL     1      10.873  28.783  40.367  1.00  0.00    -0.332 N 
HETATM    8  C12 UNL     1       9.674  29.368  40.793  1.00  0.00     0.230 C 
HETATM    9  O7  UNL     1       8.909  29.914  39.969  1.00  0.00    -0.273 OA
ATOM     10  H3  UNL     1      11.468  28.350  41.072  1.00  0.00     0.165 HD
BRANCH   8  11
HETATM   11  C13 UNL     1       9.278  29.359  42.218  1.00  0.00     0.142 C 
BRANCH  11  12
HETATM   12  C14 UNL     1       9.351  30.709  42.826  1.00  0.00    -0.043 A 
HETATM   13  C15 UNL     1      10.550  31.289  43.201  1.00  0.00     0.008 A 
HETATM   14  C16 UNL     1      10.607  32.543  43.767  1.00  0.00     0.001 A 
HETATM   15  C17 UNL     1       9.439  33.254  43.971  1.00  0.00     0.000 A 
HETATM   16  C18 UNL     1       8.227  32.705  43.608  1.00  0.00     0.001 A 
HETATM   17  C19 UNL     1       8.208  31.447  43.045  1.00  0.00     0.008 A 
ENDBRANCH  11  12
BRANCH  11  18
HETATM   18  C20 UNL     1      10.110  28.354  42.987  1.00  0.00     0.162 A 
HETATM   19  C21 UNL     1       9.418  27.083  43.435  1.00  0.00     0.201 A 
HETATM   20  O8  UNL     1       9.710  28.139  44.295  1.00  0.00    -0.380 OA
ENDBRANCH  11  18
ENDBRANCH   8  11
ENDBRANCH   5   7
BRANCH   4  21
HETATM   21  O6  UNL     1      10.505  26.933  37.774  1.00  0.00    -0.389 OA
ATOM     22  H6  UNL     1       9.751  26.881  38.349  1.00  0.00     0.210 HD
ENDBRANCH   4  21
BRANCH   3  23
HETATM   23  C9  UNL     1      12.555  27.697  36.171  1.00  0.00     0.199 C 
BRANCH  23  24
HETATM   24  O5  UNL     1      13.564  28.497  35.635  1.00  0.00    -0.398 OA
ATOM     25  H5  UNL     1      13.207  29.215  35.125  1.00  0.00     0.209 HD
ENDBRANCH  23  24
ENDBRANCH   3  23
BRANCH   1  26
HETATM   26  N2  UNL     1      14.624  29.810  39.409  1.00  0.00    -0.029 NA
BRANCH  26  27
HETATM   27  O3  UNL     1      14.216  30.857  40.205  1.00  0.00    -0.184 OA
BRANCH  27  28
HETATM   28  C1  UNL     1      14.833  31.180  41.397  1.00  0.00     0.379 C 
HETATM   29  O1  UNL     1      15.927  30.626  41.648  1.00  0.00    -0.237 OA
HETATM   30  N1  UNL     1      14.299  32.093  42.337  1.00  0.00    -0.331 N 
ATOM     31  H1  UNL     1      13.409  32.555  42.156  1.00  0.00     0.165 HD
BRANCH  30  32
HETATM   32  C2  UNL     1      15.023  32.363  43.553  1.00  0.00     0.089 C 
HETATM   33  C3  UNL     1      14.110  32.415  44.764  1.00  0.00     0.028 C 
HETATM   34  C4  UNL     1      15.062  32.955  45.821  1.00  0.00     0.034 C 
HETATM   35  C5  UNL     1      15.971  33.911  45.056  1.00  0.00     0.120 C 
HETATM   36  C6  UNL     1      15.669  33.710  43.595  1.00  0.00     0.057 C 
BRANCH  35  37
HETATM   37  O2  UNL     1      15.732  35.228  45.454  1.00  0.00    -0.396 OA
ATOM     38  H2  UNL     1      15.498  35.256  46.374  1.00  0.00     0.210 HD
ENDBRANCH  35  37
ENDBRANCH  30  32
ENDBRANCH  27  28
ENDBRANCH  26  27
ENDBRANCH   1  26
TORSDOF 12
ENDMDL
MODEL 3
REMARK VINA RESULT: -6.735075065      3.632      6.416
REMARK  12 active torsions:
REMARK  status: ('A' for Active; 'I' for Inactive)
REMARK       I    between atoms: C1_2  and  N1_3 
REMARK    1  A    between atoms: C1_2  and  O3_12 
REMARK    2  A    between atoms: N1_3  and  C2_5 
REMARK    3  A    between atoms: C5_8  and  O2_9 
REMARK    4  A    between atoms: O3_12  and  N2_13 
REMARK    5  A    between atoms: N2_13  and  C7_14 
REMARK    6  A    between atoms: C8_16  and  C9_17 
REMARK    7  A    between atoms: C9_17  and  O5_18 
REMARK    8  A    between atoms: C10_20  and  O6_21 
REMARK    9  A    between atoms: C11_23  and  N3_24 
REMARK       I    between atoms: N3_24  and  C12_26 
REMARK   10  A    between atoms: C12_26  and  C13_28 
REMARK   11  A    between atoms: C13_28  and  C14_29 
REMARK   12  A    between atoms: C13_28  and  C20_35 
ROOT
HETATM    1  C7  UNL     1      14.841  28.287  38.713  1.00  0.00     0.390 C 
HETATM    2  O4  UNL     1      15.805  27.749  37.877  1.00  0.00    -0.335 OA
HETATM    3  C8  UNL     1      15.272  27.000  36.843  1.00  0.00     0.182 C 
HETATM    4  C10 UNL     1      13.776  26.907  36.881  1.00  0.00     0.198 C 
HETATM    5  C11 UNL     1      13.102  28.170  37.309  1.00  0.00     0.259 C 
HETATM    6  O9  UNL     1      13.985  29.044  37.927  1.00  0.00    -0.318 OA
ENDROOT
BRANCH   5   7
HETATM    7  N3  UNL     1      11.973  27.975  38.191  1.00  0.00    -0.332 N 
HETATM    8  C12 UNL     1      10.985  28.936  38.435  1.00  0.00     0.230 C 
HETATM    9  O7  UNL     1      11.038  30.053  37.876  1.00  0.00    -0.273 OA
ATOM     10  H3  UNL     1      11.892  27.077  38.668  1.00  0.00     0.165 HD
BRANCH   8  11
HETATM   11  C13 UNL     1       9.857  28.664  39.352  1.00  0.00     0.142 C 
BRANCH  11  12
HETATM   12  C14 UNL     1       9.846  29.585  40.513  1.00  0.00    -0.043 A 
HETATM   13  C15 UNL     1      10.981  29.848  41.259  1.00  0.00     0.008 A 
HETATM   14  C16 UNL     1      10.962  30.704  42.338  1.00  0.00     0.001 A 
HETATM   15  C17 UNL     1       9.780  31.324  42.696  1.00  0.00     0.000 A 
HETATM   16  C18 UNL     1       8.630  31.084  41.972  1.00  0.00     0.001 A 
HETATM   17  C19 UNL     1       8.687  30.221  40.899  1.00  0.00     0.008 A 
ENDBRANCH  11  12
BRANCH  11  18
HETATM   18  C20 UNL     1       9.873  27.214  39.788  1.00  0.00     0.162 A 
HETATM   19  C21 UNL     1       8.860  26.288  39.148  1.00  0.00     0.201 A 
HETATM   20  O8  UNL     1       8.732  26.784  40.443  1.00  0.00    -0.380 OA
ENDBRANCH  11  18
ENDBRANCH   8  11
ENDBRANCH   5   7
BRANCH   4  21
HETATM   21  O6  UNL     1      13.275  26.550  35.631  1.00  0.00    -0.389 OA
ATOM     22  H6  UNL     1      13.908  26.023  35.156  1.00  0.00     0.210 HD
ENDBRANCH   4  21
BRANCH   3  23
HETATM   23  C9  UNL     1      15.777  27.593  35.545  1.00  0.00     0.199 C 
BRANCH  23  24
HETATM   24  O5  UNL     1      15.921  26.620  34.557  1.00  0.00    -0.398 OA
ATOM     25  H5  UNL     1      16.702  26.764  34.035  1.00  0.00     0.209 HD
ENDBRANCH  23  24
ENDBRANCH   3  23
BRANCH   1  26
HETATM   26  N2  UNL     1      15.509  29.207  39.614  1.00  0.00    -0.029 NA
BRANCH  26  27
HETATM   27  O3  UNL     1      14.609  29.931  40.362  1.00  0.00    -0.184 OA
BRANCH  27  28
HETATM   28  C1  UNL     1      14.861  30.337  41.658  1.00  0.00     0.379 C 
HETATM   29  O1  UNL     1      15.153  29.449  42.492  1.00  0.00    -0.237 OA
HETATM   30  N1  UNL     1      14.807  31.684  42.086  1.00  0.00    -0.331 N 
ATOM     31  H1  UNL     1      14.569  32.423  41.425  1.00  0.00     0.165 HD
BRANCH  30  32
HETATM   32  C2  UNL     1      15.089  32.002  43.462  1.00  0.00     0.089 C 
HETATM   33  C3  UNL     1      13.824  32.254  44.262  1.00  0.00     0.028 C 
HETATM   34  C4  UNL     1      14.406  32.804  45.557  1.00  0.00     0.034 C 
HETATM   35  C5  UNL     1      15.631  33.595  45.113  1.00  0.00     0.120 C 
HETATM   36  C6  UNL     1      15.835  33.283  43.654  1.00  0.00     0.057 C 
BRANCH  35  37
HETATM   37  O2  UNL     1      15.428  34.960  45.323  1.00  0.00    -0.396 OA
ATOM     38  H2  UNL     1      15.215  35.390  44.503  1.00  0.00     0.210 HD
ENDBRANCH  35  37
ENDBRANCH  30  32
ENDBRANCH  27  28
ENDBRANCH  26  27
ENDBRANCH   1  26
TORSDOF 12
ENDMDL
MODEL 4
REMARK VINA RESULT: -6.709562398      5.530      9.939
REMARK  12 active torsions:
REMARK  status: ('A' for Active; 'I' for Inactive)
REMARK       I    between atoms: C1_2  and  N1_3 
REMARK    1  A    between atoms: C1_2  and  O3_12 
REMARK    2  A    between atoms: N1_3  and  C2_5 
REMARK    3  A    between atoms: C5_8  and  O2_9 
REMARK    4  A    between atoms: O3_12  and  N2_13 
REMARK    5  A    between atoms: N2_13  and  C7_14 
REMARK    6  A    between atoms: C8_16  and  C9_17 
REMARK    7  A    between atoms: C9_17  and  O5_18 
REMARK    8  A    between atoms: C10_20  and  O6_21 
REMARK    9  A    between atoms: C11_23  and  N3_24 
REMARK       I    between atoms: N3_24  and  C12_26 
REMARK   10  A    between atoms: C12_26  and  C13_28 
REMARK   11  A    between atoms: C13_28  and  C14_29 
REMARK   12  A    between atoms: C13_28  and  C20_35 
ROOT
HETATM    1  C7  UNL     1      11.432  23.533  32.582  1.00  0.00     0.390 C 
HETATM    2  O4  UNL     1      11.500  22.871  31.366  1.00  0.00    -0.335 OA
HETATM    3  C8  UNL     1      12.642  23.172  30.645  1.00  0.00     0.182 C 
HETATM    4  C10 UNL     1      13.529  24.175  31.321  1.00  0.00     0.198 C 
HETATM    5  C11 UNL     1      13.608  24.011  32.804  1.00  0.00     0.259 C 
HETATM    6  O9  UNL     1      12.580  23.215  33.292  1.00  0.00    -0.318 OA
ENDROOT
BRANCH   5   7
HETATM    7  N3  UNL     1      13.603  25.252  33.544  1.00  0.00    -0.332 N 
HETATM    8  C12 UNL     1      14.746  26.008  33.830  1.00  0.00     0.230 C 
HETATM    9  O7  UNL     1      15.871  25.624  33.441  1.00  0.00    -0.273 OA
ATOM     10  H3  UNL     1      12.705  25.601  33.881  1.00  0.00     0.165 HD
BRANCH   8  11
HETATM   11  C13 UNL     1      14.663  27.271  34.594  1.00  0.00     0.142 C 
BRANCH  11  12
HETATM   12  C14 UNL     1      15.906  27.549  35.351  1.00  0.00    -0.043 A 
HETATM   13  C15 UNL     1      16.899  28.381  34.866  1.00  0.00     0.008 A 
HETATM   14  C16 UNL     1      18.051  28.632  35.577  1.00  0.00     0.001 A 
HETATM   15  C17 UNL     1      18.234  28.040  36.812  1.00  0.00     0.000 A 
HETATM   16  C18 UNL     1      17.262  27.206  37.326  1.00  0.00     0.001 A 
HETATM   17  C19 UNL     1      16.121  26.978  36.586  1.00  0.00     0.008 A 
ENDBRANCH  11  12
BRANCH  11  18
HETATM   18  C20 UNL     1      13.447  27.259  35.497  1.00  0.00     0.162 A 
HETATM   19  C21 UNL     1      12.176  27.879  34.956  1.00  0.00     0.201 A 
HETATM   20  O8  UNL     1      12.995  28.506  35.892  1.00  0.00    -0.380 OA
ENDBRANCH  11  18
ENDBRANCH   8  11
ENDBRANCH   5   7
BRANCH   4  21
HETATM   21  O6  UNL     1      14.823  24.109  30.808  1.00  0.00    -0.389 OA
ATOM     22  H6  UNL     1      14.900  24.647  30.029  1.00  0.00     0.210 HD
ENDBRANCH   4  21
BRANCH   3  23
HETATM   23  C9  UNL     1      13.359  21.870  30.364  1.00  0.00     0.199 C 
BRANCH  23  24
HETATM   24  O5  UNL     1      13.232  20.974  31.426  1.00  0.00    -0.398 OA
ATOM     25  H5  UNL     1      13.282  20.072  31.131  1.00  0.00     0.209 HD
ENDBRANCH  23  24
ENDBRANCH   3  23
BRANCH   1  26
HETATM   26  N2  UNL     1      10.314  22.977  33.319  1.00  0.00    -0.029 NA
BRANCH  26  27
HETATM   27  O3  UNL     1       9.116  23.521  32.913  1.00  0.00    -0.184 OA
BRANCH  27  28
HETATM   28  C1  UNL     1       8.413  24.441  33.665  1.00  0.00     0.379 C 
HETATM   29  O1  UNL     1       8.048  24.089  34.811  1.00  0.00    -0.237 OA
HETATM   30  N1  UNL     1       8.087  25.741  33.215  1.00  0.00    -0.331 N 
ATOM     31  H1  UNL     1       8.372  26.050  32.286  1.00  0.00     0.165 HD
BRANCH  30  32
HETATM   32  C2  UNL     1       7.350  26.627  34.080  1.00  0.00     0.089 C 
HETATM   33  C3  UNL     1       6.684  27.754  33.312  1.00  0.00     0.028 C 
HETATM   34  C4  UNL     1       6.217  28.646  34.453  1.00  0.00     0.034 C 
HETATM   35  C5  UNL     1       7.301  28.496  35.515  1.00  0.00     0.120 C 
HETATM   36  C6  UNL     1       8.199  27.378  35.055  1.00  0.00     0.057 C 
BRANCH  35  37
HETATM   37  O2  UNL     1       8.005  29.693  35.660  1.00  0.00    -0.396 OA
ATOM     38  H2  UNL     1       8.262  29.816  36.566  1.00  0.00     0.210 HD
ENDBRANCH  35  37
ENDBRANCH  30  32
ENDBRANCH  27  28
ENDBRANCH  26  27
ENDBRANCH   1  26
TORSDOF 12
ENDMDL
MODEL 5
REMARK VINA RESULT: -6.618182703      3.572      5.691
REMARK  12 active torsions:
REMARK  status: ('A' for Active; 'I' for Inactive)
REMARK       I    between atoms: C1_2  and  N1_3 
REMARK    1  A    between atoms: C1_2  and  O3_12 
REMARK    2  A    between atoms: N1_3  and  C2_5 
REMARK    3  A    between atoms: C5_8  and  O2_9 
REMARK    4  A    between atoms: O3_12  and  N2_13 
REMARK    5  A    between atoms: N2_13  and  C7_14 
REMARK    6  A    between atoms: C8_16  and  C9_17 
REMARK    7  A    between atoms: C9_17  and  O5_18 
REMARK    8  A    between atoms: C10_20  and  O6_21 
REMARK    9  A    between atoms: C11_23  and  N3_24 
REMARK       I    between atoms: N3_24  and  C12_26 
REMARK   10  A    between atoms: C12_26  and  C13_28 
REMARK   11  A    between atoms: C13_28  and  C14_29 
REMARK   12  A    between atoms: C13_28  and  C20_35 
ROOT
HETATM    1  C7  UNL     1      12.482  29.876  39.250  1.00  0.00     0.390 C 
HETATM    2  O4  UNL     1      13.225  28.817  38.753  1.00  0.00    -0.335 OA
HETATM    3  C8  UNL     1      12.445  27.753  38.337  1.00  0.00     0.182 C 
HETATM    4  C10 UNL     1      10.976  27.967  38.553  1.00  0.00     0.198 C 
HETATM    5  C11 UNL     1      10.525  29.367  38.291  1.00  0.00     0.259 C 
HETATM    6  O9  UNL     1      11.590  30.257  38.260  1.00  0.00    -0.318 OA
ENDROOT
BRANCH   5   7
HETATM    7  N3  UNL     1       9.551  29.867  39.235  1.00  0.00    -0.332 N 
HETATM    8  C12 UNL     1       8.180  29.589  39.180  1.00  0.00     0.230 C 
HETATM    9  O7  UNL     1       7.718  28.864  38.271  1.00  0.00    -0.273 OA
ATOM     10  H3  UNL     1       9.885  30.463  39.992  1.00  0.00     0.165 HD
BRANCH   8  11
HETATM   11  C13 UNL     1       7.242  30.136  40.183  1.00  0.00     0.142 C 
BRANCH  11  12
HETATM   12  C14 UNL     1       7.800  30.085  41.555  1.00  0.00    -0.043 A 
HETATM   13  C15 UNL     1       8.098  28.892  42.189  1.00  0.00     0.008 A 
HETATM   14  C16 UNL     1       8.615  28.854  43.466  1.00  0.00     0.001 A 
HETATM   15  C17 UNL     1       8.846  30.036  44.144  1.00  0.00     0.000 A 
HETATM   16  C18 UNL     1       8.561  31.243  43.540  1.00  0.00     0.001 A 
HETATM   17  C19 UNL     1       8.044  31.242  42.261  1.00  0.00     0.008 A 
ENDBRANCH  11  12
BRANCH  11  18
HETATM   18  C20 UNL     1       5.907  29.426  40.095  1.00  0.00     0.162 A 
HETATM   19  C21 UNL     1       4.710  30.253  39.676  1.00  0.00     0.201 A 
HETATM   20  O8  UNL     1       4.948  29.864  40.992  1.00  0.00    -0.380 OA
ENDBRANCH  11  18
ENDBRANCH   8  11
ENDBRANCH   5   7
BRANCH   4  21
HETATM   21  O6  UNL     1      10.233  27.113  37.741  1.00  0.00    -0.389 OA
ATOM     22  H6  UNL     1      10.274  26.222  38.069  1.00  0.00     0.210 HD
ENDBRANCH   4  21
BRANCH   3  23
HETATM   23  C9  UNL     1      12.779  27.485  36.886  1.00  0.00     0.199 C 
BRANCH  23  24
HETATM   24  O5  UNL     1      13.212  28.641  36.236  1.00  0.00    -0.398 OA
ATOM     25  H5  UNL     1      12.485  29.211  36.015  1.00  0.00     0.209 HD
ENDBRANCH  23  24
ENDBRANCH   3  23
BRANCH   1  26
HETATM   26  N2  UNL     1      13.390  30.989  39.450  1.00  0.00    -0.029 NA
BRANCH  26  27
HETATM   27  O3  UNL     1      14.593  30.577  39.978  1.00  0.00    -0.184 OA
BRANCH  27  28
HETATM   28  C1  UNL     1      14.995  30.882  41.263  1.00  0.00     0.379 C 
HETATM   29  O1  UNL     1      15.901  30.178  41.765  1.00  0.00    -0.237 OA
HETATM   30  N1  UNL     1      14.445  31.935  42.031  1.00  0.00    -0.331 N 
ATOM     31  H1  UNL     1      13.705  32.521  41.644  1.00  0.00     0.165 HD
BRANCH  30  32
HETATM   32  C2  UNL     1      14.937  32.173  43.363  1.00  0.00     0.089 C 
HETATM   33  C3  UNL     1      13.813  32.301  44.375  1.00  0.00     0.028 C 
HETATM   34  C4  UNL     1      14.577  32.790  45.597  1.00  0.00     0.034 C 
HETATM   35  C5  UNL     1      15.678  33.674  45.022  1.00  0.00     0.120 C 
HETATM   36  C6  UNL     1      15.651  33.475  43.530  1.00  0.00     0.057 C 
BRANCH  35  37
HETATM   37  O2  UNL     1      15.456  35.009  45.367  1.00  0.00    -0.396 OA
ATOM     38  H2  UNL     1      15.817  35.584  44.703  1.00  0.00     0.210 HD
ENDBRANCH  35  37
ENDBRANCH  30  32
ENDBRANCH  27  28
ENDBRANCH  26  27
ENDBRANCH   1  26
TORSDOF 12
ENDMDL
