MODEL 1
REMARK VINA RESULT: -6.018531520      0.000      0.000
REMARK  11 active torsions:
REMARK  status: ('A' for Active; 'I' for Inactive)
REMARK    1  A    between atoms: C2_2  and  C3_3 
REMARK    2  A    between atoms: C3_3  and  N1_4 
REMARK    3  A    between atoms: C3_3  and  C11_17 
REMARK       I    between atoms: N1_4  and  C4_6 
REMARK    4  A    between atoms: C4_6  and  C5_8 
REMARK    5  A    between atoms: N2_10  and  O2_12 
REMARK    6  A    between atoms: O2_12  and  C7_13 
REMARK       I    between atoms: C11_17  and  N3_19 
REMARK    7  A    between atoms: N3_19  and  C12_21 
REMARK    8  A    between atoms: C13_22  and  O4_23 
REMARK    9  A    between atoms: C14_26  and  O6_27 
REMARK   10  A    between atoms: C16_29  and  N4_30 
REMARK       I    between atoms: N4_30  and  C17_32 
REMARK   11  A    between atoms: C19_35  and  O8_36 
ROOT
HETATM    1  C11 UNL     1      10.956  28.179  37.924  1.00  0.00     0.264 C 
HETATM    2  O3  UNL     1      10.653  26.971  37.635  1.00  0.00    -0.266 OA
HETATM    3  N3  UNL     1      12.308  28.529  37.866  1.00  0.00    -0.344 N 
ATOM      4  H3  UNL     1      12.545  29.495  38.095  1.00  0.00     0.163 HD
ENDROOT
BRANCH   3   5
HETATM    5  C12 UNL     1      13.386  27.667  37.517  1.00  0.00     0.170 C 
HETATM    6  C13 UNL     1      13.778  27.643  36.080  1.00  0.00     0.285 C 
HETATM    7  O5  UNL     1      14.966  28.297  35.790  1.00  0.00    -0.327 OA
HETATM    8  C14 UNL     1      16.086  27.684  36.394  1.00  0.00     0.287 C 
HETATM    9  C16 UNL     1      15.713  27.053  37.690  1.00  0.00     0.170 C 
HETATM   10  C19 UNL     1      14.653  27.949  38.336  1.00  0.00     0.173 C 
BRANCH   6  11
HETATM   11  O4  UNL     1      13.733  26.349  35.543  1.00  0.00    -0.369 OA
ATOM     12  H4  UNL     1      12.865  25.967  35.601  1.00  0.00     0.212 HD
ENDBRANCH   6  11
BRANCH   8  13
HETATM   13  O6  UNL     1      17.023  28.702  36.530  1.00  0.00    -0.364 OA
HETATM   14  C15 UNL     1      17.737  28.836  35.368  1.00  0.00     0.204 C 
ENDBRANCH   8  13
BRANCH   9  15
HETATM   15  N4  UNL     1      16.807  26.780  38.585  1.00  0.00    -0.349 N 
HETATM   16  C17 UNL     1      16.912  25.647  39.403  1.00  0.00     0.214 C 
HETATM   17  C18 UNL     1      18.073  25.462  40.284  1.00  0.00     0.117 C 
HETATM   18  O7  UNL     1      16.015  24.780  39.392  1.00  0.00    -0.274 OA
ATOM     19  H4  UNL     1      17.563  27.463  38.627  1.00  0.00     0.163 HD
ENDBRANCH   9  15
BRANCH  10  20
HETATM   20  O8  UNL     1      15.004  29.287  38.257  1.00  0.00    -0.391 OA
ATOM     21  H8  UNL     1      14.299  29.840  38.574  1.00  0.00     0.210 HD
ENDBRANCH  10  20
ENDBRANCH   3   5
BRANCH   1  22
HETATM   22  C3  UNL     1       9.831  29.067  38.288  1.00  0.00     0.080 C 
BRANCH  22  23
HETATM   23  C2  UNL     1       9.874  29.606  39.669  1.00  0.00     0.058 C 
HETATM   24  C1  UNL     1       8.515  30.005  40.174  1.00  0.00     0.011 C 
ENDBRANCH  22  23
BRANCH  22  25
HETATM   25  N1  UNL     1       8.591  28.662  37.736  1.00  0.00    -0.321 N 
HETATM   26  C4  UNL     1       7.805  28.995  36.653  1.00  0.00     0.270 C 
HETATM   27  O1  UNL     1       8.082  29.886  35.829  1.00  0.00    -0.266 OA
ATOM     28  H1  UNL     1       8.162  27.923  38.293  1.00  0.00     0.169 HD
BRANCH  26  29
HETATM   29  C5  UNL     1       6.523  28.288  36.372  1.00  0.00     0.096 C 
HETATM   30  C6  UNL     1       5.276  28.987  36.740  1.00  0.00     0.076 C 
HETATM   31  N2  UNL     1       6.470  27.141  35.844  1.00  0.00    -0.265 N 
ATOM     32  H2  UNL     1       5.541  26.749  35.695  1.00  0.00     0.194 HD
BRANCH  31  33
HETATM   33  O2  UNL     1       7.537  26.368  35.446  1.00  0.00    -0.270 OA
BRANCH  33  34
HETATM   34  C7  UNL     1       7.927  26.314  34.079  1.00  0.00     0.078 C 
HETATM   35  C8  UNL     1       9.256  27.062  33.896  1.00  0.00     0.048 C 
HETATM   36  C9  UNL     1       6.930  26.937  33.151  1.00  0.00     0.048 C 
HETATM   37  C10 UNL     1       8.122  24.874  33.701  1.00  0.00     0.048 C 
ENDBRANCH  33  34
ENDBRANCH  31  33
ENDBRANCH  26  29
ENDBRANCH  22  25
ENDBRANCH   1  22
TORSDOF 11
ENDMDL
MODEL 2
REMARK VINA RESULT: -6.018012404      3.379      5.941
REMARK  11 active torsions:
REMARK  status: ('A' for Active; 'I' for Inactive)
REMARK    1  A    between atoms: C2_2  and  C3_3 
REMARK    2  A    between atoms: C3_3  and  N1_4 
REMARK    3  A    between atoms: C3_3  and  C11_17 
REMARK       I    between atoms: N1_4  and  C4_6 
REMARK    4  A    between atoms: C4_6  and  C5_8 
REMARK    5  A    between atoms: N2_10  and  O2_12 
REMARK    6  A    between atoms: O2_12  and  C7_13 
REMARK       I    between atoms: C11_17  and  N3_19 
REMARK    7  A    between atoms: N3_19  and  C12_21 
REMARK    8  A    between atoms: C13_22  and  O4_23 
REMARK    9  A    between atoms: C14_26  and  O6_27 
REMARK   10  A    between atoms: C16_29  and  N4_30 
REMARK       I    between atoms: N4_30  and  C17_32 
REMARK   11  A    between atoms: C19_35  and  O8_36 
ROOT
HETATM    1  C11 UNL     1      11.550  28.193  39.577  1.00  0.00     0.264 C 
HETATM    2  O3  UNL     1      11.488  26.947  39.854  1.00  0.00    -0.266 OA
HETATM    3  N3  UNL     1      12.564  28.602  38.705  1.00  0.00    -0.344 N 
ATOM      4  H3  UNL     1      12.608  29.598  38.485  1.00  0.00     0.163 HD
ENDROOT
BRANCH   3   5
HETATM    5  C12 UNL     1      13.539  27.763  38.095  1.00  0.00     0.170 C 
HETATM    6  C13 UNL     1      13.607  27.796  36.608  1.00  0.00     0.285 C 
HETATM    7  O5  UNL     1      14.702  28.471  36.091  1.00  0.00    -0.327 OA
HETATM    8  C14 UNL     1      15.927  27.844  36.411  1.00  0.00     0.287 C 
HETATM    9  C16 UNL     1      15.847  27.161  37.732  1.00  0.00     0.170 C 
HETATM   10  C19 UNL     1      14.955  28.023  38.628  1.00  0.00     0.173 C 
BRANCH   6  11
HETATM   11  O4  UNL     1      13.444  26.524  36.044  1.00  0.00    -0.369 OA
ATOM     12  H4  UNL     1      13.927  26.428  35.232  1.00  0.00     0.212 HD
ENDBRANCH   6  11
BRANCH   8  13
HETATM   13  O6  UNL     1      16.872  28.864  36.378  1.00  0.00    -0.364 OA
HETATM   14  C15 UNL     1      17.608  28.780  35.225  1.00  0.00     0.204 C 
ENDBRANCH   8  13
BRANCH   9  15
HETATM   15  N4  UNL     1      17.110  26.863  38.354  1.00  0.00    -0.349 N 
HETATM   16  C17 UNL     1      17.374  25.729  39.133  1.00  0.00     0.214 C 
HETATM   17  C18 UNL     1      18.702  25.518  39.727  1.00  0.00     0.117 C 
HETATM   18  O7  UNL     1      16.478  24.884  39.334  1.00  0.00    -0.274 OA
ATOM     19  H4  UNL     1      17.872  27.529  38.218  1.00  0.00     0.163 HD
ENDBRANCH   9  15
BRANCH  10  20
HETATM   20  O8  UNL     1      15.280  29.367  38.526  1.00  0.00    -0.391 OA
ATOM     21  H8  UNL     1      16.069  29.561  39.019  1.00  0.00     0.210 HD
ENDBRANCH  10  20
ENDBRANCH   3   5
BRANCH   1  22
HETATM   22  C3  UNL     1      10.536  29.058  40.216  1.00  0.00     0.080 C 
BRANCH  22  23
HETATM   23  C2  UNL     1       9.585  29.712  39.284  1.00  0.00     0.058 C 
HETATM   24  C1  UNL     1       8.152  29.387  39.601  1.00  0.00     0.011 C 
ENDBRANCH  22  23
BRANCH  22  25
HETATM   25  N1  UNL     1      11.032  29.783  41.327  1.00  0.00    -0.321 N 
HETATM   26  C4  UNL     1      12.081  30.635  41.597  1.00  0.00     0.270 C 
HETATM   27  O1  UNL     1      12.953  30.962  40.770  1.00  0.00    -0.266 OA
ATOM     28  H1  UNL     1      10.453  29.635  42.154  1.00  0.00     0.169 HD
BRANCH  26  29
HETATM   29  C5  UNL     1      12.258  31.256  42.941  1.00  0.00     0.096 C 
HETATM   30  C6  UNL     1      13.532  30.995  43.639  1.00  0.00     0.076 C 
HETATM   31  N2  UNL     1      11.378  31.979  43.487  1.00  0.00    -0.265 N 
ATOM     32  H2  UNL     1      11.602  32.354  44.408  1.00  0.00     0.194 HD
BRANCH  31  33
HETATM   33  O2  UNL     1      10.149  32.314  42.967  1.00  0.00    -0.270 OA
BRANCH  33  34
HETATM   34  C7  UNL     1       8.951  31.985  43.661  1.00  0.00     0.078 C 
HETATM   35  C8  UNL     1       8.375  33.250  44.316  1.00  0.00     0.048 C 
HETATM   36  C9  UNL     1       9.150  30.970  44.744  1.00  0.00     0.048 C 
HETATM   37  C10 UNL     1       7.959  31.457  42.665  1.00  0.00     0.048 C 
ENDBRANCH  33  34
ENDBRANCH  31  33
ENDBRANCH  26  29
ENDBRANCH  22  25
ENDBRANCH   1  22
TORSDOF 11
ENDMDL
MODEL 3
REMARK VINA RESULT: -5.949289257      1.891      3.656
REMARK  11 active torsions:
REMARK  status: ('A' for Active; 'I' for Inactive)
REMARK    1  A    between atoms: C2_2  and  C3_3 
REMARK    2  A    between atoms: C3_3  and  N1_4 
REMARK    3  A    between atoms: C3_3  and  C11_17 
REMARK       I    between atoms: N1_4  and  C4_6 
REMARK    4  A    between atoms: C4_6  and  C5_8 
REMARK    5  A    between atoms: N2_10  and  O2_12 
REMARK    6  A    between atoms: O2_12  and  C7_13 
REMARK       I    between atoms: C11_17  and  N3_19 
REMARK    7  A    between atoms: N3_19  and  C12_21 
REMARK    8  A    between atoms: C13_22  and  O4_23 
REMARK    9  A    between atoms: C14_26  and  O6_27 
REMARK   10  A    between atoms: C16_29  and  N4_30 
REMARK       I    between atoms: N4_30  and  C17_32 
REMARK   11  A    between atoms: C19_35  and  O8_36 
ROOT
HETATM    1  C11 UNL     1       9.817  29.210  37.941  1.00  0.00     0.264 C 
HETATM    2  O3  UNL     1      10.204  30.429  37.941  1.00  0.00    -0.266 OA
HETATM    3  N3  UNL     1      10.794  28.231  38.144  1.00  0.00    -0.344 N 
ATOM      4  H3  UNL     1      10.481  27.260  38.146  1.00  0.00     0.163 HD
ENDROOT
BRANCH   3   5
HETATM    5  C12 UNL     1      12.185  28.460  38.348  1.00  0.00     0.170 C 
HETATM    6  C13 UNL     1      12.763  27.942  39.619  1.00  0.00     0.285 C 
HETATM    7  O5  UNL     1      13.557  26.814  39.478  1.00  0.00    -0.327 OA
HETATM    8  C14 UNL     1      14.725  27.061  38.722  1.00  0.00     0.287 C 
HETATM    9  C16 UNL     1      14.480  28.108  37.692  1.00  0.00     0.170 C 
HETATM   10  C19 UNL     1      13.045  27.921  37.195  1.00  0.00     0.173 C 
BRANCH   6  11
HETATM   11  O4  UNL     1      13.390  28.951  40.363  1.00  0.00    -0.369 OA
ATOM     12  H4  UNL     1      14.307  29.045  40.136  1.00  0.00     0.212 HD
ENDBRANCH   6  11
BRANCH   8  13
HETATM   13  O6  UNL     1      15.068  25.828  38.179  1.00  0.00    -0.364 OA
HETATM   14  C15 UNL     1      14.849  24.836  39.099  1.00  0.00     0.204 C 
ENDBRANCH   8  13
BRANCH   9  15
HETATM   15  N4  UNL     1      15.426  28.145  36.608  1.00  0.00    -0.349 N 
HETATM   16  C17 UNL     1      16.766  28.538  36.723  1.00  0.00     0.214 C 
HETATM   17  C18 UNL     1      17.651  28.542  35.550  1.00  0.00     0.117 C 
HETATM   18  O7  UNL     1      17.222  28.894  37.828  1.00  0.00    -0.274 OA
ATOM     19  H4  UNL     1      15.095  27.864  35.685  1.00  0.00     0.163 HD
ENDBRANCH   9  15
BRANCH  10  20
HETATM   20  O8  UNL     1      12.762  26.587  36.952  1.00  0.00    -0.391 OA
ATOM     21  H8  UNL     1      12.521  26.141  37.756  1.00  0.00     0.210 HD
ENDBRANCH  10  20
ENDBRANCH   3   5
BRANCH   1  22
HETATM   22  C3  UNL     1       8.373  28.982  37.726  1.00  0.00     0.080 C 
BRANCH  22  23
HETATM   23  C2  UNL     1       7.615  28.554  38.927  1.00  0.00     0.058 C 
HETATM   24  C1  UNL     1       7.238  29.710  39.812  1.00  0.00     0.011 C 
ENDBRANCH  22  23
BRANCH  22  25
HETATM   25  N1  UNL     1       8.074  28.398  36.471  1.00  0.00    -0.321 N 
HETATM   26  C4  UNL     1       8.201  27.164  35.869  1.00  0.00     0.270 C 
HETATM   27  O1  UNL     1       8.714  26.167  36.409  1.00  0.00    -0.266 OA
ATOM     28  H1  UNL     1       7.648  29.076  35.839  1.00  0.00     0.169 HD
BRANCH  26  29
HETATM   29  C5  UNL     1       7.714  26.918  34.481  1.00  0.00     0.096 C 
HETATM   30  C6  UNL     1       8.708  26.454  33.493  1.00  0.00     0.076 C 
HETATM   31  N2  UNL     1       6.512  27.088  34.133  1.00  0.00    -0.265 N 
ATOM     32  H2  UNL     1       6.286  26.890  33.158  1.00  0.00     0.194 HD
BRANCH  31  33
HETATM   33  O2  UNL     1       5.474  27.511  34.932  1.00  0.00    -0.270 OA
BRANCH  33  34
HETATM   34  C7  UNL     1       4.838  28.761  34.695  1.00  0.00     0.078 C 
HETATM   35  C8  UNL     1       3.418  28.520  34.162  1.00  0.00     0.048 C 
HETATM   36  C9  UNL     1       5.554  29.615  33.694  1.00  0.00     0.048 C 
HETATM   37  C10 UNL     1       4.749  29.499  36.000  1.00  0.00     0.048 C 
ENDBRANCH  33  34
ENDBRANCH  31  33
ENDBRANCH  26  29
ENDBRANCH  22  25
ENDBRANCH   1  22
TORSDOF 11
ENDMDL
MODEL 4
REMARK VINA RESULT: -5.874349788      0.929      1.212
REMARK  11 active torsions:
REMARK  status: ('A' for Active; 'I' for Inactive)
REMARK    1  A    between atoms: C2_2  and  C3_3 
REMARK    2  A    between atoms: C3_3  and  N1_4 
REMARK    3  A    between atoms: C3_3  and  C11_17 
REMARK       I    between atoms: N1_4  and  C4_6 
REMARK    4  A    between atoms: C4_6  and  C5_8 
REMARK    5  A    between atoms: N2_10  and  O2_12 
REMARK    6  A    between atoms: O2_12  and  C7_13 
REMARK       I    between atoms: C11_17  and  N3_19 
REMARK    7  A    between atoms: N3_19  and  C12_21 
REMARK    8  A    between atoms: C13_22  and  O4_23 
REMARK    9  A    between atoms: C14_26  and  O6_27 
REMARK   10  A    between atoms: C16_29  and  N4_30 
REMARK       I    between atoms: N4_30  and  C17_32 
REMARK   11  A    between atoms: C19_35  and  O8_36 
ROOT
HETATM    1  C11 UNL     1      10.984  28.424  37.957  1.00  0.00     0.264 C 
HETATM    2  O3  UNL     1      10.590  27.283  37.537  1.00  0.00    -0.266 OA
HETATM    3  N3  UNL     1      12.361  28.660  37.966  1.00  0.00    -0.344 N 
ATOM      4  H3  UNL     1      12.671  29.573  38.300  1.00  0.00     0.163 HD
ENDROOT
BRANCH   3   5
HETATM    5  C12 UNL     1      13.374  27.748  37.554  1.00  0.00     0.170 C 
HETATM    6  C13 UNL     1      13.726  27.757  36.106  1.00  0.00     0.285 C 
HETATM    7  O5  UNL     1      14.945  28.348  35.810  1.00  0.00    -0.327 OA
HETATM    8  C14 UNL     1      16.039  27.642  36.357  1.00  0.00     0.287 C 
HETATM    9  C16 UNL     1      15.661  26.984  37.638  1.00  0.00     0.170 C 
HETATM   10  C19 UNL     1      14.677  27.917  38.348  1.00  0.00     0.173 C 
BRANCH   6  11
HETATM   11  O4  UNL     1      13.586  26.491  35.521  1.00  0.00    -0.369 OA
ATOM     12  H4  UNL     1      12.676  26.268  35.365  1.00  0.00     0.212 HD
ENDBRANCH   6  11
BRANCH   8  13
HETATM   13  O6  UNL     1      17.042  28.594  36.506  1.00  0.00    -0.364 OA
HETATM   14  C15 UNL     1      17.669  28.802  35.305  1.00  0.00     0.204 C 
ENDBRANCH   8  13
BRANCH   9  15
HETATM   15  N4  UNL     1      16.758  26.607  38.490  1.00  0.00    -0.349 N 
HETATM   16  C17 UNL     1      16.767  25.497  39.345  1.00  0.00     0.214 C 
HETATM   17  C18 UNL     1      17.941  25.200  40.178  1.00  0.00     0.117 C 
HETATM   18  O7  UNL     1      15.772  24.748  39.410  1.00  0.00    -0.274 OA
ATOM     19  H4  UNL     1      17.593  27.194  38.471  1.00  0.00     0.163 HD
ENDBRANCH   9  15
BRANCH  10  20
HETATM   20  O8  UNL     1      15.109  29.233  38.310  1.00  0.00    -0.391 OA
ATOM     21  H8  UNL     1      15.903  29.313  37.795  1.00  0.00     0.210 HD
ENDBRANCH  10  20
ENDBRANCH   3   5
BRANCH   1  22
HETATM   22  C3  UNL     1       9.926  29.364  38.386  1.00  0.00     0.080 C 
BRANCH  22  23
HETATM   23  C2  UNL     1       9.856  29.612  39.847  1.00  0.00     0.058 C 
HETATM   24  C1  UNL     1      10.107  28.369  40.655  1.00  0.00     0.011 C 
ENDBRANCH  22  23
BRANCH  22  25
HETATM   25  N1  UNL     1       8.727  29.244  37.642  1.00  0.00    -0.321 N 
HETATM   26  C4  UNL     1       7.457  28.743  37.837  1.00  0.00     0.270 C 
HETATM   27  O1  UNL     1       7.073  28.186  38.882  1.00  0.00    -0.266 OA
ATOM     28  H1  UNL     1       8.831  29.635  36.705  1.00  0.00     0.169 HD
BRANCH  26  29
HETATM   29  C5  UNL     1       6.410  28.837  36.780  1.00  0.00     0.096 C 
HETATM   30  C6  UNL     1       5.042  29.172  37.218  1.00  0.00     0.076 C 
HETATM   31  N2  UNL     1       6.650  28.645  35.554  1.00  0.00    -0.265 N 
ATOM     32  H2  UNL     1       5.860  28.734  34.915  1.00  0.00     0.194 HD
BRANCH  31  33
HETATM   33  O2  UNL     1       7.865  28.328  34.992  1.00  0.00    -0.270 OA
BRANCH  33  34
HETATM   34  C7  UNL     1       8.007  27.179  34.166  1.00  0.00     0.078 C 
HETATM   35  C8  UNL     1       7.180  27.364  32.884  1.00  0.00     0.048 C 
HETATM   36  C9  UNL     1       7.544  25.914  34.820  1.00  0.00     0.048 C 
HETATM   37  C10 UNL     1       9.456  27.042  33.794  1.00  0.00     0.048 C 
ENDBRANCH  33  34
ENDBRANCH  31  33
ENDBRANCH  26  29
ENDBRANCH  22  25
ENDBRANCH   1  22
TORSDOF 11
ENDMDL
MODEL 5
REMARK VINA RESULT: -5.846582071      1.083      1.459
REMARK  11 active torsions:
REMARK  status: ('A' for Active; 'I' for Inactive)
REMARK    1  A    between atoms: C2_2  and  C3_3 
REMARK    2  A    between atoms: C3_3  and  N1_4 
REMARK    3  A    between atoms: C3_3  and  C11_17 
REMARK       I    between atoms: N1_4  and  C4_6 
REMARK    4  A    between atoms: C4_6  and  C5_8 
REMARK    5  A    between atoms: N2_10  and  O2_12 
REMARK    6  A    between atoms: O2_12  and  C7_13 
REMARK       I    between atoms: C11_17  and  N3_19 
REMARK    7  A    between atoms: N3_19  and  C12_21 
REMARK    8  A    between atoms: C13_22  and  O4_23 
REMARK    9  A    between atoms: C14_26  and  O6_27 
REMARK   10  A    between atoms: C16_29  and  N4_30 
REMARK       I    between atoms: N4_30  and  C17_32 
REMARK   11  A    between atoms: C19_35  and  O8_36 
ROOT
HETATM    1  C11 UNL     1      11.024  28.266  38.257  1.00  0.00     0.264 C 
HETATM    2  O3  UNL     1      10.685  27.069  37.965  1.00  0.00    -0.266 OA
HETATM    3  N3  UNL     1      12.369  28.608  38.086  1.00  0.00    -0.344 N 
ATOM      4  H3  UNL     1      12.634  29.566  38.318  1.00  0.00     0.163 HD
ENDROOT
BRANCH   3   5
HETATM    5  C12 UNL     1      13.403  27.748  37.619  1.00  0.00     0.170 C 
HETATM    6  C13 UNL     1      13.697  27.795  36.160  1.00  0.00     0.285 C 
HETATM    7  O5  UNL     1      14.876  28.443  35.826  1.00  0.00    -0.327 OA
HETATM    8  C14 UNL     1      16.021  27.779  36.319  1.00  0.00     0.287 C 
HETATM    9  C16 UNL     1      15.723  27.085  37.602  1.00  0.00     0.170 C 
HETATM   10  C19 UNL     1      14.728  27.962  38.365  1.00  0.00     0.173 C 
BRANCH   6  11
HETATM   11  O4  UNL     1      13.589  26.533  35.559  1.00  0.00    -0.369 OA
ATOM     12  H4  UNL     1      13.471  25.842  36.198  1.00  0.00     0.212 HD
ENDBRANCH   6  11
BRANCH   8  13
HETATM   13  O6  UNL     1      16.986  28.772  36.445  1.00  0.00    -0.364 OA
HETATM   14  C15 UNL     1      17.744  28.832  35.304  1.00  0.00     0.204 C 
ENDBRANCH   8  13
BRANCH   9  15
HETATM   15  N4  UNL     1      16.868  26.744  38.404  1.00  0.00    -0.349 N 
HETATM   16  C17 UNL     1      16.951  25.634  39.255  1.00  0.00     0.214 C 
HETATM   17  C18 UNL     1      18.169  25.375  40.035  1.00  0.00     0.117 C 
HETATM   18  O7  UNL     1      15.985  24.852  39.362  1.00  0.00    -0.274 OA
ATOM     19  H4  UNL     1      17.681  27.357  38.349  1.00  0.00     0.163 HD
ENDBRANCH   9  15
BRANCH  10  20
HETATM   20  O8  UNL     1      15.100  29.296  38.333  1.00  0.00    -0.391 OA
ATOM     21  H8  UNL     1      15.322  29.605  39.204  1.00  0.00     0.210 HD
ENDBRANCH  10  20
ENDBRANCH   3   5
BRANCH   1  22
HETATM   22  C3  UNL     1       9.945  29.152  38.744  1.00  0.00     0.080 C 
BRANCH  22  23
HETATM   23  C2  UNL     1      10.136  29.686  40.114  1.00  0.00     0.058 C 
HETATM   24  C1  UNL     1       8.837  30.053  40.776  1.00  0.00     0.011 C 
ENDBRANCH  22  23
BRANCH  22  25
HETATM   25  N1  UNL     1       8.653  28.750  38.327  1.00  0.00    -0.321 N 
HETATM   26  C4  UNL     1       7.845  28.915  37.222  1.00  0.00     0.270 C 
HETATM   27  O1  UNL     1       8.151  29.588  36.220  1.00  0.00    -0.266 OA
ATOM     28  H1  UNL     1       8.194  28.182  39.040  1.00  0.00     0.169 HD
BRANCH  26  29
HETATM   29  C5  UNL     1       6.500  28.278  37.135  1.00  0.00     0.096 C 
HETATM   30  C6  UNL     1       5.680  28.270  38.362  1.00  0.00     0.076 C 
HETATM   31  N2  UNL     1       6.051  27.759  36.074  1.00  0.00    -0.265 N 
ATOM     32  H2  UNL     1       5.118  27.350  36.125  1.00  0.00     0.194 HD
BRANCH  31  33
HETATM   33  O2  UNL     1       6.689  27.690  34.857  1.00  0.00    -0.270 OA
BRANCH  33  34
HETATM   34  C7  UNL     1       6.002  28.019  33.656  1.00  0.00     0.078 C 
HETATM   35  C8  UNL     1       4.710  27.193  33.563  1.00  0.00     0.048 C 
HETATM   36  C9  UNL     1       6.800  27.745  32.418  1.00  0.00     0.048 C 
HETATM   37  C10 UNL     1       5.646  29.477  33.702  1.00  0.00     0.048 C 
ENDBRANCH  33  34
ENDBRANCH  31  33
ENDBRANCH  26  29
ENDBRANCH  22  25
ENDBRANCH   1  22
TORSDOF 11
ENDMDL
